# generated using pymatgen
data_CeH16C9O8
_symmetry_space_group_name_H-M   'P 1'
_cell_length_a   8.72928984
_cell_length_b   9.81733761
_cell_length_c   11.79651227
_cell_angle_alpha   73.74756758
_cell_angle_beta   69.77991098
_cell_angle_gamma   84.91651830
_symmetry_Int_Tables_number   1
_chemical_formula_structural   CeH16C9O8
_chemical_formula_sum   'Ce2 H32 C18 O16'
_cell_volume   910.69302556
_cell_formula_units_Z   2
loop_
 _symmetry_equiv_pos_site_id
 _symmetry_equiv_pos_as_xyz
  1  'x, y, z'
loop_
 _atom_site_type_symbol
 _atom_site_label
 _atom_site_symmetry_multiplicity
 _atom_site_fract_x
 _atom_site_fract_y
 _atom_site_fract_z
 _atom_site_occupancy
 _atom_site_pbe_bader_charge
 _atom_site_pbe_bader_spin_density
 _atom_site_pbe_cm5_charge
 _atom_site_pbe_ddec_charge
 _atom_site_pbe_ddec_spin_density
 _atom_site_pbe_ddec_sum_bond_order
 _atom_site_pbe_magmom
Ce  Ce0  1  0.74682171  0.49164761  0.50575757  1  2.218766  0.994613  1.239218  1.93629  1.014276  2.26657  0.971
Ce  Ce1  1  0.25424861  0.50790720  0.49389481  1  2.220081  0.999326  1.236108  1.93685  1.019746  2.254296  0.974
H  H2  1  0.19264634  0.44674923  0.83924304  1  0.105654  0.00013  0.105078  0.125337  5e-06  1.022846  0.0
H  H3  1  0.25009752  0.26683536  0.86192270  1  0.050495  0.000482  0.10556  0.117812  9.8e-05  0.964376  0.0
H  H4  1  0.39889120  0.28661217  0.00027969  1  0.002381  1.2e-05  0.087679  0.078709  -5e-06  0.976755  0.0
H  H5  1  0.38976866  0.47246000  0.95605366  1  0.006138  2.5e-05  0.089564  0.081  -1.1e-05  0.989708  0.0
H  H6  1  0.08760972  0.27889493  0.10586494  1  0.006126  2.3e-05  0.088145  0.081472  1e-06  0.974712  0.0
H  H7  1  0.08765224  0.46530372  0.05783734  1  0.003521  2.8e-05  0.088052  0.078122  2e-06  1.001011  0.0
H  H8  1  0.28941900  0.46323920  0.17709823  1  0.092377  2e-05  0.107787  0.132869  -2.2e-05  1.010999  0.0
H  H9  1  0.25072809  0.28099710  0.24108856  1  0.048398  0.000109  0.104451  0.115134  2e-05  0.993491  0.0
H  H10  1  0.97590031  0.86398951  0.60756091  1  -0.001694  2e-06  0.092964  0.086453  -1.2e-05  1.010226  0.0
H  H11  1  0.02905049  0.03149673  0.61126637  1  0.022185  -4e-06  0.094115  0.090193  -2.1e-05  0.988876  0.0
H  H12  1  0.72975468  0.97686831  0.71957635  1  0.025991  9.6e-05  0.101891  0.113692  2.1e-05  0.971567  0.0
H  H13  1  0.71033716  0.96621275  0.57708883  1  0.071202  -3e-05  0.099702  0.120789  -4.9e-05  0.993015  0.0
H  H14  1  0.53546977  0.69511411  0.65284745  1  0.609192  0.000327  0.327389  0.398248  5.4e-05  0.889007  0.0
H  H15  1  0.51201868  0.75481307  0.52269404  1  0.657166  -7e-06  0.30919  0.413692  -8.3e-05  0.908287  0.0
H  H16  1  0.99561276  0.74014668  0.35416357  1  0.654868  -1.1e-05  0.302399  0.404081  -7.4e-05  0.931702  0.0
H  H17  1  0.93358013  0.70179790  0.25585526  1  0.580159  0.000177  0.322813  0.393637  2.6e-05  0.901254  0.0
H  H18  1  0.80821834  0.55299676  0.16073263  1  0.100337  3.9e-05  0.105  0.124578  -7e-06  1.023776  0.0
H  H19  1  0.75124285  0.73310205  0.13817700  1  0.046559  8.5e-05  0.105541  0.117672  1e-05  0.963886  0.0
H  H20  1  0.60140842  0.71350020  0.00040115  1  0.003867  7e-06  0.087635  0.079109  -5e-06  0.976495  0.0
H  H21  1  0.61066858  0.52771443  0.04452323  1  0.007241  8e-06  0.089599  0.081436  -1e-05  0.989666  0.0
H  H22  1  0.91274770  0.72120412  0.89364134  1  0.004645  5e-06  0.088143  0.081193  -5e-06  0.975045  0.0
H  H23  1  0.91255084  0.53480270  0.94155978  1  0.003072  1.6e-05  0.087835  0.078071  -3e-06  1.000937  0.0
H  H24  1  0.70950228  0.53697096  0.82362557  1  0.092561  -1.6e-05  0.107629  0.132505  -4.9e-05  1.010183  0.0
H  H25  1  0.74815271  0.71921959  0.75941514  1  0.049761  5.7e-05  0.104623  0.115346  5e-06  0.992138  0.0
H  H26  1  0.02361088  0.13599610  0.39237495  1  -0.006672  2e-05  0.092824  0.086225  -6e-06  1.010798  0.0
H  H27  1  0.97019224  0.96863170  0.38865772  1  0.041494  -6e-06  0.09425  0.090916  -2.2e-05  0.987496  0.0
H  H28  1  0.26959283  0.02329189  0.28049704  1  0.022451  -1e-06  0.101743  0.113455  -9e-06  0.972149  0.0
H  H29  1  0.28883042  0.03384739  0.42306312  1  0.058448  -4.4e-05  0.099557  0.120398  -5.8e-05  0.993284  0.0
H  H30  1  0.46467271  0.30341063  0.34668091  1  0.604482  5.8e-05  0.328534  0.39997  -1.9e-05  0.885619  0.0
H  H31  1  0.48955721  0.24532566  0.47663470  1  0.658588  0.000126  0.308918  0.413427  3e-06  0.908879  0.0
H  H32  1  0.00444659  0.25932723  0.64607489  1  0.655  0.000113  0.302432  0.404185  -1.1e-05  0.93139  0.0
H  H33  1  0.06732226  0.29809167  0.74379170  1  0.585241  0.000147  0.322838  0.394647  1.1e-05  0.900092  0.0
C  C34  1  0.43719748  0.41441744  0.73761328  1  1.536196  0.00403  0.222996  0.662988  0.001183  4.123612  0.003
C  C35  1  0.29040177  0.37300034  0.85552994  1  -0.075457  -4.3e-05  -0.1604  -0.304751  -0.000266  3.921516  0.0
C  C36  1  0.32015045  0.37557631  0.97496090  1  0.021698  -1.4e-05  -0.165604  -0.117258  -5.8e-05  3.962813  0.0
C  C37  1  0.16215106  0.37354535  0.08471567  1  0.028218  -2e-05  -0.167213  -0.121491  -3.8e-05  3.967263  0.0
C  C38  1  0.19720431  0.38085423  0.20082360  1  -0.069283  -0.000142  -0.161681  -0.311483  -0.000232  3.930608  0.0
C  C39  1  0.05254254  0.41161412  0.30582997  1  1.53385  0.000928  0.223421  0.658272  0.000145  4.141302  0.001
C  C40  1  0.96195072  0.97873380  0.57145001  1  0.055733  1.9e-05  -0.161991  -0.119995  -1.5e-05  3.917417  0.0
C  C41  1  0.78035331  0.01603856  0.61656347  1  -0.025636  -0.000167  -0.161694  -0.299744  -0.000262  3.93301  0.0
C  C42  1  0.75420360  0.17458853  0.58490559  1  1.533629  0.001188  0.217739  0.654734  0.000335  4.123289  0.001
C  C43  1  0.56353228  0.58582915  0.26237620  1  1.535324  0.001143  0.225371  0.666524  0.000153  4.117787  0.001
C  C44  1  0.71061084  0.62703977  0.14459148  1  -0.071497  -6.5e-05  -0.16004  -0.303918  -0.00016  3.920975  0.0
C  C45  1  0.68042568  0.62459342  0.02532919  1  0.022198  -2e-06  -0.166414  -0.119202  -2.6e-05  3.965712  0.0
C  C46  1  0.83788294  0.62664022  0.91518536  1  0.030904  1.2e-05  -0.167381  -0.121387  -1.3e-05  3.969195  0.0
C  C47  1  0.80188733  0.61938285  0.79949056  1  -0.076499  -0.000109  -0.162054  -0.311191  -0.000176  3.929086  0.0
C  C48  1  0.94605749  0.58826355  0.69433199  1  1.547164  0.000794  0.223278  0.658698  9.4e-05  4.142974  0.001
C  C49  1  0.03738174  0.02122186  0.42853886  1  0.000639  -2.5e-05  -0.161909  -0.120895  -4.1e-05  3.917547  0.0
C  C50  1  0.21899034  0.98394918  0.38349835  1  -0.007516  -8.6e-05  -0.161702  -0.299762  -0.000139  3.933439  0.0
C  C51  1  0.24559039  0.82541119  0.41512230  1  1.535186  8.6e-05  0.218008  0.655077  -0.000117  4.122545  0.0
O  O52  1  0.41752392  0.43884220  0.63028730  1  -1.216585  0.000153  -0.403308  -0.71764  -0.00334  2.370776  -0.004
O  O53  1  0.57710015  0.42798082  0.74304333  1  -1.186262  -0.000255  -0.337762  -0.602235  -0.002791  2.202819  -0.003
O  O54  1  0.90864839  0.41438409  0.30278653  1  -1.183022  -0.001358  -0.341348  -0.609444  -0.00257  2.194406  -0.002
O  O55  1  0.07894309  0.43731491  0.39886180  1  -1.214922  -0.000948  -0.399424  -0.704958  -0.003323  2.347467  -0.004
O  O56  1  0.83974303  0.25292546  0.61169993  1  -1.207665  -0.000815  -0.351823  -0.62928  -0.002511  2.271919  -0.003
O  O57  1  0.65087170  0.23228293  0.53225757  1  -1.199884  -0.000225  -0.334403  -0.619689  -0.001828  2.212966  -0.002
O  O58  1  0.59617858  0.72105924  0.56338155  1  -1.243401  0.001178  -0.583534  -0.786855  -0.00082  1.983041  -0.001
O  O59  1  0.89567919  0.71578047  0.33950870  1  -1.222531  -0.000382  -0.598855  -0.799071  -0.001571  2.000534  -0.002
O  O60  1  0.58236326  0.56269055  0.36980964  1  -1.213961  0.001554  -0.403224  -0.718131  -0.001332  2.369536  -0.002
O  O61  1  0.42414002  0.57109427  0.25648498  1  -1.183387  -0.001115  -0.338591  -0.603097  -0.002548  2.197108  -0.003
O  O62  1  0.08992074  0.58328830  0.69770601  1  -1.187677  -0.001464  -0.341257  -0.611412  -0.002818  2.196475  -0.003
O  O63  1  0.91893817  0.56447490  0.60094581  1  -1.217669  0.000286  -0.399063  -0.701815  -0.002139  2.348503  -0.003
O  O64  1  0.16022792  0.74673884  0.38851264  1  -1.209251  -0.00097  -0.351689  -0.630089  -0.002289  2.271455  -0.002
O  O65  1  0.34926460  0.76809170  0.46750251  1  -1.200611  -0.000351  -0.333858  -0.618994  -0.001459  2.208652  -0.001
O  O66  1  0.40506140  0.27960590  0.43630372  1  -1.239799  0.000753  -0.584181  -0.788119  -0.001219  1.983175  -0.002
O  O67  1  0.10456179  0.28423156  0.66010709  1  -1.228306  0.000503  -0.599612  -0.801898  -0.001609  2.000936  -0.002
