# generated using pymatgen
data_AlH12C16IO5
_symmetry_space_group_name_H-M   'P 1'
_cell_length_a   6.66810013
_cell_length_b   18.54413000
_cell_length_c   21.52930920
_cell_angle_alpha   102.01704085
_cell_angle_beta   89.99753492
_cell_angle_gamma   90.00391539
_symmetry_Int_Tables_number   1
_chemical_formula_structural   AlH12C16IO5
_chemical_formula_sum   'Al4 H48 C64 I4 O20'
_cell_volume   2603.84775688
_cell_formula_units_Z   4
loop_
 _symmetry_equiv_pos_site_id
 _symmetry_equiv_pos_as_xyz
  1  'x, y, z'
loop_
 _atom_site_type_symbol
 _atom_site_label
 _atom_site_symmetry_multiplicity
 _atom_site_fract_x
 _atom_site_fract_y
 _atom_site_fract_z
 _atom_site_occupancy
 _atom_site_pbe_bader_charge
 _atom_site_pbe_bader_spin_density
 _atom_site_pbe_cm5_charge
 _atom_site_pbe_ddec_charge
 _atom_site_pbe_ddec_spin_density
 _atom_site_pbe_ddec_sum_bond_order
 _atom_site_pbe_magmom
Al  Al0  1  0.83739315  0.74962996  0.25040640  1  2.503058  0  0.400306  1.650129  0  2.583065  0
Al  Al1  1  0.16261802  0.25038515  0.74959482  1  2.503319  0  0.400392  1.650121  0  2.58302  0
Al  Al2  1  0.33734981  0.75043061  0.24945266  1  2.503052  0  0.400137  1.649096  0  2.584288  0
Al  Al3  1  0.66265085  0.24958385  0.75054807  1  2.503263  0  0.400137  1.649114  0  2.584219  0
H  H4  1  0.18058756  0.43909534  0.88466100  1  0.056576  0  0.104442  0.106017  0  1.028775  0
H  H5  1  0.81942060  0.56091514  0.11535339  1  0.056418  0  0.104523  0.106213  0  1.028599  0
H  H6  1  0.68045911  0.06077923  0.61538081  1  0.060559  0  0.104289  0.10582  0  1.028651  0
H  H7  1  0.31954306  0.93922587  0.38460937  1  0.060179  0  0.104233  0.105719  0  1.028664  0
H  H8  1  0.21473450  0.42956438  0.41598221  1  0.09441  0  0.105337  0.113844  0  0.984233  0
H  H9  1  0.78527065  0.57041806  0.58401520  1  0.094487  0  0.105261  0.113662  0  0.984164  0
H  H10  1  0.71487393  0.07029332  0.08403916  1  0.090747  0  0.105359  0.113883  0  0.984044  0
H  H11  1  0.28516272  0.92968938  0.91594974  1  0.090536  0  0.105343  0.113886  0  0.98408  0
H  H12  1  0.58447738  0.31294071  0.99916465  1  0.036342  0  0.086135  0.116429  0  1.025119  0
H  H13  1  0.47641561  0.33850957  0.93163022  1  0.065244  0  0.096353  0.140328  0  0.989211  0
H  H14  1  0.67875531  0.27632491  0.92219209  1  0.056651  0  0.095739  0.138857  0  1.011515  0
H  H15  1  0.41553528  0.68705683  0.00084245  1  0.036444  0  0.086146  0.116421  0  1.025185  0
H  H16  1  0.32121386  0.72367559  0.07780654  1  0.057237  0  0.095834  0.138986  0  1.011458  0
H  H17  1  0.52358055  0.66150078  0.06838843  1  0.064906  0  0.09631  0.140334  0  0.989063  0
H  H18  1  0.08491803  0.18716539  0.50090199  1  0.036286  0  0.086337  0.116519  0  1.025326  0
H  H19  1  0.97633635  0.16146108  0.56829265  1  0.065399  0  0.096115  0.139785  0  0.989728  0
H  H20  1  0.17877162  0.22362386  0.57796539  1  0.051495  0  0.095909  0.139016  0  1.011142  0
H  H21  1  0.91501365  0.81282645  0.49909888  1  0.036612  0  0.086369  0.11664  0  1.025177  0
H  H22  1  0.82122604  0.77636379  0.42202878  1  0.05166  0  0.095874  0.138982  0  1.011155  0
H  H23  1  0.02364032  0.83853555  0.43172248  1  0.065231  0  0.096044  0.13967  0  0.989807  0
H  H24  1  0.51188038  0.58933692  0.94957102  1  0.026241  0  0.094027  0.132152  0  1.01476  0
H  H25  1  0.46379301  0.49422740  0.92611192  1  0.03097  0  0.092931  0.129988  0  1.00978  0
H  H26  1  0.33039281  0.55708691  0.88993784  1  0.017956  0  0.091851  0.125054  0  0.990919  0
H  H27  1  0.48813228  0.41065862  0.05044410  1  0.026465  0  0.093959  0.131958  0  1.014726  0
H  H28  1  0.66964835  0.44291786  0.11007269  1  0.017722  0  0.09184  0.124983  0  0.990843  0
H  H29  1  0.53621665  0.50577629  0.07389859  1  0.030749  0  0.092829  0.129858  0  1.009761  0
H  H30  1  0.01170605  0.91055244  0.55041840  1  0.025305  0  0.094023  0.132401  0  1.014432  0
H  H31  1  0.96388133  0.00567900  0.57384803  1  0.031919  0  0.09301  0.130282  0  1.009552  0
H  H32  1  0.83030314  0.94288751  0.61005375  1  0.019017  0  0.09205  0.125386  0  0.990741  0
H  H33  1  0.98827812  0.08944053  0.44959243  1  0.025283  0  0.094019  0.1324  0  1.014328  0
H  H34  1  0.16965553  0.05711092  0.38994769  1  0.019193  0  0.092006  0.125354  0  0.99073  0
H  H35  1  0.03608334  0.99431536  0.42614719  1  0.031641  0  0.092934  0.130126  0  1.009601  0
H  H36  1  0.51043741  0.52673633  0.45931619  1  0.054708  0  0.085992  0.128627  0  1.038234  0
H  H37  1  0.64200107  0.60860190  0.45441360  1  0.062563  0  0.097553  0.143921  0  0.989239  0
H  H38  1  0.65862882  0.53020856  0.39117686  1  0.026895  0  0.096676  0.141699  0  0.985999  0
H  H39  1  0.48957074  0.47325520  0.54068088  1  0.054803  0  0.085972  0.128603  0  1.038344  0
H  H40  1  0.34138683  0.46978253  0.60882068  1  0.026978  0  0.096699  0.141747  0  0.986077  0
H  H41  1  0.35801158  0.39138813  0.54558156  1  0.062363  0  0.097536  0.143935  0  0.98926  0
H  H42  1  0.01043262  0.97322928  0.04069589  1  0.055398  0  0.086022  0.128711  0  1.038058  0
H  H43  1  0.14198289  0.89135430  0.04554384  1  0.061724  0  0.097482  0.143844  0  0.989516  0
H  H44  1  0.15870046  0.96970787  0.10880670  1  0.028373  0  0.096847  0.141906  0  0.986077  0
H  H45  1  0.98958454  0.02675437  0.95929728  1  0.054622  0  0.086008  0.128678  0  1.038358  0
H  H46  1  0.84135269  0.03027721  0.89118318  1  0.027794  0  0.096897  0.142016  0  0.985841  0
H  H47  1  0.85805677  0.10863227  0.95445032  1  0.062106  0  0.097544  0.143994  0  0.989449  0
H  H48  1  0.58520250  0.65300714  0.22630694  1  0.636319  0  0.359818  0.438662  0  0.838408  0
H  H49  1  0.41479665  0.34698786  0.77381985  1  0.637619  0  0.359701  0.438186  0  0.839037  0
H  H50  1  0.08524371  0.84662147  0.27603332  1  0.643127  0  0.359223  0.437712  0  0.839937  0
H  H51  1  0.91476594  0.15337417  0.72407692  1  0.643596  0  0.359286  0.437616  0  0.840248  0
C  C52  1  0.59059171  0.83282050  0.17652387  1  1.656527  0  0.273548  0.711909  0  4.17404  0
C  C53  1  0.40939995  0.16715835  0.82345740  1  1.656113  0  0.273342  0.711526  0  4.174327  0
C  C54  1  0.09046037  0.66700275  0.32328563  1  1.680189  0  0.272687  0.711445  0  4.175201  0
C  C55  1  0.90952829  0.33299895  0.67671349  1  1.679943  0  0.272793  0.711735  0  4.175594  0
C  C56  1  0.58604446  0.83890055  0.34969028  1  1.551318  0  0.271666  0.660318  0  4.068326  0
C  C57  1  0.41394871  0.16110596  0.65029898  1  1.552003  0  0.271829  0.660595  0  4.067893  0
C  C58  1  0.08602009  0.66121511  0.15022924  1  1.550811  0  0.271952  0.660101  0  4.069021  0
C  C59  1  0.91399707  0.33879238  0.84977896  1  1.550971  0  0.271879  0.66004  0  4.06911  0
C  C60  1  0.91701625  0.39039344  0.91298693  1  0.010559  0  -0.017169  -0.101236  0  3.974083  0
C  C61  1  0.08299040  0.60960993  0.08702215  1  0.009945  0  -0.017115  -0.101292  0  3.97375  0
C  C62  1  0.41698073  0.10954538  0.58706176  1  0.009631  0  -0.017591  -0.102032  0  3.974424  0
C  C63  1  0.58300194  0.89044974  0.41293206  1  0.010139  0  -0.01756  -0.102012  0  3.974449  0
C  C64  1  0.23235383  0.55419207  0.98565072  1  -0.011735  0  -0.006397  0.063476  0  3.893438  0
C  C65  1  0.76766932  0.44581164  0.01435506  1  -0.012113  0  -0.006253  0.063643  0  3.893235  0
C  C66  1  0.73228477  0.94578034  0.51433190  1  -0.008519  0  -0.00664  0.063464  0  3.893528  0
C  C67  1  0.26769040  0.05421346  0.48566568  1  -0.008879  0  -0.006599  0.06349  0  3.893752  0
C  C68  1  0.23332354  0.61075118  0.03972605  1  -0.007775  0  -0.00402  0.09148  0  3.912571  0
C  C69  1  0.76669662  0.38924828  0.96028487  1  -0.008206  0  -0.003945  0.091358  0  3.912521  0
C  C70  1  0.73326116  0.88925416  0.46023454  1  -0.008332  0  -0.003729  0.091642  0  3.912691  0
C  C71  1  0.26671400  0.11073823  0.53976397  1  -0.008016  0  -0.003828  0.091479  0  3.912906  0
C  C72  1  0.93084806  0.55765415  0.07797684  1  -0.034618  0  -0.087822  -0.145697  0  3.994701  0
C  C73  1  0.06916010  0.44234952  0.92203604  1  -0.034673  0  -0.087742  -0.145459  0  3.994711  0
C  C74  1  0.43090168  0.94241609  0.42199406  1  -0.04229  0  -0.08746  -0.144814  0  3.994298  0
C  C75  1  0.56909149  0.05758531  0.57799891  1  -0.042241  0  -0.087466  -0.144903  0  3.994511  0
C  C76  1  0.92214405  0.50092852  0.02308389  1  -0.01403  0  -0.010844  0.01915  0  4.00735  0
C  C77  1  0.07787460  0.49907808  0.97692761  1  -0.07996  0  -0.010742  0.018925  0  4.007289  0
C  C78  1  0.42214794  0.99909791  0.47691866  1  -0.01188  0  -0.010828  0.018792  0  4.007454  0
C  C79  1  0.57783773  0.00090294  0.52307666  1  -0.079119  0  -0.010838  0.018811  0  4.007517  0
C  C80  1  0.11919806  0.46049484  0.45353778  1  -0.039062  0  -0.07214  -0.132652  0  3.617422  0
C  C81  1  0.88080110  0.53949290  0.54645924  1  -0.039144  0  -0.07201  -0.132151  0  3.617104  0
C  C82  1  0.61927798  0.03943561  0.04647099  1  -0.034034  0  -0.072177  -0.132818  0  3.618117  0
C  C83  1  0.38075417  0.96054698  0.95351980  1  -0.034091  0  -0.072259  -0.13293  0  3.618319  0
C  C84  1  0.90019834  0.44023168  0.46918063  1  -0.150405  0  -0.030558  0.011053  0  3.538663  0
C  C85  1  0.09980232  0.55975976  0.53081361  1  -0.150284  0  -0.030599  0.010912  0  3.538725  0
C  C86  1  0.40029687  0.05974635  0.03087810  1  -0.151468  0  -0.030784  0.010732  0  3.539382  0
C  C87  1  0.59973079  0.94025020  0.96911243  1  -0.150984  0  -0.03068  0.010844  0  3.539652  0
C  C88  1  0.90801543  0.37683682  0.62870041  1  -0.028157  0  -0.03505  -0.186623  0  3.942039  0
C  C89  1  0.09195073  0.62314631  0.37129039  1  -0.027071  0  -0.035002  -0.18653  0  3.941914  0
C  C90  1  0.40791646  0.12333754  0.87147455  1  0.31463  0  -0.035125  -0.186766  0  3.942099  0
C  C91  1  0.59210220  0.87661685  0.12848884  1  0.318504  0  -0.035078  -0.186645  0  3.942682  0
C  C92  1  0.17148295  0.47805547  0.52612964  1  0.026988  0  0.002218  0.131347  0  3.666744  0
C  C93  1  0.82851921  0.52194296  0.47387180  1  0.026861  0  0.002081  0.131127  0  3.666889  0
C  C94  1  0.67152561  0.02195332  0.97387365  1  0.026599  0  0.00234  0.13112  0  3.667375  0
C  C95  1  0.32850354  0.97803524  0.02611486  1  0.027119  0  0.002429  0.131135  0  3.667268  0
C  C96  1  0.94975670  0.45733848  0.54285925  1  0.132843  0  0.004231  0.075339  0  3.808577  0
C  C97  1  0.05024996  0.54265639  0.45714071  1  0.132738  0  0.004225  0.07537  0  3.808383  0
C  C98  1  0.44981069  0.04270712  0.95719908  1  0.133284  0  0.004331  0.076399  0  3.807634  0
C  C99  1  0.55022746  0.95727496  0.04278697  1  0.133751  0  0.004056  0.076021  0  3.808387  0
C  C100  1  0.91291097  0.41373633  0.58809128  1  -0.26069  0  -0.029196  -0.025525  0  4.078242  0
C  C101  1  0.08707919  0.58625188  0.41190054  1  -0.262398  0  -0.029284  -0.025539  0  4.078188  0
C  C102  1  0.41291278  0.08638025  0.91203446  1  -0.579843  0  -0.028947  -0.025527  0  4.078347  0
C  C103  1  0.58711787  0.91360116  0.08795347  1  -0.584317  0  -0.028943  -0.025629  0  4.079313  0
C  C104  1  0.61909985  0.32620950  0.95300711  1  -0.065117  0  -0.242669  -0.41216  0  3.977506  0
C  C105  1  0.38090381  0.67379160  0.04700147  1  -0.065566  0  -0.24268  -0.412274  0  3.977507  0
C  C106  1  0.11921622  0.17379680  0.54704472  1  -0.060026  0  -0.242874  -0.411908  0  3.977931  0
C  C107  1  0.88075144  0.82619071  0.45295608  1  -0.060128  0  -0.242861  -0.411955  0  3.977826  0
C  C108  1  0.39235923  0.54888606  0.93538681  1  -0.009228  0  -0.238432  -0.402427  0  3.977933  0
C  C109  1  0.60766392  0.45111428  0.06462081  1  -0.008643  0  -0.238279  -0.402108  0  3.977447  0
C  C110  1  0.89227456  0.95104597  0.56458901  1  -0.012184  0  -0.238563  -0.403379  0  3.977747  0
C  C111  1  0.10769311  0.04894771  0.43541047  1  -0.012074  0  -0.238439  -0.403143  0  3.977556  0
C  C112  1  0.65004585  0.54807816  0.44309500  1  -0.039341  0  -0.241169  -0.423394  0  3.97629  0
C  C113  1  0.34996231  0.45191294  0.55690254  1  -0.039551  0  -0.241185  -0.423461  0  3.976341  0
C  C114  1  0.15004914  0.95187442  0.05688923  1  -0.04116  0  -0.241148  -0.423354  0  3.976873  0
C  C115  1  0.84998601  0.04811164  0.94310019  1  -0.039492  0  -0.241283  -0.423748  0  3.976979  0
I  I116  1  0.74196097  0.34586861  0.42079108  1  0.054126  0  0.037356  -0.074462  0  1.255051  0
I  I117  1  0.25803069  0.65412288  0.57921310  1  0.054261  0  0.037292  -0.074538  0  1.25495  0
I  I118  1  0.24214576  0.15409488  0.07930389  1  0.054  0  0.037244  -0.074661  0  1.255186  0
I  I119  1  0.75790589  0.84588613  0.92069682  1  0.053606  0  0.037232  -0.074691  0  1.254938  0
O  O120  1  0.41699526  0.82020193  0.32348526  1  -1.262917  0  -0.238727  -0.605317  0  2.355084  0
O  O121  1  0.58299641  0.17981389  0.67650461  1  -1.263244  0  -0.238801  -0.605468  0  2.35489  0
O  O122  1  0.91701945  0.67988038  0.17646332  1  -1.262488  0  -0.238612  -0.604913  0  2.355611  0
O  O123  1  0.08299321  0.32012646  0.82354440  1  -1.26255  0  -0.238632  -0.605016  0  2.355722  0
O  O124  1  0.76017517  0.81591618  0.19630468  1  -1.236552  0  -0.229248  -0.581056  0  2.295676  0
O  O125  1  0.23982999  0.18408294  0.80369014  1  -1.236557  0  -0.22924  -0.580925  0  2.295865  0
O  O126  1  0.26010697  0.68387977  0.30348576  1  -1.236478  0  -0.229422  -0.582177  0  2.295074  0
O  O127  1  0.73988769  0.31613107  0.69652297  1  -1.236389  0  -0.229428  -0.582219  0  2.295328  0
O  O128  1  0.75620718  0.81955896  0.32468868  1  -1.259342  0  -0.23426  -0.595516  0  2.35105  0
O  O129  1  0.24381448  0.18044997  0.67531387  1  -1.259434  0  -0.234383  -0.595714  0  2.351109  0
O  O130  1  0.25615821  0.68065537  0.17519855  1  -1.259838  0  -0.234209  -0.595021  0  2.352415  0
O  O131  1  0.74384845  0.31936144  0.82480790  1  -1.259724  0  -0.234201  -0.594999  0  2.352344  0
O  O132  1  0.91804843  0.68400661  0.30519532  1  -1.232933  0  -0.230564  -0.5862  0  2.286433  0
O  O133  1  0.08194173  0.31601084  0.69481162  1  -1.233391  0  -0.230529  -0.586228  0  2.286643  0
O  O134  1  0.41818128  0.81593212  0.19470895  1  -1.232985  0  -0.230248  -0.585329  0  2.285887  0
O  O135  1  0.58180588  0.18405745  0.80527200  1  -1.232933  0  -0.230131  -0.585191  0  2.285887  0
O  O136  1  0.58702588  0.70569201  0.24276234  1  -1.43694  0  -0.447659  -0.996869  0  2.212362  0
O  O137  1  0.41298229  0.29432588  0.75724413  1  -1.438349  0  -0.447545  -0.996272  0  2.212529  0
O  O138  1  0.08701524  0.79444218  0.25732308  1  -1.44431  0  -0.447234  -0.995675  0  2.210812  0
O  O139  1  0.91299742  0.20558016  0.74268157  1  -1.444822  0  -0.447313  -0.995501  0  2.211165  0
