# generated using pymatgen
data_CdH8C12(SN5)2
_symmetry_space_group_name_H-M   'P 1'
_cell_length_a   8.43299531
_cell_length_b   10.36446728
_cell_length_c   11.00752244
_cell_angle_alpha   118.07673765
_cell_angle_beta   89.99992834
_cell_angle_gamma   90.00003346
_symmetry_Int_Tables_number   1
_chemical_formula_structural   CdH8C12(SN5)2
_chemical_formula_sum   'Cd2 H16 C24 S4 N20'
_cell_volume   848.87467121
_cell_formula_units_Z   2
loop_
 _symmetry_equiv_pos_site_id
 _symmetry_equiv_pos_as_xyz
  1  'x, y, z'
loop_
 _atom_site_type_symbol
 _atom_site_label
 _atom_site_symmetry_multiplicity
 _atom_site_fract_x
 _atom_site_fract_y
 _atom_site_fract_z
 _atom_site_occupancy
 _atom_site_pbe_bader_spin_density
 _atom_site_pbe_cm5_charge
 _atom_site_pbe_ddec_charge
 _atom_site_pbe_ddec_spin_density
 _atom_site_pbe_ddec_sum_bond_order
 _atom_site_pbe_magmom
Cd  Cd0  1  0.50002577  0.61741616  0.99995413  1  0  0.821943  0.847948  0  2.406673  0
Cd  Cd1  1  0.99997370  0.11741407  0.99995032  1  0  0.821931  0.847935  0  2.406826  0
H  H2  1  0.74391909  0.82351195  0.91264765  1  0  0.142158  0.113891  0  0.974872  0
H  H3  1  0.25601605  0.91079182  0.08732808  1  0  0.142038  0.114281  0  0.974159  0
H  H4  1  0.24398219  0.41079301  0.08732687  1  0  0.142027  0.114281  0  0.974187  0
H  H5  1  0.75608541  0.32351097  0.91265092  1  0  0.142177  0.113917  0  0.974864  0
H  H6  1  0.66870146  0.03315399  0.55866216  1  0  0.106149  0.077748  0  1.03416  0
H  H7  1  0.33124510  0.47455413  0.44134997  1  0  0.105959  0.077403  0  1.034037  0
H  H8  1  0.16875616  0.97455402  0.44135084  1  0  0.10596  0.077406  0  1.034085  0
H  H9  1  0.83129867  0.53315499  0.55866609  1  0  0.106112  0.07771  0  1.034152  0
H  H10  1  0.87282235  0.21596453  0.56488017  1  0  0.101846  0.123381  0  1.043945  0
H  H11  1  0.12672709  0.65081938  0.43512364  1  0  0.101631  0.123058  0  1.044739  0
H  H12  1  0.37327632  0.15081621  0.43512219  1  0  0.101628  0.123066  0  1.044701  0
H  H13  1  0.62717790  0.71596552  0.56488247  1  0  0.101848  0.123364  0  1.043933  0
H  H14  1  0.96330046  0.19787635  0.33546416  1  0  0.132793  0.125675  0  1.025317  0
H  H15  1  0.03618857  0.86207821  0.66450360  1  0  0.132778  0.125784  0  1.025523  0
H  H16  1  0.46380988  0.36207722  0.66450212  1  0  0.132778  0.125798  0  1.025556  0
H  H17  1  0.53670252  0.69787516  0.33546558  1  0  0.132797  0.125686  0  1.025309  0
C  C18  1  0.74777256  0.87465624  0.02412088  1  0  0.169293  0.193581  0  3.978433  0
C  C19  1  0.25214242  0.85043885  0.97586428  1  0  0.169729  0.194099  0  3.976661  0
C  C20  1  0.24785551  0.35044005  0.97586397  1  0  0.169773  0.19409  0  3.976687  0
C  C21  1  0.75222868  0.37465306  0.02411774  1  0  0.169297  0.193589  0  3.978354  0
C  C22  1  0.70005745  0.92169934  0.23134758  1  0  0.339317  0.387758  0  4.084293  0
C  C23  1  0.29987290  0.69037411  0.76865036  1  0  0.338417  0.38551  0  4.085993  0
C  C24  1  0.20012762  0.19037312  0.76864822  1  0  0.338421  0.385563  0  4.085946  0
C  C25  1  0.79994230  0.42169508  0.23135027  1  0  0.339287  0.387758  0  4.084299  0
C  C26  1  0.71131984  0.03021204  0.46360271  1  0  0.068066  0.144168  0  3.931686  0
C  C27  1  0.28852121  0.56659179  0.53642559  1  0  0.068239  0.143799  0  3.932076  0
C  C28  1  0.21148079  0.06658971  0.53642569  1  0  0.0682  0.143805  0  3.932173  0
C  C29  1  0.78868044  0.53020976  0.46360523  1  0  0.068138  0.144261  0  3.931538  0
C  C30  1  0.82480862  0.13227867  0.46769924  1  0  -0.084841  -0.176653  0  3.957547  0
C  C31  1  0.17479179  0.66435115  0.53229369  1  0  -0.084882  -0.175939  0  3.957458  0
C  C32  1  0.32521266  0.16434799  0.53229502  1  0  -0.084849  -0.17598  0  3.957434  0
C  C33  1  0.67519054  0.63227638  0.46770096  1  0  -0.084914  -0.176684  0  3.957503  0
C  C34  1  0.87666810  0.12601240  0.34644739  1  0  0.071496  0.047207  0  3.832187  0
C  C35  1  0.12286712  0.77928924  0.65355345  1  0  0.071472  0.04636  0  3.831672  0
C  C36  1  0.37713603  0.27928716  0.65355158  1  0  0.071441  0.046331  0  3.831636  0
C  C37  1  0.62333244  0.62601120  0.34644964  1  0  0.071537  0.047244  0  3.832243  0
C  C38  1  0.19426913  0.70974524  0.21146651  1  0  0.132375  0.264  0  4.371542  0
C  C39  1  0.80587927  0.49838197  0.78857741  1  0  0.131893  0.262332  0  4.371799  0
C  C40  1  0.69411014  0.99837529  0.78856899  1  0  0.131675  0.262121  0  4.371722  0
C  C41  1  0.30572520  0.20974097  0.21146465  1  0  0.13239  0.264001  0  4.371636  0
S  S42  1  0.00912255  0.73238467  0.25413794  1  0  -0.18582  -0.336257  0  2.324627  0
S  S43  1  0.99103415  0.47848176  0.74597333  1  0  -0.18567  -0.335471  0  2.324481  0
S  S44  1  0.50896718  0.97847944  0.74596520  1  0  -0.185499  -0.335228  0  2.324953  0
S  S45  1  0.49087647  0.23238368  0.25413644  1  0  -0.185872  -0.336347  0  2.324407  0
N  N46  1  0.84084860  0.98988504  0.09714176  1  0  -0.228576  -0.266695  0  3.273425  0
N  N47  1  0.15891228  0.89258463  0.90284811  1  0  -0.228878  -0.267331  0  3.271065  0
N  N48  1  0.34108699  0.39258474  0.90284814  1  0  -0.228898  -0.267378  0  3.271079  0
N  N49  1  0.65915142  0.48988407  0.09714421  1  0  -0.228603  -0.266715  0  3.273454  0
N  N50  1  0.66089113  0.82911368  0.09965412  1  0  -0.343566  -0.400352  0  3.408558  0
N  N51  1  0.33913288  0.72949098  0.90033492  1  0  -0.34347  -0.400542  0  3.410409  0
N  N52  1  0.16086508  0.22949109  0.90033513  1  0  -0.343529  -0.400573  0  3.410363  0
N  N53  1  0.83910877  0.32911162  0.09965774  1  0  -0.343546  -0.400323  0  3.408448  0
N  N54  1  0.64906005  0.92575685  0.34755873  1  0  -0.301979  -0.330602  0  3.301541  0
N  N55  1  0.35095445  0.57825642  0.65244947  1  0  -0.3015  -0.329136  0  3.300586  0
N  N56  1  0.14904500  0.07825762  0.65244926  1  0  -0.301471  -0.329165  0  3.300748  0
N  N57  1  0.85093714  0.42575369  0.34756004  1  0  -0.301976  -0.330651  0  3.301602  0
N  N58  1  0.81143393  0.02002291  0.22924795  1  0  -0.104485  0.134108  0  3.778369  0
N  N59  1  0.18832538  0.79063943  0.77073046  1  0  -0.104014  0.135623  0  3.777939  0
N  N60  1  0.31167402  0.29063844  0.77073095  1  0  -0.103975  0.135683  0  3.777843  0
N  N61  1  0.68856554  0.52002172  0.22925105  1  0  -0.104462  0.134067  0  3.77843  0
N  N62  1  0.33177782  0.69361870  0.18286515  1  0  -0.425089  -0.524937  0  3.163523  0
N  N63  1  0.66834567  0.51073611  0.81709444  1  0  -0.424829  -0.523784  0  3.162804  0
N  N64  1  0.83166350  0.01073513  0.81709582  1  0  -0.424759  -0.523813  0  3.162352  0
N  N65  1  0.16822366  0.19361990  0.18286674  1  0  -0.425056  -0.52484  0  3.163801  0
