# generated using pymatgen
data_NaMgH12C6NO9
_symmetry_space_group_name_H-M   'P 1'
_cell_length_a   9.71193649
_cell_length_b   14.59963125
_cell_length_c   17.28576885
_cell_angle_alpha   90.00054423
_cell_angle_beta   90.00040106
_cell_angle_gamma   90.00019023
_symmetry_Int_Tables_number   1
_chemical_formula_structural   NaMgH12C6NO9
_chemical_formula_sum   'Na8 Mg8 H96 C48 N8 O72'
_cell_volume   2450.96111699
_cell_formula_units_Z   8
loop_
 _symmetry_equiv_pos_site_id
 _symmetry_equiv_pos_as_xyz
  1  'x, y, z'
loop_
 _atom_site_type_symbol
 _atom_site_label
 _atom_site_symmetry_multiplicity
 _atom_site_fract_x
 _atom_site_fract_y
 _atom_site_fract_z
 _atom_site_occupancy
 _atom_site_pbe_bader_charge
 _atom_site_pbe_bader_spin_density
 _atom_site_pbe_cm5_charge
 _atom_site_pbe_ddec_charge
 _atom_site_pbe_ddec_spin_density
 _atom_site_pbe_ddec_sum_bond_order
 _atom_site_pbe_magmom
Na  Na0  1  0.15671554  0.04601629  0.35985818  1  0.886502  0  0.680467  0.850749  0  0.542453  0
Na  Na1  1  0.84328144  0.45399204  0.85986001  1  0.886502  0  0.680483  0.85074  0  0.542469  0
Na  Na2  1  0.65674280  0.95399884  0.14013394  1  0.886473  0  0.680603  0.850811  0  0.542422  0
Na  Na3  1  0.34327635  0.54601052  0.64013436  1  0.886502  0  0.680521  0.850811  0  0.542384  0
Na  Na4  1  0.84327708  0.95398639  0.64014258  1  0.886454  0  0.680585  0.850779  0  0.54246  0
Na  Na5  1  0.15673383  0.54600653  0.14014365  1  0.886508  0  0.680542  0.85079  0  0.542384  0
Na  Na6  1  0.34326011  0.04600110  0.85986335  1  0.886476  0  0.680418  0.850767  0  0.542303  0
Na  Na7  1  0.65674819  0.45399354  0.35985079  1  0.886457  0  0.680504  0.850794  0  0.542305  0
Mg  Mg8  1  0.78812135  0.05138594  0.29686852  1  1.678579  0  0.82181  1.293591  0  1.479002  0
Mg  Mg9  1  0.21186795  0.44861087  0.79686626  1  1.678494  0  0.821786  1.293628  0  1.478862  0
Mg  Mg10  1  0.28815687  0.94859449  0.20312693  1  1.678454  0  0.821947  1.293998  0  1.478531  0
Mg  Mg11  1  0.71186584  0.55140173  0.70313923  1  1.67844  0  0.822023  1.294051  0  1.478575  0
Mg  Mg12  1  0.21186406  0.94860031  0.70312645  1  1.678484  0  0.821784  1.293628  0  1.479039  0
Mg  Mg13  1  0.78815350  0.55140756  0.20312872  1  1.678493  0  0.821898  1.293861  0  1.478723  0
Mg  Mg14  1  0.71184502  0.05139586  0.79687094  1  1.67839  0  0.821825  1.293728  0  1.478909  0
Mg  Mg15  1  0.28815767  0.44861054  0.29688352  1  1.678431  0  0.821855  1.293812  0  1.478828  0
H  H16  1  0.08392345  0.85133191  0.41878342  1  0.645118  0  0.29062  0.380411  0  0.962398  0
H  H17  1  0.91607588  0.64867006  0.91878030  1  0.645136  0  0.290618  0.380426  0  0.962418  0
H  H18  1  0.58391820  0.14867115  0.08120717  1  0.64498  0  0.290587  0.380514  0  0.962336  0
H  H19  1  0.41608624  0.35133019  0.58120576  1  0.645052  0  0.290587  0.380546  0  0.962286  0
H  H20  1  0.91607535  0.14866119  0.58120924  1  0.645115  0  0.290572  0.380445  0  0.962362  0
H  H21  1  0.08392086  0.35132783  0.08120600  1  0.644898  0  0.2906  0.380564  0  0.962245  0
H  H22  1  0.41609089  0.85132742  0.91878318  1  0.645056  0  0.29065  0.38051  0  0.962293  0
H  H23  1  0.58392182  0.64867387  0.41879443  1  0.644999  0  0.290587  0.38055  0  0.962288  0
H  H24  1  0.15035073  0.85427236  0.33313392  1  0.646491  0  0.29866  0.390543  0  0.939947  0
H  H25  1  0.84964907  0.64573320  0.83312993  1  0.646377  0  0.298653  0.390541  0  0.939975  0
H  H26  1  0.65034908  0.14572705  0.16685806  1  0.646638  0  0.298658  0.390537  0  0.939969  0
H  H27  1  0.34965283  0.35426386  0.66685358  1  0.646733  0  0.298672  0.390572  0  0.939893  0
H  H28  1  0.84964806  0.14572347  0.66685932  1  0.646649  0  0.298762  0.390649  0  0.93977  0
H  H29  1  0.15035385  0.35427428  0.16685579  1  0.64667  0  0.298686  0.390592  0  0.939871  0
H  H30  1  0.34966104  0.85424961  0.83313055  1  0.646561  0  0.298663  0.390579  0  0.939895  0
H  H31  1  0.65035729  0.64575116  0.33314314  1  0.646658  0  0.298676  0.390533  0  0.939956  0
H  H32  1  0.92146176  0.90321608  0.34766421  1  0.63102  0  0.296081  0.395685  0  0.939343  0
H  H33  1  0.07851993  0.59678466  0.84766054  1  0.631065  0  0.296078  0.395732  0  0.939313  0
H  H34  1  0.42148624  0.09678513  0.15233693  1  0.630991  0  0.296094  0.395705  0  0.939368  0
H  H35  1  0.57854407  0.40321813  0.65233174  1  0.631061  0  0.296103  0.395645  0  0.939406  0
H  H36  1  0.07851953  0.09678044  0.65233944  1  0.63132  0  0.296127  0.395706  0  0.939331  0
H  H37  1  0.92147063  0.40321734  0.15233444  1  0.631111  0  0.296072  0.395688  0  0.939319  0
H  H38  1  0.57854447  0.90321139  0.84767135  1  0.631107  0  0.29609  0.395683  0  0.939338  0
H  H39  1  0.42148562  0.59680236  0.34766497  1  0.630756  0  0.296033  0.39566  0  0.939454  0
H  H40  1  0.78523321  0.87463208  0.30062384  1  0.636888  0  0.295144  0.390755  0  0.944967  0
H  H41  1  0.21474323  0.62537012  0.80061716  1  0.63701  0  0.295164  0.390726  0  0.945015  0
H  H42  1  0.28525831  0.12536275  0.19938255  1  0.636948  0  0.295097  0.39057  0  0.945186  0
H  H43  1  0.71476181  0.37463494  0.69937740  1  0.63689  0  0.295148  0.390712  0  0.94504  0
H  H44  1  0.21473469  0.12536102  0.69938965  1  0.636491  0  0.295031  0.390496  0  0.945315  0
H  H45  1  0.78525248  0.37463530  0.19938418  1  0.636964  0  0.295122  0.390653  0  0.945115  0
H  H46  1  0.71478064  0.87463788  0.80063731  1  0.636795  0  0.295075  0.390543  0  0.94525  0
H  H47  1  0.28525655  0.62537254  0.30061989  1  0.636983  0  0.295114  0.390656  0  0.94511  0
H  H48  1  0.22790897  0.09207537  0.54783593  1  0.626224  0  0.287285  0.385828  0  0.938926  0
H  H49  1  0.77206803  0.40792741  0.04783713  1  0.626521  0  0.287286  0.385903  0  0.938817  0
H  H50  1  0.72794612  0.90793102  0.95219131  1  0.62697  0  0.287219  0.385667  0  0.939063  0
H  H51  1  0.27206006  0.59207774  0.45215626  1  0.62659  0  0.287284  0.385963  0  0.938725  0
H  H52  1  0.77207233  0.90793211  0.45218855  1  0.626579  0  0.287189  0.385615  0  0.93912  0
H  H53  1  0.22793179  0.59206774  0.95218273  1  0.626728  0  0.287235  0.385678  0  0.93904  0
H  H54  1  0.27207739  0.09207715  0.04783780  1  0.626157  0  0.287269  0.385885  0  0.938854  0
H  H55  1  0.72793462  0.40792837  0.54780864  1  0.626784  0  0.287249  0.385711  0  0.938996  0
H  H56  1  0.12272654  0.13094166  0.49030518  1  0.620369  0  0.275916  0.358553  0  1.000282  0
H  H57  1  0.87724030  0.36905546  0.99029814  1  0.620639  0  0.275968  0.358701  0  1.000118  0
H  H58  1  0.62274947  0.86906401  0.00971573  1  0.620565  0  0.275995  0.358674  0  1.000164  0
H  H59  1  0.37724112  0.63093396  0.50969810  1  0.620685  0  0.275995  0.358766  0  1.000032  0
H  H60  1  0.87726814  0.86905486  0.50970658  1  0.620371  0  0.275941  0.358608  0  1.000201  0
H  H61  1  0.12273275  0.63094037  0.00970609  1  0.620418  0  0.275941  0.358544  0  1.00028  0
H  H62  1  0.37725241  0.13094758  0.99030354  1  0.620528  0  0.275952  0.358698  0  1.000088  0
H  H63  1  0.62273194  0.36906461  0.49028589  1  0.620449  0  0.275968  0.358631  0  1.00019  0
H  H64  1  0.59911142  0.25931608  0.39859770  1  0.104309  0  0.111679  0.103606  0  1.048079  0
H  H65  1  0.40089837  0.24068807  0.89860793  1  0.104108  0  0.111658  0.103613  0  1.048274  0
H  H66  1  0.09910111  0.74067255  0.10139147  1  0.103896  0  0.111667  0.103586  0  1.048134  0
H  H67  1  0.90088876  0.75933552  0.60139979  1  0.103984  0  0.1116  0.103456  0  1.048295  0
H  H68  1  0.40091930  0.74068386  0.60138513  1  0.103583  0  0.111636  0.103474  0  1.048166  0
H  H69  1  0.59908807  0.75931324  0.10139167  1  0.103975  0  0.111667  0.103543  0  1.048249  0
H  H70  1  0.90088636  0.25930617  0.89860640  1  0.103972  0  0.111673  0.10356  0  1.048157  0
H  H71  1  0.09909459  0.24068223  0.39860444  1  0.103986  0  0.111638  0.103482  0  1.04835  0
H  H72  1  0.50895738  0.20099018  0.32521102  1  0.084496  0  0.127246  0.136791  0  0.953405  0
H  H73  1  0.49103898  0.29900316  0.82521259  1  0.084672  0  0.127282  0.1369  0  0.953307  0
H  H74  1  0.00897493  0.79900630  0.17479072  1  0.084534  0  0.127185  0.136773  0  0.953278  0
H  H75  1  0.99105411  0.70100985  0.67478777  1  0.084388  0  0.127177  0.136848  0  0.953363  0
H  H76  1  0.49103627  0.79901114  0.67478453  1  0.084568  0  0.127262  0.136755  0  0.953418  0
H  H77  1  0.50895776  0.70098857  0.17478354  1  0.084589  0  0.127258  0.136783  0  0.953352  0
H  H78  1  0.99101666  0.20098680  0.82521236  1  0.084843  0  0.127225  0.136801  0  0.953462  0
H  H79  1  0.00896528  0.29901339  0.32521762  1  0.084654  0  0.127255  0.136777  0  0.953426  0
H  H80  1  0.72003210  0.06804725  0.49494650  1  0.078841  0  0.124638  0.120642  0  1.000816  0
H  H81  1  0.27993146  0.43194918  0.99494307  1  0.07895  0  0.124624  0.120569  0  1.000905  0
H  H82  1  0.22006319  0.93194575  0.00505215  1  0.079084  0  0.124598  0.120605  0  1.000902  0
H  H83  1  0.77995849  0.56805565  0.50505460  1  0.079184  0  0.124537  0.120474  0  1.000843  0
H  H84  1  0.27993272  0.93194516  0.50504905  1  0.078929  0  0.124574  0.120581  0  1.000892  0
H  H85  1  0.72003438  0.56804460  0.00504613  1  0.078863  0  0.124583  0.120594  0  1.000826  0
H  H86  1  0.77993561  0.06803638  0.99494398  1  0.078771  0  0.124589  0.120564  0  1.000924  0
H  H87  1  0.22007326  0.43195320  0.49495311  1  0.078806  0  0.124617  0.120597  0  1.000717  0
H  H88  1  0.69771841  0.18896541  0.49308741  1  0.076958  0  0.114158  0.119398  0  0.971175  0
H  H89  1  0.30224626  0.31103376  0.99308349  1  0.076828  0  0.1142  0.119397  0  0.971131  0
H  H90  1  0.19775653  0.81102082  0.00690788  1  0.076536  0  0.114164  0.1194  0  0.971176  0
H  H91  1  0.80226301  0.68899086  0.50691522  1  0.076534  0  0.114084  0.119317  0  0.971158  0
H  H92  1  0.30225877  0.81102426  0.50690525  1  0.076484  0  0.114126  0.119366  0  0.971273  0
H  H93  1  0.69771959  0.68896687  0.00690512  1  0.076684  0  0.114112  0.119402  0  0.971246  0
H  H94  1  0.80226904  0.18895447  0.99309462  1  0.076857  0  0.114176  0.11943  0  0.971156  0
H  H95  1  0.19775123  0.31102895  0.49310058  1  0.076495  0  0.114158  0.119381  0  0.971166  0
H  H96  1  0.43774101  0.09154087  0.42157067  1  0.088924  0  0.111738  0.116188  0  0.999199  0
H  H97  1  0.56224002  0.40846392  0.92158258  1  0.088994  0  0.11178  0.116277  0  0.999294  0
H  H98  1  0.93776796  0.90843905  0.07842792  1  0.089256  0  0.111668  0.116115  0  0.999049  0
H  H99  1  0.06224449  0.59156153  0.57841051  1  0.089269  0  0.111724  0.116205  0  0.999259  0
H  H100  1  0.56223617  0.90846524  0.57841563  1  0.088957  0  0.111806  0.116272  0  0.999233  0
H  H101  1  0.43775672  0.59153260  0.07842801  1  0.089133  0  0.111733  0.116136  0  0.999015  0
H  H102  1  0.06222672  0.09153761  0.92156358  1  0.089298  0  0.111751  0.116144  0  0.999079  0
H  H103  1  0.93775431  0.40845896  0.42157000  1  0.089148  0  0.111784  0.116262  0  0.999137  0
H  H104  1  0.55632079  0.00017259  0.43510711  1  0.054513  0  0.124196  0.126234  0  0.968359  0
H  H105  1  0.44364526  0.49982190  0.93513085  1  0.053946  0  0.124081  0.126175  0  0.96837  0
H  H106  1  0.05636605  0.99981619  0.06488117  1  0.054513  0  0.1241  0.12623  0  0.968371  0
H  H107  1  0.94362842  0.50018647  0.56488066  1  0.05411  0  0.12404  0.126248  0  0.968259  0
H  H108  1  0.44364094  0.99982325  0.56487803  1  0.05466  0  0.124148  0.126223  0  0.968349  0
H  H109  1  0.55636178  0.50016434  0.06489189  1  0.054727  0  0.124109  0.126179  0  0.968235  0
H  H110  1  0.94364613  0.00016800  0.93510745  1  0.054624  0  0.124133  0.126134  0  0.968355  0
H  H111  1  0.05635081  0.49982101  0.43512704  1  0.054737  0  0.124122  0.12621  0  0.968319  0
C  C112  1  0.61021472  0.20708807  0.35351693  1  0.218821  0  -0.069397  -0.238542  0  3.866631  0
C  C113  1  0.38978046  0.29290932  0.85352610  1  0.218873  0  -0.069505  -0.238929  0  3.866911  0
C  C114  1  0.11023642  0.79289161  0.14648174  1  0.21855  0  -0.069348  -0.238554  0  3.86632  0
C  C115  1  0.88977629  0.70711911  0.64649181  1  0.219152  0  -0.069202  -0.238309  0  3.866149  0
C  C116  1  0.38978820  0.79290571  0.64646995  1  0.219229  0  -0.069377  -0.23839  0  3.866593  0
C  C117  1  0.61021730  0.70709748  0.14647698  1  0.218871  0  -0.069368  -0.238411  0  3.866524  0
C  C118  1  0.88976443  0.20708984  0.85352250  1  0.218465  0  -0.069416  -0.238671  0  3.866795  0
C  C119  1  0.11022148  0.29290686  0.35352631  1  0.218981  0  -0.069333  -0.238331  0  3.866705  0
C  C120  1  0.70758621  0.24041346  0.28972241  1  1.573768  0  0.219449  0.635802  0  4.169496  0
C  C121  1  0.29239206  0.25956829  0.78974515  1  1.572671  0  0.219696  0.636244  0  4.169617  0
C  C122  1  0.20760982  0.75955561  0.21027136  1  1.57313  0  0.219732  0.636166  0  4.169053  0
C  C123  1  0.79240230  0.74044198  0.71029153  1  1.572599  0  0.219678  0.636166  0  4.169109  0
C  C124  1  0.29240538  0.75956593  0.71025290  1  1.572697  0  0.21958  0.636109  0  4.169867  0
C  C125  1  0.70758718  0.74044261  0.21026313  1  1.572679  0  0.219521  0.636025  0  4.169698  0
C  C126  1  0.79239413  0.24042927  0.78973866  1  1.572695  0  0.2196  0.635977  0  4.169374  0
C  C127  1  0.20759547  0.25957715  0.28973700  1  1.572701  0  0.219675  0.635942  0  4.169733  0
C  C128  1  0.73012923  0.12947553  0.45835867  1  0.283505  0  -0.063924  -0.236529  0  3.907063  0
C  C129  1  0.26983482  0.37052029  0.95835799  1  0.284104  0  -0.063966  -0.236578  0  3.9075  0
C  C130  1  0.23019065  0.87050922  0.04163442  1  0.284036  0  -0.063904  -0.236481  0  3.907051  0
C  C131  1  0.76980994  0.62949828  0.54163830  1  0.283962  0  -0.063858  -0.236195  0  3.906699  0
C  C132  1  0.26985206  0.87051414  0.54163689  1  0.28459  0  -0.063985  -0.236668  0  3.907333  0
C  C133  1  0.73015677  0.62948240  0.04163062  1  0.284275  0  -0.063892  -0.236456  0  3.907224  0
C  C134  1  0.76983903  0.12947360  0.95836403  1  0.284242  0  -0.063909  -0.236495  0  3.907261  0
C  C135  1  0.23016827  0.37051673  0.45837056  1  0.284768  0  -0.06391  -0.236328  0  3.906888  0
C  C136  1  0.88372931  0.13633573  0.44045428  1  1.567661  0  0.226742  0.633135  0  4.143184  0
C  C137  1  0.11624990  0.36366766  0.94045026  1  1.567714  0  0.22675  0.633155  0  4.143549  0
C  C138  1  0.38378575  0.86365534  0.05954376  1  1.568172  0  0.226777  0.633004  0  4.143327  0
C  C139  1  0.61620998  0.63634459  0.55955727  1  1.568194  0  0.226753  0.632992  0  4.143431  0
C  C140  1  0.11624889  0.86365052  0.55954243  1  1.568187  0  0.226855  0.633162  0  4.143359  0
C  C141  1  0.88375507  0.63634667  0.05953719  1  1.568312  0  0.226763  0.632967  0  4.143363  0
C  C142  1  0.61624291  0.13633845  0.94046047  1  1.56787  0  0.226755  0.633081  0  4.14345  0
C  C143  1  0.38375999  0.36366014  0.44046027  1  1.567766  0  0.226679  0.632784  0  4.14348  0
C  C144  1  0.52854289  0.05723850  0.39644603  1  0.27033  0  -0.062738  -0.240185  0  3.906385  0
C  C145  1  0.47142786  0.44275744  0.89646358  1  0.270382  0  -0.062765  -0.240433  0  3.906433  0
C  C146  1  0.02857317  0.94275311  0.10355439  1  0.269309  0  -0.062722  -0.24017  0  3.905719  0
C  C147  1  0.97145574  0.55724262  0.60355893  1  0.269548  0  -0.062779  -0.240432  0  3.905972  0
C  C148  1  0.47143635  0.94276282  0.60354142  1  0.270229  0  -0.062806  -0.240297  0  3.906671  0
C  C149  1  0.52856270  0.55723018  0.10355917  1  0.26949  0  -0.062854  -0.240178  0  3.905646  0
C  C150  1  0.97142254  0.05723519  0.89644175  1  0.269576  0  -0.062774  -0.240085  0  3.90597  0
C  C151  1  0.02857086  0.44275869  0.39645687  1  0.269707  0  -0.062836  -0.240331  0  3.90607  0
C  C152  1  0.49254719  0.01441838  0.31820693  1  1.591644  0  0.235565  0.664157  0  4.134481  0
C  C153  1  0.50745873  0.48556812  0.81821962  1  1.591877  0  0.23553  0.664032  0  4.134247  0
C  C154  1  0.99257122  0.98556614  0.18180785  1  1.591276  0  0.235348  0.66359  0  4.134635  0
C  C155  1  0.00745752  0.51443287  0.68181340  1  1.592779  0  0.235643  0.664082  0  4.134166  0
C  C156  1  0.50743925  0.98557266  0.68178052  1  1.591475  0  0.235368  0.663495  0  4.135307  0
C  C157  1  0.49256684  0.51442771  0.18181238  1  1.591155  0  0.235368  0.663659  0  4.134336  0
C  C158  1  0.00743066  0.01443038  0.81819580  1  1.590791  0  0.235262  0.663621  0  4.134651  0
C  C159  1  0.99258452  0.48557324  0.31821166  1  1.591266  0  0.235397  0.6636  0  4.134884  0
N  N160  1  0.64821902  0.11769873  0.38786850  1  -1.083107  0  -0.366932  -0.130156  0  3.580499  0
N  N161  1  0.35175517  0.38229585  0.88787554  1  -1.083048  0  -0.36685  -0.12976  0  3.580328  0
N  N162  1  0.14826022  0.88228288  0.11212575  1  -1.082161  0  -0.367022  -0.130387  0  3.579839  0
N  N163  1  0.85176010  0.61772038  0.61213288  1  -1.082296  0  -0.367129  -0.130794  0  3.579535  0
N  N164  1  0.35177154  0.88229505  0.61212474  1  -1.083643  0  -0.366892  -0.130025  0  3.580349  0
N  N165  1  0.64823950  0.61770683  0.11212522  1  -1.082833  0  -0.366953  -0.130417  0  3.58018  0
N  N166  1  0.85175094  0.11770268  0.88787154  1  -1.083201  0  -0.366985  -0.130097  0  3.580268  0
N  N167  1  0.14824694  0.38229190  0.38788234  1  -1.083364  0  -0.3669  -0.130176  0  3.580127  0
O  O168  1  0.72214449  0.32555601  0.28124292  1  -1.186874  0  -0.355362  -0.592494  0  2.206744  0
O  O169  1  0.27784340  0.17442782  0.78125809  1  -1.186178  0  -0.355489  -0.592688  0  2.206969  0
O  O170  1  0.22211165  0.67441164  0.21875231  1  -1.186321  0  -0.355632  -0.592716  0  2.20692  0
O  O171  1  0.77792276  0.82559072  0.71877135  1  -1.185996  0  -0.355517  -0.592616  0  2.206713  0
O  O172  1  0.27786357  0.67442407  0.71873702  1  -1.186266  0  -0.355521  -0.592718  0  2.207055  0
O  O173  1  0.72208229  0.82558514  0.21875772  1  -1.18632  0  -0.355532  -0.592664  0  2.207145  0
O  O174  1  0.77788199  0.32557050  0.78124324  1  -1.186129  0  -0.355553  -0.592621  0  2.206887  0
O  O175  1  0.22212340  0.17443388  0.28124272  1  -1.185886  0  -0.355601  -0.592658  0  2.206825  0
O  O176  1  0.76295863  0.17925365  0.24666738  1  -1.250844  0  -0.36272  -0.650973  0  2.238104  0
O  O177  1  0.23702452  0.32072546  0.74668425  1  -1.250468  0  -0.362754  -0.651136  0  2.238204  0
O  O178  1  0.26300831  0.82072893  0.25331597  1  -1.250454  0  -0.362704  -0.651114  0  2.237655  0
O  O179  1  0.73701746  0.67926103  0.75332004  1  -1.250663  0  -0.362806  -0.651184  0  2.23815  0
O  O180  1  0.23702163  0.82072027  0.75331139  1  -1.250282  0  -0.362697  -0.651134  0  2.238307  0
O  O181  1  0.76298972  0.67927997  0.25331073  1  -1.250308  0  -0.362702  -0.651129  0  2.238084  0
O  O182  1  0.73698946  0.17927786  0.74668305  1  -1.250209  0  -0.362661  -0.651051  0  2.237845  0
O  O183  1  0.26298854  0.32073480  0.24669230  1  -1.250742  0  -0.362773  -0.651106  0  2.238278  0
O  O184  1  0.92774624  0.10140195  0.37748530  1  -1.250543  0  -0.401689  -0.675787  0  2.257057  0
O  O185  1  0.07223353  0.39861115  0.87748212  1  -1.250786  0  -0.401706  -0.675785  0  2.257118  0
O  O186  1  0.42777083  0.89860813  0.12251483  1  -1.250649  0  -0.401617  -0.675719  0  2.257189  0
O  O187  1  0.57225729  0.60137181  0.62252969  1  -1.251049  0  -0.401547  -0.675606  0  2.257193  0
O  O188  1  0.07223093  0.89859046  0.62250968  1  -1.250897  0  -0.401697  -0.675822  0  2.257086  0
O  O189  1  0.92775806  0.60139154  0.12250418  1  -1.25082  0  -0.401692  -0.675817  0  2.257039  0
O  O190  1  0.57221767  0.10139181  0.87749577  1  -1.250508  0  -0.401622  -0.675797  0  2.25712  0
O  O191  1  0.42777857  0.39861786  0.37749826  1  -1.250535  0  -0.401612  -0.675732  0  2.257025  0
O  O192  1  0.96058247  0.17324195  0.49083673  1  -1.196724  0  -0.305268  -0.544231  0  2.215467  0
O  O193  1  0.03939053  0.32675243  0.99082468  1  -1.196701  0  -0.305301  -0.544272  0  2.215427  0
O  O194  1  0.46060946  0.82675295  0.00914325  1  -1.197432  0  -0.305326  -0.544162  0  2.215155  0
O  O195  1  0.53940793  0.67325050  0.50914480  1  -1.196887  0  -0.3053  -0.544195  0  2.215115  0
O  O196  1  0.03939573  0.82674498  0.50915882  1  -1.197052  0  -0.305228  -0.54409  0  2.215327  0
O  O197  1  0.96058664  0.67325300  0.00914022  1  -1.197178  0  -0.30519  -0.544007  0  2.215408  0
O  O198  1  0.53940273  0.17326001  0.99084189  1  -1.197098  0  -0.305283  -0.54422  0  2.215367  0
O  O199  1  0.46060425  0.32673780  0.49083861  1  -1.197084  0  -0.305246  -0.544072  0  2.215462  0
O  O200  1  0.36895357  0.98905555  0.30752268  1  -1.260299  0  -0.400775  -0.663778  0  2.258191  0
O  O201  1  0.63103906  0.51095897  0.80753200  1  -1.260102  0  -0.400827  -0.663724  0  2.258257  0
O  O202  1  0.86897316  0.01092803  0.19247505  1  -1.260257  0  -0.400514  -0.663307  0  2.258353  0
O  O203  1  0.13107197  0.48906899  0.69245155  1  -1.260171  0  -0.400823  -0.663622  0  2.257905  0
O  O204  1  0.63102464  0.01093960  0.69247172  1  -1.260308  0  -0.400692  -0.663437  0  2.25837  0
O  O205  1  0.36897106  0.48905947  0.19248323  1  -1.260152  0  -0.400579  -0.663415  0  2.258251  0
O  O206  1  0.13101431  0.98904794  0.80751356  1  -1.260031  0  -0.400532  -0.663376  0  2.258191  0
O  O207  1  0.86899479  0.51095014  0.30751797  1  -1.260016  0  -0.400609  -0.663406  0  2.258048  0
O  O208  1  0.58860004  0.00592421  0.26904141  1  -1.23068  0  -0.375879  -0.651844  0  2.27571  0
O  O209  1  0.41139762  0.49409663  0.76905801  1  -1.231116  0  -0.375803  -0.65184  0  2.275212  0
O  O210  1  0.08867125  0.99406788  0.23095333  1  -1.230336  0  -0.375972  -0.651805  0  2.275644  0
O  O211  1  0.91134516  0.50593994  0.73094993  1  -1.231803  0  -0.375881  -0.651764  0  2.275784  0
O  O212  1  0.41138434  0.99408464  0.73094547  1  -1.230489  0  -0.37575  -0.651518  0  2.275806  0
O  O213  1  0.58867119  0.50593345  0.23095779  1  -1.230378  0  -0.375862  -0.651669  0  2.275495  0
O  O214  1  0.91135432  0.00593138  0.76903876  1  -1.230199  0  -0.375862  -0.651718  0  2.275722  0
O  O215  1  0.08864849  0.49408124  0.26905373  1  -1.230732  0  -0.375915  -0.651741  0  2.275958  0
O  O216  1  0.08860563  0.88662120  0.36939807  1  -1.301759  0  -0.623756  -0.810017  0  2.029809  0
O  O217  1  0.91138957  0.61338224  0.86939134  1  -1.301762  0  -0.623757  -0.810057  0  2.02987  0
O  O218  1  0.58860902  0.11337774  0.13059031  1  -1.301812  0  -0.623762  -0.810203  0  2.029636  0
O  O219  1  0.41139130  0.38661871  0.63059289  1  -1.301914  0  -0.62374  -0.810234  0  2.029549  0
O  O220  1  0.91139214  0.11337464  0.63059691  1  -1.301914  0  -0.623789  -0.810165  0  2.029726  0
O  O221  1  0.08860922  0.38661907  0.13059149  1  -1.301761  0  -0.623698  -0.810195  0  2.029512  0
O  O222  1  0.41139698  0.88660987  0.86939426  1  -1.301775  0  -0.623759  -0.810192  0  2.029708  0
O  O223  1  0.58862088  0.61339219  0.36940325  1  -1.301862  0  -0.623641  -0.810112  0  2.029689  0
O  O224  1  0.82114528  0.91860706  0.34077265  1  -1.307212  0  -0.599577  -0.831334  0  2.050185  0
O  O225  1  0.17884082  0.58139849  0.84076619  1  -1.307259  0  -0.599629  -0.831355  0  2.050241  0
O  O226  1  0.32117229  0.08138970  0.15923564  1  -1.307171  0  -0.599564  -0.831187  0  2.05047  0
O  O227  1  0.67885568  0.41861286  0.65923224  1  -1.30715  0  -0.599602  -0.83123  0  2.050253  0
O  O228  1  0.17883601  0.08138809  0.65923621  1  -1.307037  0  -0.599515  -0.831067  0  2.050507  0
O  O229  1  0.82115695  0.41861105  0.15923689  1  -1.307326  0  -0.599539  -0.831219  0  2.050316  0
O  O230  1  0.67885636  0.91861299  0.84078016  1  -1.307111  0  -0.599562  -0.831169  0  2.050476  0
O  O231  1  0.32117092  0.58140489  0.34077141  1  -1.306908  0  -0.599536  -0.831244  0  2.050258  0
O  O232  1  0.21332195  0.09845643  0.49175212  1  -1.296848  0  -0.653328  -0.83616  0  1.917894  0
O  O233  1  0.78664895  0.40154274  0.99175300  1  -1.29738  0  -0.653351  -0.836368  0  1.917653  0
O  O234  1  0.71334758  0.90154686  0.00827358  1  -1.297843  0  -0.653389  -0.836135  0  1.918049  0
O  O235  1  0.28664307  0.59845522  0.50824191  1  -1.297552  0  -0.653379  -0.836521  0  1.917565  0
O  O236  1  0.78667375  0.90154351  0.50827004  1  -1.297234  0  -0.653296  -0.836013  0  1.918102  0
O  O237  1  0.21332720  0.59845515  0.00826511  1  -1.297401  0  -0.653288  -0.835984  0  1.91813  0
O  O238  1  0.28666048  0.09845856  0.99175437  1  -1.296905  0  -0.653329  -0.836346  0  1.917606  0
O  O239  1  0.71332278  0.40155363  0.49172646  1  -1.297495  0  -0.653374  -0.836152  0  1.918015  0
