# generated using pymatgen
data_CuH20C16(NO2)2
_symmetry_space_group_name_H-M   'P 1'
_cell_length_a   8.60009018
_cell_length_b   8.78089799
_cell_length_c   11.96948042
_cell_angle_alpha   96.60014464
_cell_angle_beta   104.49181242
_cell_angle_gamma   106.63247602
_symmetry_Int_Tables_number   1
_chemical_formula_structural   CuH20C16(NO2)2
_chemical_formula_sum   'Cu2 H40 C32 N4 O8'
_cell_volume   821.38699305
_cell_formula_units_Z   2
loop_
 _symmetry_equiv_pos_site_id
 _symmetry_equiv_pos_as_xyz
  1  'x, y, z'
loop_
 _atom_site_type_symbol
 _atom_site_label
 _atom_site_symmetry_multiplicity
 _atom_site_fract_x
 _atom_site_fract_y
 _atom_site_fract_z
 _atom_site_occupancy
 _atom_site_hle17_ddec_charge
 _atom_site_hle17_ddec_spin_density
 _atom_site_hle17_ddec_sum_bond_order
 _atom_site_hle17_magmom
 _atom_site_hse06_10hf_ddec_charge
 _atom_site_hse06_10hf_ddec_spin_density
 _atom_site_hse06_10hf_ddec_sum_bond_order
 _atom_site_hse06_10hf_magmom
 _atom_site_hse06_ddec_charge
 _atom_site_hse06_ddec_spin_density
 _atom_site_hse06_ddec_sum_bond_order
 _atom_site_hse06_magmom
 _atom_site_pbe_cm5_charge
 _atom_site_pbe_ddec_charge
 _atom_site_pbe_ddec_spin_density
 _atom_site_pbe_ddec_sum_bond_order
 _atom_site_pbe_magmom
Cu  Cu0  1  0.46879536  0.02339330  0.39235682  1  0.832556  -0.657753  1.906516  -0.474  0.822848  -0.792704  2.316112  -0.628  0.948131  -0.885575  2.191133  -0.73  0.675938  0.754775  -0.680768  2.375778  -0.528
Cu  Cu1  1  0.53121375  0.97660600  0.60765782  1  0.832514  0.657745  1.906361  0.474  0.822785  0.792692  2.315968  0.628  0.948159  0.885584  2.190902  0.73  0.675952  0.754692  0.680778  2.375662  0.528
H  H2  1  0.48265723  0.50180507  0.62235786  1  0.087623  0.000104  0.9191  0.0  0.099517  0.000111  0.97577  0.0  0.101237  7.4e-05  0.975717  0.0  0.106121  0.098178  1.2e-05  0.976147  0.0
H  H3  1  0.51733844  0.49820147  0.37762329  1  0.087596  -0.000107  0.919027  0.0  0.099452  -0.000111  0.975751  0.0  0.101167  -7.4e-05  0.975702  0.0  0.106111  0.098114  -1.2e-05  0.97613  0.0
H  H4  1  0.22658816  0.54667573  0.52781667  1  0.076998  0.000667  0.950407  0.001  0.091722  0.000516  1.017292  0.0  0.092248  0.000313  1.018433  0.0  0.089738  0.091836  0.000581  1.015766  0.001
H  H5  1  0.77339677  0.45331989  0.47218256  1  0.07695  -0.000669  0.95048  -0.001  0.091751  -0.000516  1.017267  0.0  0.092283  -0.000313  1.018408  0.0  0.089782  0.091865  -0.000581  1.015741  -0.001
H  H6  1  0.27392099  0.42882967  0.41924427  1  0.072185  -4.8e-05  0.943263  0.0  0.087447  -5.4e-05  1.006423  0.0  0.088776  -4.2e-05  1.005514  0.0  0.088362  0.086493  -2.6e-05  1.007289  0.0
H  H7  1  0.72606700  0.57119627  0.58074723  1  0.072225  4.6e-05  0.943366  0.0  0.087462  5.4e-05  1.006574  0.0  0.088791  4.2e-05  1.005668  0.0  0.088308  0.086507  2.6e-05  1.007437  0.0
H  H8  1  0.96310738  0.32732422  0.40256159  1  0.069693  -0.000175  0.949189  0.0  0.083006  -0.000144  1.017182  0.0  0.084505  -8.8e-05  1.016266  0.0  0.086657  0.082141  -0.000152  1.017644  0.0
H  H9  1  0.03688503  0.67269688  0.59743863  1  0.069498  0.000179  0.949428  0.0  0.082953  0.000143  1.017283  0.0  0.084444  8.8e-05  1.016363  0.0  0.086615  0.082087  0.000152  1.017744  0.0
H  H10  1  0.05980509  0.17876982  0.43246348  1  0.072272  -3.7e-05  0.924625  0.0  0.091956  -5e-06  0.981603  0.0  0.092145  8e-06  0.982422  0.0  0.089427  0.09204  -3e-06  0.98049  0.0
H  H11  1  0.94017577  0.82123185  0.56752219  1  0.072253  4.1e-05  0.924672  0.0  0.091941  6e-06  0.981646  0.0  0.092128  -8e-06  0.982465  0.0  0.089426  0.092025  3e-06  0.980531  0.0
H  H12  1  0.99270459  0.40438784  0.61604707  1  0.074016  -0.00012  0.913791  0.0  0.091032  -8.5e-05  0.968121  0.0  0.091577  -6e-05  0.969398  0.0  0.105876  0.090882  -9.4e-05  0.966777  0.0
H  H13  1  0.00728716  0.59561749  0.38394416  1  0.0739  0.00012  0.913936  0.0  0.090915  8.5e-05  0.968221  0.0  0.091481  6.1e-05  0.96947  0.0  0.10584  0.090764  9.4e-05  0.966879  0.0
H  H14  1  0.13922349  0.12719810  0.64215862  1  0.069816  2.1e-05  0.931859  0.0  0.088951  -6e-06  0.993072  0.0  0.089332  -1.5e-05  0.993364  0.0  0.089104  0.089015  -5e-06  0.992093  0.0
H  H15  1  0.86078152  0.87281089  0.35783525  1  0.069761  -2.3e-05  0.931884  0.0  0.088889  5e-06  0.993118  0.0  0.08926  1.5e-05  0.993422  0.0  0.089072  0.088939  5e-06  0.992159  0.0
H  H16  1  0.08595541  0.23192916  0.75386182  1  0.072638  0.000265  0.954522  0.0  0.087974  0.000229  1.018363  0.0  0.089187  0.00015  1.017658  0.0  0.08846  0.087197  0.000268  1.018896  0.0
H  H17  1  0.91405449  0.76808347  0.24613739  1  0.072686  -0.000267  0.95465  0.0  0.088028  -0.000229  1.018476  0.0  0.089252  -0.00015  1.017757  0.0  0.088503  0.087251  -0.000268  1.019008  0.0
H  H18  1  0.29149053  0.49508000  0.74025837  1  0.061457  -0.000692  0.955085  -0.001  0.075787  -0.000484  1.023696  -0.001  0.07525  -0.000295  1.026105  0.0  0.084192  0.076193  -0.000581  1.021952  -0.001
H  H19  1  0.70852294  0.50493990  0.25973039  1  0.061439  0.000694  0.955169  0.001  0.075768  0.000484  1.02372  0.001  0.075199  0.000295  1.026174  0.0  0.084187  0.07617  0.000581  1.021977  0.001
H  H20  1  0.39609499  0.35296004  0.77580254  1  0.06942  1.8e-05  0.967085  0.0  0.082481  1.8e-05  1.03625  0.0  0.083147  1.6e-05  1.036409  0.0  0.086227  0.082167  2.2e-05  1.03605  0.0
H  H21  1  0.60390946  0.64704045  0.22418381  1  0.069485  -1.7e-05  0.967069  0.0  0.082491  -1.8e-05  1.036262  0.0  0.083158  -1.6e-05  1.036416  0.0  0.08619  0.082176  -2.2e-05  1.036058  0.0
H  H22  1  0.69251593  0.00220289  0.24285948  1  0.081233  5.8e-05  0.938575  0.0  0.091439  6e-05  0.999619  0.0  0.094532  6e-05  0.996997  0.0  0.11674  0.088764  5e-05  1.002307  0.0
H  H23  1  0.30746949  0.99779395  0.75714829  1  0.081282  -5.7e-05  0.938608  0.0  0.091485  -6e-05  0.999625  0.0  0.094572  -6e-05  0.997017  0.0  0.11675  0.08881  -5e-05  1.002312  0.0
H  H24  1  0.79997244  0.13990798  0.09132406  1  0.110366  2e-05  0.942848  0.0  0.118054  6e-06  1.003086  0.0  0.122727  6e-06  1.000542  0.0  0.107612  0.115091  7e-06  1.004195  0.0
H  H25  1  0.19999798  0.86007672  0.90867588  1  0.110469  -2.2e-05  0.942714  0.0  0.118142  -7e-06  1.002986  0.0  0.122816  -6e-06  1.000444  0.0  0.10764  0.115171  -7e-06  1.004099  0.0
H  H26  1  0.36836370  0.30899099  0.02655843  1  0.094305  1.6e-05  0.970984  0.0  0.103206  4e-06  1.03725  0.0  0.107342  4e-06  1.034959  0.0  0.099201  0.100378  4e-06  1.038713  0.0
H  H27  1  0.63163596  0.69101922  0.97345799  1  0.094242  -1.7e-05  0.970865  0.0  0.103186  -4e-06  1.037108  0.0  0.107324  -4e-06  1.034816  0.0  0.099142  0.100355  -4e-06  1.038578  0.0
H  H28  1  0.28065624  0.16775261  0.18165721  1  0.077779  2.4e-05  0.915554  0.0  0.089312  4.3e-05  0.971391  0.0  0.09304  3.9e-05  0.967561  0.0  0.118245  0.086588  4.7e-05  0.973949  0.0
H  H29  1  0.71934096  0.83225396  0.81835847  1  0.077765  -2.4e-05  0.915603  0.0  0.089324  -4.3e-05  0.971404  0.0  0.093053  -3.9e-05  0.96757  0.0  0.118246  0.086583  -4.7e-05  0.973974  0.0
H  H30  1  0.60040020  0.24097054  0.87001591  1  0.09534  3.9e-05  0.933206  0.0  0.110995  2.9e-05  0.996521  0.0  0.111872  1e-05  0.996432  0.0  0.115295  0.110003  4.2e-05  0.997208  0.0
H  H31  1  0.39959872  0.75901662  0.12999257  1  0.095312  -3.8e-05  0.93321  0.0  0.110999  -2.9e-05  0.996489  0.0  0.111863  -1e-05  0.996417  0.0  0.115276  0.110008  -4.2e-05  0.997186  0.0
H  H32  1  0.59969652  0.42486993  0.94754214  1  0.04001  -3e-06  0.942015  0.0  0.054516  -3e-06  1.015356  0.0  0.055832  -1e-06  1.013595  0.0  0.08942  0.053705  -4e-06  1.016272  0.0
H  H33  1  0.40031040  0.57512693  0.05245687  1  0.039942  5e-06  0.941999  0.0  0.054444  3e-06  1.015343  0.0  0.05576  1e-06  1.013582  0.0  0.089426  0.053641  4e-06  1.01626  0.0
H  H34  1  0.88159316  0.46631243  0.16266831  1  0.056749  2.7e-05  0.952504  0.0  0.077566  3.1e-05  1.01263  0.0  0.07753  1.9e-05  1.013803  0.0  0.101337  0.077232  4e-05  1.012262  0.0
H  H35  1  0.11841403  0.53366745  0.83733515  1  0.056735  -2.5e-05  0.952358  0.0  0.077522  -3.2e-05  1.012513  0.0  0.077484  -1.9e-05  1.013691  0.0  0.10128  0.077197  -4e-05  1.012136  0.0
H  H36  1  0.87456922  0.61715971  0.07535008  1  0.034568  6e-06  0.930574  0.0  0.050391  4e-06  1.002155  0.0  0.051534  3e-06  1.000206  0.0  0.08731  0.049169  4e-06  1.003889  0.0
H  H37  1  0.12544561  0.38282140  0.92465732  1  0.034602  -5e-06  0.930491  0.0  0.05034  -5e-06  1.002142  0.0  0.051486  -3e-06  1.000187  0.0  0.087287  0.049117  -4e-06  1.003877  0.0
H  H38  1  0.84447304  0.53679720  0.85866741  1  0.037618  9e-06  0.912495  0.0  0.052169  6e-06  0.979955  0.0  0.053611  3e-06  0.97796  0.0  0.085603  0.050749  8e-06  0.981713  0.0
H  H39  1  0.15553854  0.46318148  0.14133754  1  0.037527  -8e-06  0.912455  0.0  0.052071  -6e-06  0.979937  0.0  0.053509  -3e-06  0.977947  0.0  0.08553  0.050656  -7e-06  0.981689  0.0
H  H40  1  0.83173153  0.33273003  0.80675970  1  0.08528  6e-06  0.933893  0.0  0.103169  2.5e-05  0.99129  0.0  0.104421  -2e-06  0.991015  0.0  0.107386  0.102072  4.6e-05  0.991779  0.0
H  H41  1  0.16827689  0.66724986  0.19324647  1  0.085208  -5e-06  0.934009  0.0  0.103151  -2.6e-05  0.991343  0.0  0.104407  2e-06  0.991063  0.0  0.107341  0.102052  -4.6e-05  0.991842  0.0
C  C42  1  0.41984659  0.25109207  0.55924890  1  0.65829  0.000539  3.78296  0.001  0.622384  0.000329  4.084383  0.001  0.662915  0.000396  4.082514  0.001  0.219698  0.594832  0.000459  4.086954  0.001
C  C43  1  0.58016076  0.74890964  0.44074642  1  0.658084  -0.000547  3.783424  -0.001  0.622086  -0.000322  4.084996  -0.001  0.662599  -0.000394  4.08316  -0.001  0.219572  0.594535  -0.000457  4.087569  -0.001
C  C44  1  0.36569430  0.39565805  0.59797092  1  -0.105207  -0.001013  3.610951  -0.001  -0.10673  -0.000558  3.846706  -0.001  -0.115289  -0.000319  3.861743  0.0  -0.083837  -0.09918  -3e-06  3.83507  0.0
C  C45  1  0.63430901  0.60434608  0.40201805  1  -0.104976  0.001037  3.61079  0.001  -0.106482  0.000559  3.846563  0.001  -0.115028  0.000322  3.86159  0.0  -0.083818  -0.098942  8e-06  3.834927  0.0
C  C46  1  0.23247030  0.42548651  0.49876656  1  -0.119245  0.002099  3.65915  0.002  -0.162848  0.001231  3.918015  0.001  -0.162648  0.000803  3.931407  0.001  -0.169614  -0.163167  0.00177  3.908431  0.002
C  C47  1  0.76752546  0.57451640  0.50122934  1  -0.119218  -0.002082  3.659197  -0.002  -0.162909  -0.001232  3.918131  -0.001  -0.162718  -0.000802  3.931527  -0.001  -0.169591  -0.163222  -0.00177  3.908542  -0.002
C  C48  1  0.05648057  0.29807440  0.47009815  1  -0.119099  0.001179  3.670839  0.001  -0.161859  0.000641  3.929217  0.001  -0.161285  0.000433  3.94187  0.001  -0.16876  -0.162698  0.000752  3.92041  0.001
C  C49  1  0.94351398  0.70193215  0.52989200  1  -0.119135  -0.001203  3.671084  -0.001  -0.162004  -0.000641  3.929451  -0.001  -0.161412  -0.000433  3.942106  -0.001  -0.168857  -0.162835  -0.000753  3.920625  -0.001
C  C50  1  0.99866942  0.28448041  0.58081407  1  -0.100458  0.000366  3.626751  0.0  -0.102435  0.000169  3.863697  0.0  -0.110709  0.000132  3.878856  0.0  -0.084372  -0.095232  6.8e-05  3.851814  0.0
C  C51  1  0.00133280  0.71553099  0.41917784  1  -0.1002  -0.000354  3.626795  0.0  -0.102068  -0.000165  3.863612  0.0  -0.110357  -0.000134  3.878781  0.0  -0.084186  -0.094863  -6.3e-05  3.851722  0.0
C  C52  1  0.12917958  0.24531218  0.67566847  1  -0.121918  -0.001306  3.673789  -0.002  -0.166971  -0.000705  3.932909  -0.001  -0.166467  -0.000466  3.945997  -0.001  -0.169547  -0.167293  -0.000663  3.923483  -0.001
C  C53  1  0.87082830  0.75470166  0.32432715  1  -0.121844  0.001316  3.674127  0.002  -0.166974  0.000705  3.93323  0.001  -0.166467  0.000467  3.946312  0.001  -0.1696  -0.167294  0.000662  3.923803  0.001
C  C54  1  0.30221093  0.37775328  0.70620829  1  -0.121345  -0.002154  3.681825  -0.002  -0.165982  -0.00134  3.94306  -0.002  -0.166004  -0.000863  3.958004  -0.001  -0.171382  -0.165965  -0.001547  3.932264  -0.002
C  C55  1  0.69779935  0.62226420  0.29378388  1  -0.121572  0.002142  3.682196  0.002  -0.166047  0.001341  3.943208  0.002  -0.166054  0.000862  3.958163  0.001  -0.171339  -0.166013  0.001547  3.932396  0.002
C  C56  1  0.81649217  0.17095065  0.55539372  1  0.652823  -0.001411  3.798169  -0.002  0.613854  -0.000907  4.10569  -0.002  0.65442  -0.000882  4.103202  -0.002  0.216413  0.586186  -0.000724  4.108301  -0.001
C  C57  1  0.18351403  0.82905106  0.44460809  1  0.65276  0.001417  3.798044  0.002  0.613697  0.000914  4.105676  0.002  0.654267  0.000887  4.103191  0.002  0.216376  0.586027  0.000726  4.10829  0.001
C  C58  1  0.62431888  0.07157924  0.19250547  1  0.136696  0.000604  3.707839  0.001  0.113211  0.000428  3.962576  0.0  0.121813  0.000385  3.980112  0.0  0.045452  0.107099  0.000446  3.952694  0.0
C  C59  1  0.37567229  0.92842732  0.80750581  1  0.136698  -0.000622  3.707884  -0.001  0.1132  -0.000427  3.962528  0.0  0.121799  -0.000386  3.980072  0.0  0.045477  0.107088  -0.000446  3.952641  0.0
C  C60  1  0.68362636  0.14768464  0.10860551  1  -0.171266  -0.00048  3.721353  0.0  -0.18903  -0.000205  3.965778  0.0  -0.19689  -0.000197  3.985187  0.0  -0.086428  -0.183866  -0.000133  3.952846  0.0
C  C61  1  0.31635411  0.85230129  0.89139795  1  -0.171541  0.000506  3.721408  0.0  -0.189304  0.000205  3.965909  0.0  -0.19716  0.000199  3.985309  0.0  -0.086501  -0.184135  0.000133  3.952982  0.0
C  C62  1  0.59334624  0.23703686  0.04707310  1  0.130386  0.000564  3.734672  0.001  0.146343  0.000386  3.968841  0.0  0.152223  0.000321  3.990387  0.0  0.010918  0.142318  0.000443  3.954014  0.0
C  C63  1  0.40664801  0.76296484  0.95293162  1  0.130612  -0.000583  3.734819  -0.001  0.146489  -0.000387  3.96907  0.0  0.152379  -0.000322  3.990587  0.0  0.010968  0.142466  -0.000443  3.954246  0.0
C  C64  1  0.44426751  0.24173650  0.07227585  1  -0.187567  -0.000415  3.747437  0.0  -0.20225  -0.000165  3.99019  0.0  -0.210961  -0.000171  4.01097  0.0  -0.090671  -0.196384  -0.000156  3.975381  0.0
C  C65  1  0.55572848  0.75827370  0.92773409  1  -0.187594  0.000435  3.747285  0.0  -0.202286  0.000166  3.990073  0.0  -0.211004  0.000172  4.010864  0.0  -0.090584  -0.19642  0.000156  3.97526  0.0
C  C66  1  0.39415641  0.16263717  0.15813479  1  0.132807  0.000631  3.727622  0.001  0.109107  0.000426  3.980457  0.0  0.117479  0.000386  3.99891  0.0  0.047492  0.104066  0.000467  3.968425  0.0
C  C67  1  0.60583472  0.83737302  0.84186928  1  0.13294  -0.000645  3.727925  -0.001  0.109148  -0.000425  3.980737  0.0  0.11752  -0.000387  3.999194  0.0  0.0475  0.10412  -0.000468  3.968704  0.0
C  C68  1  0.65353537  0.32411887  0.95665576  1  -0.055065  -1.7e-05  3.708736  0.0  -0.113077  1.7e-05  3.960168  0.0  -0.110398  -1e-06  3.971069  0.0  -0.060515  -0.11503  2.7e-05  3.95307  0.0
C  C69  1  0.34645834  0.67587070  0.04334867  1  -0.054955  7e-06  3.708715  0.0  -0.112982  -1.3e-05  3.960141  0.0  -0.110301  0.0  3.971061  0.0  -0.060529  -0.114953  -2.7e-05  3.953064  0.0
C  C70  1  0.91854784  0.51094966  0.08794233  1  -0.015598  3.2e-05  3.701658  0.0  -0.076001  2.5e-05  3.968304  0.0  -0.072792  1.5e-05  3.980865  0.0  -0.069307  -0.077988  3.3e-05  3.959984  0.0
C  C71  1  0.08145891  0.48902538  0.91206313  1  -0.015443  -3.4e-05  3.701589  0.0  -0.07574  -2.3e-05  3.968058  0.0  -0.072522  -1.5e-05  3.980604  0.0  -0.069241  -0.077758  -3.4e-05  3.959798  0.0
C  C72  1  0.88914916  0.43431707  0.88303912  1  -0.019679  3.4e-05  3.685778  0.0  -0.073434  3.8e-05  3.947454  0.0  -0.069772  1.1e-05  3.957912  0.0  -0.069195  -0.075652  5.3e-05  3.940378  0.0
C  C73  1  0.11085802  0.56565918  0.11696736  1  -0.019456  -3.6e-05  3.685859  0.0  -0.073312  -3.7e-05  3.947632  0.0  -0.069647  -1e-05  3.958086  0.0  -0.069103  -0.075535  -5.3e-05  3.940555  0.0
N  N74  1  0.48303353  0.07948476  0.21867279  1  -0.315015  0.001104  3.213245  0.0  -0.271691  0.000773  3.49946  0.0  -0.296163  0.000762  3.513864  0.0  -0.339209  -0.258173  0.000743  3.490813  0.0
N  N75  1  0.51696190  0.92051331  0.78133518  1  -0.31511  -0.001095  3.213821  0.0  -0.271614  -0.000774  3.499889  0.0  -0.2961  -0.000762  3.514303  0.0  -0.339232  -0.258094  -0.000742  3.491235  0.0
N  N76  1  0.83746184  0.38134243  0.98328126  1  -0.226956  -2.8e-05  3.24768  0.0  -0.152715  -1.1e-05  3.512036  0.0  -0.16803  -1e-06  3.532088  0.0  -0.344308  -0.142175  -1.4e-05  3.497548  0.0
N  N77  1  0.16253255  0.61863502  0.01672476  1  -0.2272  2.9e-05  3.247991  0.0  -0.152843  1.1e-05  3.51214  0.0  -0.168159  0.0  3.532196  0.0  -0.344273  -0.142293  1.3e-05  3.497658  0.0
O  O78  1  0.47370857  0.17917351  0.63977074  1  -0.585652  0.070661  2.115513  0.093  -0.562631  0.049613  2.402123  0.072  -0.611916  0.039632  2.39588  0.061  -0.314814  -0.532931  0.051582  2.406206  0.072
O  O79  1  0.52632433  0.82085733  0.36022987  1  -0.5856  -0.070669  2.115553  -0.093  -0.562491  -0.049617  2.402165  -0.072  -0.611758  -0.039636  2.39594  -0.061  -0.314772  -0.532785  -0.051589  2.406234  -0.072
O  O80  1  0.41001389  0.21571990  0.45097574  1  -0.567246  -0.075258  2.079194  -0.099  -0.544091  -0.052189  2.35781  -0.076  -0.592872  -0.041539  2.350768  -0.064  -0.311262  -0.515096  -0.053409  2.362912  -0.075
O  O81  1  0.58996511  0.78425873  0.54900930  1  -0.567087  0.075255  2.079474  0.099  -0.543951  0.052187  2.358186  0.076  -0.592742  0.041534  2.351157  0.064  -0.311126  -0.514949  0.053403  2.363265  0.075
O  O82  1  0.77506453  0.11104665  0.63989098  1  -0.560747  0.079042  2.063999  0.104  -0.539198  0.054563  2.338768  0.079  -0.587616  0.043323  2.330343  0.067  -0.312895  -0.511039  0.05565  2.344705  0.078
O  O83  1  0.22495663  0.88893930  0.36010374  1  -0.560772  -0.079043  2.063896  -0.104  -0.539194  -0.054567  2.338697  -0.079  -0.587602  -0.043327  2.330277  -0.067  -0.312917  -0.511027  -0.055654  2.344628  -0.078
O  O84  1  0.71834451  0.15076155  0.45190397  1  -0.590915  -0.067087  2.143033  -0.088  -0.567574  -0.047415  2.431033  -0.068  -0.617133  -0.037886  2.425845  -0.058  -0.312155  -0.537369  -0.049381  2.433588  -0.069
O  O85  1  0.28165153  0.84925593  0.54810241  1  -0.590729  0.067086  2.142856  0.088  -0.567433  0.047413  2.431036  0.068  -0.617007  0.037883  2.425848  0.058  -0.312078  -0.537233  0.049376  2.433595  0.069
