# generated using pymatgen
data_CoH8C10NO5
_symmetry_space_group_name_H-M   'P 1'
_cell_length_a   5.96332910
_cell_length_b   7.98312396
_cell_length_c   27.59546118
_cell_angle_alpha   89.99877390
_cell_angle_beta   90.02077693
_cell_angle_gamma   89.04400982
_symmetry_Int_Tables_number   1
_chemical_formula_structural   CoH8C10NO5
_chemical_formula_sum   'Co4 H32 C40 N4 O20'
_cell_volume   1313.52645058
_cell_formula_units_Z   4
loop_
 _symmetry_equiv_pos_site_id
 _symmetry_equiv_pos_as_xyz
  1  'x, y, z'
loop_
 _atom_site_type_symbol
 _atom_site_label
 _atom_site_symmetry_multiplicity
 _atom_site_fract_x
 _atom_site_fract_y
 _atom_site_fract_z
 _atom_site_occupancy
 _atom_site_pbe_bader_charge
 _atom_site_pbe_bader_spin_density
 _atom_site_pbe_cm5_charge
 _atom_site_pbe_ddec_charge
 _atom_site_pbe_ddec_spin_density
 _atom_site_pbe_ddec_sum_bond_order
 _atom_site_pbe_magmom
Co  Co0  1  0.99527330  0.76028015  0.28180809  1  1.325573  0.132007  0.757092  0.926446  0.153797  3.093878  0.13
Co  Co1  1  0.99411578  0.74823673  0.72149569  1  1.442901  2.82507  0.757592  1.067644  3.293917  2.504095  2.799
Co  Co2  1  0.50598186  0.25169755  0.22163022  1  1.442331  2.824721  0.756595  1.066392  3.2931  2.501657  2.798
Co  Co3  1  0.50458616  0.23973201  0.78171080  1  1.324974  0.13127  0.756688  0.926349  0.152905  3.091277  0.129
H  H4  1  0.33274488  0.64965560  0.38876277  1  0.107565  0.000124  0.110232  0.118796  6.1e-05  1.023546  0.0
H  H5  1  0.08741856  0.89130747  0.15978075  1  0.06335  0.001727  0.108625  0.07989  0.000588  0.947091  0.001
H  H6  1  0.86704117  0.92422703  0.45737766  1  0.046609  2.2e-05  0.102068  0.105146  9e-06  1.01561  0.0
H  H7  1  0.67899235  0.76084620  0.15360066  1  0.027418  0.000999  0.108432  0.136772  0.00029  0.962834  0.0
H  H8  1  0.91440380  0.62795255  0.14263834  1  0.061084  4.6e-05  0.103061  0.124856  -0.000117  0.998975  0.0
H  H9  1  0.56261774  0.64222528  0.31430554  1  0.177837  4.7e-05  0.132828  0.11643  1e-06  1.015777  0.0
H  H10  1  0.07201016  0.90753539  0.37850302  1  0.144513  0.000127  0.121425  0.097511  7.4e-05  1.033186  0.0
H  H11  1  0.27109631  0.77276393  0.47170050  1  0.036967  1e-05  0.101383  0.099537  -1.5e-05  1.012979  0.0
H  H12  1  0.66757035  0.64665137  0.60730315  1  0.097786  0.000815  0.109841  0.118191  0.000325  1.011312  0.0
H  H13  1  0.98671414  0.89759425  0.84718532  1  0.035749  0.011047  0.101912  0.065283  0.004669  0.960019  0.007
H  H14  1  0.12172780  0.92393546  0.53941317  1  0.038769  0.000927  0.100818  0.103906  0.0004  1.018194  0.0
H  H15  1  0.39734386  0.75785948  0.84118604  1  0.072263  0.003615  0.110201  0.140991  0.001508  0.96316  0.002
H  H16  1  0.17217041  0.63889912  0.86419931  1  0.034935  0.00014  0.098776  0.119051  -0.000178  0.996296  0.0
H  H17  1  0.43555806  0.63738436  0.68207013  1  0.194471  0.001096  0.127837  0.108602  0.000129  1.028499  0.001
H  H18  1  0.91510877  0.90324495  0.61831551  1  0.111541  0.001314  0.115868  0.090148  0.00044  1.024325  0.001
H  H19  1  0.72429923  0.77586590  0.52515186  1  0.063898  -8e-06  0.101399  0.099568  -1.8e-05  1.014407  0.0
H  H20  1  0.83239123  0.35331197  0.10730401  1  0.09729  0.000813  0.109993  0.11824  0.000324  1.011072  0.0
H  H21  1  0.51319670  0.10236231  0.34733157  1  0.034341  0.011037  0.10177  0.065072  0.004664  0.959742  0.007
H  H22  1  0.37823425  0.07607010  0.03943399  1  0.041113  0.000922  0.100762  0.103784  0.000399  1.017965  0.0
H  H23  1  0.10285786  0.24209611  0.34125461  1  0.073816  0.003599  0.110125  0.14102  0.001502  0.963645  0.002
H  H24  1  0.32793109  0.36114680  0.36426956  1  0.059751  0.000123  0.098807  0.119057  -0.000177  0.996647  0.0
H  H25  1  0.06438470  0.36249600  0.18208989  1  0.19449  0.001093  0.127725  0.108742  0.000129  1.028348  0.001
H  H26  1  0.58484167  0.09669664  0.11835180  1  0.111685  0.001308  0.115938  0.090184  0.000437  1.024143  0.001
H  H27  1  0.77566540  0.22416234  0.02513226  1  0.063556  -8e-06  0.101299  0.099377  -1.8e-05  1.014353  0.0
H  H28  1  0.16730047  0.35031768  0.88874460  1  0.107296  0.000124  0.110268  0.118867  6.1e-05  1.023354  0.0
H  H29  1  0.41245637  0.10866603  0.65968279  1  0.061577  0.001737  0.108679  0.079737  0.000592  0.947019  0.001
H  H30  1  0.63279310  0.07595664  0.95733887  1  0.04689  2.2e-05  0.102008  0.105005  9e-06  1.015711  0.0
H  H31  1  0.82090883  0.23896729  0.65353548  1  0.026022  0.000993  0.108443  0.13676  0.000287  0.962564  0.0
H  H32  1  0.58556595  0.37201131  0.64255180  1  0.058592  4.3e-05  0.103026  0.124448  -0.00012  0.998907  0.0
H  H33  1  0.93757339  0.35763704  0.81425014  1  0.175751  4.9e-05  0.133007  0.11679  3e-06  1.015416  0.0
H  H34  1  0.42798098  0.09262237  0.87843140  1  0.148831  0.000129  0.121386  0.097355  7.6e-05  1.033431  0.0
H  H35  1  0.22883076  0.22727740  0.97170082  1  0.03715  1e-05  0.10136  0.099525  -1.5e-05  1.012752  0.0
C  C36  1  0.49770603  0.70635708  0.38926150  1  -0.017288  -3e-05  -0.078953  -0.172079  -0.00018  3.92117  0.0
C  C37  1  0.99208128  0.83562530  0.18987367  1  0.508115  0.008911  -0.016093  0.080322  0.005601  3.988434  0.006
C  C38  1  0.75040115  0.58349049  0.20944374  1  1.549695  -0.001353  0.238599  0.671054  -0.002334  4.033155  -0.001
C  C39  1  0.58271768  0.78223035  0.43108465  1  -0.005479  -0.000378  -0.000159  0.13803  -0.000499  4.051845  0.0
C  C40  1  0.79467791  0.85632646  0.42701881  1  -0.003102  -0.000171  -0.092338  -0.195326  -0.000265  3.977704  0.0
C  C41  1  0.82956989  0.70391441  0.17050961  1  0.003991  0.013863  -0.160348  -0.360108  0.007971  3.910763  0.01
C  C42  1  0.62385852  0.70218228  0.34694949  1  0.457113  -0.00014  0.063819  0.112266  -0.000257  3.870218  0.0
C  C43  1  0.85165074  0.97206160  0.21488894  1  1.56996  4.6e-05  0.222676  0.56848  -0.001642  4.082826  -0.001
C  C44  1  0.90992958  0.84914231  0.38344288  1  0.426582  -6.8e-05  0.045454  0.07777  -0.000267  3.940113  0.0
C  C45  1  0.45297177  0.78297469  0.47586177  1  0.060728  -0.001258  -0.084748  -0.123192  -0.001487  3.974386  -0.001
C  C46  1  0.49970831  0.70301169  0.60716977  1  -0.0169  0.00321  -0.080147  -0.174785  0.001633  3.920698  0.003
C  C47  1  0.06306167  0.83705605  0.81501246  1  0.564567  0.010331  -0.010317  0.101197  0.007711  3.971257  0.002
C  C48  1  0.28597554  0.56760796  0.79326914  1  1.571723  0.002188  0.233706  0.663149  0.001095  4.05397  0.001
C  C49  1  0.41141951  0.78083846  0.56562525  1  -0.090757  -0.001814  0.001262  0.142551  -0.002155  4.043744  -0.001
C  C50  1  0.19581626  0.85477015  0.56969198  1  0.001697  0.003478  -0.094252  -0.198429  0.001846  3.972237  0.003
C  C51  1  0.23542467  0.70153029  0.83168481  1  -0.043035  0.021033  -0.158747  -0.351386  0.011633  3.872884  0.016
C  C52  1  0.37222061  0.69708588  0.64929236  1  0.515632  -0.000325  0.060663  0.119618  -0.001081  3.897783  0.0
C  C53  1  0.18700035  0.97156040  0.78525248  1  1.560389  0.007523  0.227544  0.567538  0.002597  4.072506  0.006
C  C54  1  0.08037644  0.84513446  0.61326642  1  0.489555  -3e-06  0.043024  0.083124  -0.000701  3.972875  0.0
C  C55  1  0.54183061  0.78367505  0.52090294  1  -0.141454  -8.2e-05  -0.086313  -0.126212  -0.000252  3.97297  0.0
C  C56  1  0.00025534  0.29693694  0.10717648  1  -0.015773  0.003202  -0.080333  -0.174859  0.00163  3.920216  0.003
C  C57  1  0.43710275  0.16286874  0.31511741  1  0.567315  0.010291  -0.010365  0.101279  0.007667  3.969788  0.002
C  C58  1  0.21395072  0.43247451  0.29333074  1  1.57289  0.002118  0.234076  0.664623  0.001025  4.051776  0.001
C  C59  1  0.08852532  0.21913432  0.06563270  1  -0.091256  -0.001815  0.001027  0.142525  -0.002157  4.043442  -0.001
C  C60  1  0.30412204  0.14518467  0.06971296  1  0.000407  0.003473  -0.093912  -0.198106  0.001842  3.972394  0.003
C  C61  1  0.26469755  0.29849287  0.33174582  1  -0.069575  0.021049  -0.158721  -0.351836  0.011632  3.872171  0.016
C  C62  1  0.12776497  0.30283941  0.14931630  1  0.515128  -0.000326  0.060733  0.119404  -0.001081  3.897983  0.0
C  C63  1  0.31296346  0.02834478  0.28533751  1  1.560999  0.007522  0.226977  0.566527  0.002606  4.073438  0.006
C  C64  1  0.41955721  0.15479487  0.11330430  1  0.489951  -1.3e-05  0.043068  0.083131  -0.000706  3.97336  0.0
C  C65  1  0.95812863  0.21634880  0.02089064  1  -0.141028  -8.4e-05  -0.086122  -0.126038  -0.000253  3.972251  0.0
C  C66  1  0.00232183  0.29363976  0.88923443  1  -0.016519  -2.8e-05  -0.0788  -0.172029  -0.000178  3.921217  0.0
C  C67  1  0.50781701  0.16434466  0.68978491  1  0.51041  0.008925  -0.016519  0.080631  0.005605  3.986962  0.006
C  C68  1  0.74972573  0.41654768  0.70934229  1  1.551005  -0.001349  0.238879  0.670996  -0.002326  4.032257  -0.001
C  C69  1  0.91725582  0.21785260  0.93105548  1  -0.005408  -0.00038  -0.000648  0.137848  -0.000501  4.051955  0.0
C  C70  1  0.70525664  0.14379352  0.92698229  1  -0.004608  -0.000169  -0.092315  -0.195266  -0.000262  3.978167  0.0
C  C71  1  0.67041015  0.29602405  0.67042666  1  0.006128  0.013833  -0.160245  -0.359352  0.007951  3.908663  0.01
C  C72  1  0.87622579  0.29778469  0.84689737  1  0.456632  -0.00014  0.063565  0.111261  -0.000257  3.870568  0.0
C  C73  1  0.64843963  0.02794277  0.71479563  1  1.568893  1.4e-05  0.222741  0.567823  -0.001667  4.081616  -0.001
C  C74  1  0.59010054  0.15096877  0.88337939  1  0.425457  -6.7e-05  0.045181  0.077422  -0.000266  3.941193  0.0
C  C75  1  0.04695677  0.21710243  0.97585505  1  0.060434  -0.001258  -0.084635  -0.123136  -0.001487  3.973972  -0.001
N  N76  1  0.82723780  0.77178282  0.34387954  1  -1.178272  -0.002213  -0.313721  -0.17118  -0.0028  3.544669  -0.002
N  N77  1  0.16558419  0.76585997  0.65248003  1  -1.238618  0.061438  -0.311248  -0.231266  0.036226  3.484248  0.047
N  N78  1  0.33441436  0.23405914  0.15251845  1  -1.238977  0.061257  -0.311401  -0.231519  0.036128  3.48322  0.047
N  N79  1  0.67279661  0.22821929  0.84380834  1  -1.179768  -0.0022  -0.313428  -0.17017  -0.002785  3.543363  -0.002
O  O80  1  0.75710481  0.08988291  0.19180176  1  -1.156143  0.080033  -0.287217  -0.533508  0.044354  2.3363  0.071
O  O81  1  0.14008223  0.75872018  0.22287641  1  -0.886433  0.122341  -0.329536  -0.426729  0.064252  2.173933  0.105
O  O82  1  0.82811202  0.94771080  0.26064068  1  -1.041283  0.004645  -0.272647  -0.452105  0.001683  2.399828  0.005
O  O83  1  0.78187162  0.60694844  0.25481365  1  -1.056872  0.004808  -0.267578  -0.478245  0.002201  2.377107  0.005
O  O84  1  0.64977709  0.45627432  0.19342403  1  -1.148589  0.081163  -0.303985  -0.556714  0.045602  2.351875  0.068
O  O85  1  0.28710338  0.08632001  0.80897122  1  -1.084068  0.007927  -0.27565  -0.488561  0.003792  2.419919  0.006
O  O86  1  0.90039304  0.76377460  0.78613189  1  -0.94441  0.385257  -0.330739  -0.461785  0.206255  2.177485  0.326
O  O87  1  0.18382496  0.95017361  0.74015754  1  -1.097865  0.115198  -0.272218  -0.49227  0.062472  2.395371  0.105
O  O88  1  0.26294388  0.59614388  0.74871128  1  -1.126515  0.083528  -0.285795  -0.53315  0.045609  2.325685  0.073
O  O89  1  0.35491231  0.42851844  0.81198813  1  -1.084467  0.013056  -0.292405  -0.515585  0.006759  2.384658  0.011
O  O90  1  0.21284264  0.91365693  0.30906209  1  -1.084693  0.007904  -0.275374  -0.487929  0.003783  2.420103  0.006
O  O91  1  0.59992860  0.23607604  0.28629427  1  -0.947733  0.38494  -0.330374  -0.461177  0.206105  2.176804  0.326
O  O92  1  0.31585753  0.04980382  0.24024190  1  -1.096422  0.115123  -0.271862  -0.491772  0.062409  2.395516  0.104
O  O93  1  0.23703374  0.40407223  0.24876924  1  -1.126493  0.08341  -0.286225  -0.533776  0.045558  2.324242  0.073
O  O94  1  0.14490978  0.57150845  0.31206175  1  -1.085798  0.012999  -0.292494  -0.516416  0.006731  2.384981  0.011
O  O95  1  0.74360230  0.91047010  0.69168139  1  -1.154934  0.080136  -0.287373  -0.533556  0.044441  2.336486  0.071
O  O96  1  0.35980184  0.24129370  0.72274991  1  -0.888343  0.121631  -0.329431  -0.426909  0.063865  2.173482  0.104
O  O97  1  0.67159185  0.05209981  0.76056943  1  -1.040852  0.004618  -0.272479  -0.451611  0.001671  2.398667  0.005
O  O98  1  0.71793186  0.39332428  0.75471231  1  -1.054303  0.004849  -0.267795  -0.47889  0.002224  2.375414  0.005
O  O99  1  0.85067274  0.54358809  0.69329225  1  -1.150052  0.081281  -0.304261  -0.557079  0.045643  2.351529  0.068
