# generated using pymatgen
data_ZnH4(C3N5)2
_symmetry_space_group_name_H-M   'P 1'
_cell_length_a   9.24430455
_cell_length_b   14.71144722
_cell_length_c   17.08101083
_cell_angle_alpha   90.00166313
_cell_angle_beta   89.99862370
_cell_angle_gamma   90.00106611
_symmetry_Int_Tables_number   1
_chemical_formula_structural   ZnH4(C3N5)2
_chemical_formula_sum   'Zn8 H32 C48 N80'
_cell_volume   2322.96791168
_cell_formula_units_Z   8
loop_
 _symmetry_equiv_pos_site_id
 _symmetry_equiv_pos_as_xyz
  1  'x, y, z'
loop_
 _atom_site_type_symbol
 _atom_site_label
 _atom_site_symmetry_multiplicity
 _atom_site_fract_x
 _atom_site_fract_y
 _atom_site_fract_z
 _atom_site_occupancy
 _atom_site_pbe_bader_charge
 _atom_site_pbe_bader_spin_density
 _atom_site_pbe_cm5_charge
 _atom_site_pbe_ddec_charge
 _atom_site_pbe_ddec_spin_density
 _atom_site_pbe_ddec_sum_bond_order
 _atom_site_pbe_magmom
Zn  Zn0  1  0.67247093  0.18324974  0.62611835  1  1.254929  0  0.698858  0.600961  0  2.531594  0
Zn  Zn1  1  0.82754142  0.81675052  0.12611072  1  1.254947  0  0.698892  0.600994  0  2.5314  0
Zn  Zn2  1  0.17245207  0.31674481  0.37388382  1  1.254951  0  0.698865  0.600939  0  2.531326  0
Zn  Zn3  1  0.32754306  0.68325162  0.87389376  1  1.255104  0  0.698838  0.600945  0  2.531586  0
Zn  Zn4  1  0.32753552  0.81674724  0.37388878  1  1.254866  0  0.69883  0.600908  0  2.531541  0
Zn  Zn5  1  0.17246827  0.18325122  0.87389172  1  1.255017  0  0.698825  0.600924  0  2.531491  0
Zn  Zn6  1  0.82753923  0.68325693  0.62611628  1  1.254976  0  0.69887  0.600994  0  2.531437  0
Zn  Zn7  1  0.67245148  0.31674605  0.12610518  1  1.255029  0  0.698898  0.601069  0  2.531275  0
H  H8  1  0.55354736  0.02627004  0.62277864  1  0.485635  0  0.307761  0.264076  0  1.004773  0
H  H9  1  0.94645463  0.97372867  0.12278982  1  0.485393  0  0.3078  0.264038  0  1.004838  0
H  H10  1  0.05352973  0.47372353  0.37721541  1  0.485402  0  0.307784  0.264065  0  1.004868  0
H  H11  1  0.44645629  0.52627444  0.87721341  1  0.485534  0  0.307782  0.26405  0  1.004927  0
H  H12  1  0.44646234  0.97372559  0.37721678  1  0.485518  0  0.307774  0.264022  0  1.004892  0
H  H13  1  0.05354316  0.02627579  0.87721028  1  0.485515  0  0.307778  0.264021  0  1.004868  0
H  H14  1  0.94646265  0.52627753  0.62278059  1  0.485551  0  0.307735  0.264044  0  1.004797  0
H  H15  1  0.55354150  0.47372934  0.12278084  1  0.485538  0  0.307794  0.264119  0  1.004876  0
H  H16  1  0.63115458  0.01967234  0.53442724  1  0.46458  0  0.312367  0.276481  0  0.964526  0
H  H17  1  0.86886925  0.98033094  0.03443212  1  0.465375  0  0.31238  0.276582  0  0.964374  0
H  H18  1  0.13113268  0.48033343  0.46556498  1  0.465479  0  0.31243  0.276553  0  0.964401  0
H  H19  1  0.36885855  0.51966406  0.96556885  1  0.465209  0  0.312378  0.276555  0  0.964453  0
H  H20  1  0.36887567  0.98034028  0.46557227  1  0.465243  0  0.312331  0.276477  0  0.964535  0
H  H21  1  0.13112313  0.01965857  0.96556799  1  0.465405  0  0.312361  0.276538  0  0.964451  0
H  H22  1  0.86885538  0.51966288  0.53443044  1  0.465251  0  0.312369  0.276534  0  0.964486  0
H  H23  1  0.63113816  0.48034040  0.03442657  1  0.465291  0  0.31228  0.276467  0  0.964496  0
H  H24  1  0.92610959  0.26986613  0.74040473  1  0.111763  0  0.129466  0.095794  0  1.018556  0
H  H25  1  0.57392173  0.73012898  0.24041093  1  0.111851  0  0.129452  0.095722  0  1.018603  0
H  H26  1  0.42609224  0.23012983  0.25959166  1  0.111894  0  0.129468  0.095743  0  1.018579  0
H  H27  1  0.07392612  0.76986835  0.75960167  1  0.111444  0  0.129421  0.095674  0  1.018652  0
H  H28  1  0.07390227  0.73013629  0.25959011  1  0.111858  0  0.129442  0.095752  0  1.018549  0
H  H29  1  0.42611501  0.26985917  0.75959854  1  0.111561  0  0.129516  0.095783  0  1.018607  0
H  H30  1  0.57388608  0.76986987  0.74040259  1  0.111759  0  0.129439  0.095781  0  1.018567  0
H  H31  1  0.92607925  0.23013067  0.24039668  1  0.11143  0  0.129416  0.095664  0  1.018639  0
H  H32  1  0.53793962  0.65508922  0.45561133  1  0.077826  0  0.130084  0.096048  0  0.984042  0
H  H33  1  0.96202760  0.34490911  0.95561153  1  0.077802  0  0.130115  0.096157  0  0.98399  0
H  H34  1  0.03796663  0.84491257  0.54439199  1  0.077829  0  0.130137  0.096117  0  0.984157  0
H  H35  1  0.46201306  0.15509530  0.04438185  1  0.07788  0  0.130077  0.096103  0  0.983974  0
H  H36  1  0.46205709  0.34491049  0.54440517  1  0.078042  0  0.129994  0.095949  0  0.98421  0
H  H37  1  0.03797452  0.65508719  0.04439384  1  0.077669  0  0.130093  0.09607  0  0.984079  0
H  H38  1  0.96203441  0.15508441  0.45560578  1  0.077821  0  0.130108  0.096065  0  0.984139  0
H  H39  1  0.53797933  0.84491392  0.95561532  1  0.078232  0  0.130101  0.096084  0  0.984088  0
C  C40  1  0.92881035  0.19603317  0.74070477  1  0.982117  0  0.139197  0.152596  0  3.942896  0
C  C41  1  0.57121767  0.80396331  0.24070980  1  0.98303  0  0.139222  0.15257  0  3.942503  0
C  C42  1  0.42878506  0.30396485  0.25928814  1  0.982443  0  0.139164  0.152565  0  3.942531  0
C  C43  1  0.07122036  0.69603671  0.75929632  1  0.982931  0  0.139324  0.15279  0  3.942219  0
C  C44  1  0.07120907  0.80396993  0.25929124  1  0.982021  0  0.139229  0.152561  0  3.942621  0
C  C45  1  0.42880825  0.19602619  0.75929674  1  0.982121  0  0.139073  0.152483  0  3.94262  0
C  C46  1  0.57120191  0.69603553  0.74071020  1  0.982128  0  0.139286  0.152653  0  3.942472  0
C  C47  1  0.92877852  0.30396231  0.24069968  1  0.982948  0  0.139373  0.152841  0  3.942154  0
C  C48  1  0.89047762  0.05619021  0.71650393  1  1.044923  0  0.205709  0.22306  0  4.070135  0
C  C49  1  0.60952992  0.94380763  0.21650601  1  1.045091  0  0.20565  0.222726  0  4.070136  0
C  C50  1  0.39044789  0.44379934  0.28348726  1  1.044405  0  0.205801  0.222934  0  4.070203  0
C  C51  1  0.10953691  0.55619474  0.78349305  1  1.045153  0  0.205691  0.222826  0  4.070161  0
C  C52  1  0.10954397  0.94381085  0.28349441  1  1.044773  0  0.205808  0.223152  0  4.069941  0
C  C53  1  0.39046462  0.05619003  0.78349468  1  1.045138  0  0.205835  0.223254  0  4.069972  0
C  C54  1  0.60955748  0.55619833  0.71651694  1  1.044267  0  0.205764  0.222877  0  4.070245  0
C  C55  1  0.89045007  0.44380496  0.21650588  1  1.044718  0  0.20588  0.22313  0  4.069788  0
C  C56  1  0.84130077  0.97162855  0.68192284  1  0.910002  0  0.233862  0.164424  0  4.000657  0
C  C57  1  0.65869961  0.02837008  0.18192140  1  0.910032  0  0.233887  0.164453  0  4.000702  0
C  C58  1  0.34126984  0.52837030  0.31806719  1  0.910512  0  0.233986  0.164643  0  3.99978  0
C  C59  1  0.15871131  0.47163048  0.81807238  1  0.910174  0  0.233904  0.164464  0  4.000336  0
C  C60  1  0.15872299  0.02837523  0.31807609  1  0.909273  0  0.233791  0.164286  0  4.000622  0
C  C61  1  0.34128303  0.97162351  0.81807284  1  0.909323  0  0.233657  0.164203  0  4.000425  0
C  C62  1  0.65873228  0.47162396  0.68193701  1  0.910308  0  0.233814  0.164439  0  4.000127  0
C  C63  1  0.84128216  0.52837127  0.18192597  1  0.910534  0  0.233911  0.164366  0  4.000403  0
C  C64  1  0.72728132  0.87305514  0.60765084  1  0.975964  0  0.233508  0.153455  0  4.039588  0
C  C65  1  0.77271084  0.12694680  0.10765184  1  0.975808  0  0.233407  0.153251  0  4.03965  0
C  C66  1  0.22726023  0.62694889  0.39233993  1  0.974917  0  0.233463  0.153394  0  4.039925  0
C  C67  1  0.27271507  0.37305537  0.89234237  1  0.975857  0  0.233318  0.153032  0  4.039658  0
C  C68  1  0.27273486  0.12695204  0.39235044  1  0.975911  0  0.233321  0.153275  0  4.039847  0
C  C69  1  0.22726856  0.87304814  0.89234182  1  0.975538  0  0.233444  0.153331  0  4.039759  0
C  C70  1  0.77273324  0.37305013  0.60766018  1  0.975524  0  0.233465  0.153383  0  4.039942  0
C  C71  1  0.72728056  0.62695249  0.10765773  1  0.975606  0  0.233364  0.153236  0  4.0399  0
C  C72  1  0.63823172  0.82849127  0.55034428  1  1.012323  0  0.193443  0.197585  0  4.146805  0
C  C73  1  0.86176072  0.17150746  0.05034692  1  1.012019  0  0.193487  0.197823  0  4.146852  0
C  C74  1  0.13821747  0.67150319  0.44965284  1  1.011979  0  0.193404  0.197681  0  4.14703  0
C  C75  1  0.36176296  0.32849680  0.94965324  1  1.012189  0  0.193646  0.198061  0  4.146576  0
C  C76  1  0.36177689  0.17151251  0.44966109  1  0.998777  0  0.19348  0.197672  0  4.146819  0
C  C77  1  0.13822193  0.82849292  0.94965260  1  1.011524  0  0.193489  0.197806  0  4.146776  0
C  C78  1  0.86177275  0.32849311  0.55034551  1  1.011461  0  0.193526  0.197891  0  4.14651  0
C  C79  1  0.63823483  0.67151105  0.05034628  1  1.011333  0  0.193553  0.197757  0  4.146728  0
C  C80  1  0.55711303  0.72102101  0.48217926  1  1.0134  0  0.135853  0.149513  0  3.977284  0
C  C81  1  0.94285596  0.27897881  0.98218097  1  1.013657  0  0.135694  0.149147  0  3.977342  0
C  C82  1  0.05713358  0.77898501  0.51781965  1  1.01341  0  0.135831  0.149404  0  3.977546  0
C  C83  1  0.44284217  0.22102273  0.01781389  1  1.013362  0  0.135665  0.149004  0  3.977279  0
C  C84  1  0.44287719  0.27898481  0.51783197  1  1.013037  0  0.135948  0.149599  0  3.977153  0
C  C85  1  0.05714400  0.72101410  0.01782089  1  1.013552  0  0.135878  0.149488  0  3.977352  0
C  C86  1  0.94286205  0.22101265  0.48217753  1  1.013291  0  0.135834  0.149411  0  3.97744  0
C  C87  1  0.55715454  0.77898785  0.98218738  1  1.012651  0  0.135713  0.149095  0  3.97723  0
N  N88  1  0.84674351  0.14146453  0.69527749  1  -1.204912  0  -0.349999  -0.341707  0  3.498935  0
N  N89  1  0.65327343  0.85853077  0.19527946  1  -1.205733  0  -0.349985  -0.341454  0  3.498591  0
N  N90  1  0.34672058  0.35853758  0.30471778  1  -1.204995  0  -0.350089  -0.341663  0  3.499178  0
N  N91  1  0.15327754  0.64146653  0.80472080  1  -1.205007  0  -0.350073  -0.341645  0  3.498958  0
N  N92  1  0.15327592  0.85853653  0.30471910  1  -1.205125  0  -0.350085  -0.341692  0  3.498824  0
N  N93  1  0.34673410  0.14145670  0.80472298  1  -1.205371  0  -0.350021  -0.341695  0  3.498905  0
N  N94  1  0.65327613  0.64146552  0.69528116  1  -1.205116  0  -0.350115  -0.341729  0  3.499113  0
N  N95  1  0.84671701  0.35853317  0.19527638  1  -1.205188  0  -0.35016  -0.34186  0  3.498823  0
N  N96  1  0.01645423  0.14782743  0.78701447  1  -0.745553  0  -0.247175  -0.18194  0  3.504796  0
N  N97  1  0.48356362  0.85216957  0.28702281  1  -0.74602  0  -0.247153  -0.181833  0  3.504682  0
N  N98  1  0.51641825  0.35217127  0.21297203  1  -0.746224  0  -0.24711  -0.181846  0  3.504721  0
N  N99  1  0.98356706  0.64783181  0.71298446  1  -0.746297  0  -0.247198  -0.18195  0  3.504314  0
N  N100  1  0.98356520  0.85217839  0.21298154  1  -0.7451  0  -0.247201  -0.181958  0  3.504439  0
N  N101  1  0.51644824  0.14781858  0.71298549  1  -0.744917  0  -0.247164  -0.181871  0  3.504648  0
N  N102  1  0.48357630  0.64782639  0.78702631  1  -0.745473  0  -0.247175  -0.181925  0  3.504698  0
N  N103  1  0.01642424  0.35216857  0.28701330  1  -0.746139  0  -0.24718  -0.181906  0  3.504333  0
N  N104  1  0.99250315  0.05802750  0.77222033  1  -0.70888  0  -0.233315  -0.255814  0  3.215625  0
N  N105  1  0.50750325  0.94196803  0.27222739  1  -0.708661  0  -0.233316  -0.255763  0  3.215551  0
N  N106  1  0.49247016  0.44197105  0.22776001  1  -0.708417  0  -0.23336  -0.25584  0  3.215308  0
N  N107  1  0.00750821  0.55803147  0.72777198  1  -0.708767  0  -0.233317  -0.25583  0  3.215419  0
N  N108  1  0.00752169  0.94197764  0.22777567  1  -0.70905  0  -0.233329  -0.255863  0  3.215147  0
N  N109  1  0.49249454  0.05801876  0.72777213  1  -0.708848  0  -0.233347  -0.255942  0  3.215047  0
N  N110  1  0.50753737  0.55802797  0.77224243  1  -0.708791  0  -0.233294  -0.255747  0  3.215283  0
N  N111  1  0.99247877  0.44196892  0.27222578  1  -0.708616  0  -0.233477  -0.255963  0  3.215275  0
N  N112  1  0.89133092  0.88924308  0.69997037  1  -0.632847  0  -0.218078  -0.230763  0  3.140574  0
N  N113  1  0.60864752  0.11075588  0.19996951  1  -0.632961  0  -0.21809  -0.230724  0  3.140299  0
N  N114  1  0.39131536  0.61076298  0.30001568  1  -0.632811  0  -0.218109  -0.230766  0  3.139888  0
N  N115  1  0.10866718  0.38923950  0.80002064  1  -0.632905  0  -0.21802  -0.230619  0  3.140071  0
N  N116  1  0.10868526  0.11076071  0.30002915  1  -0.63269  0  -0.218037  -0.230697  0  3.140635  0
N  N117  1  0.39132648  0.88923498  0.80002240  1  -0.632998  0  -0.217932  -0.230638  0  3.1402  0
N  N118  1  0.60870083  0.38923876  0.69999262  1  -0.633286  0  -0.217999  -0.230508  0  3.140157  0
N  N119  1  0.89132845  0.61075884  0.19997888  1  -0.632909  0  -0.21809  -0.230719  0  3.140172  0
N  N120  1  0.81949304  0.82834331  0.65320832  1  -0.757372  0  -0.225172  -0.201113  0  3.45821  0
N  N121  1  0.68048639  0.17165302  0.15320548  1  -0.75723  0  -0.225107  -0.201069  0  3.458133  0
N  N122  1  0.31947882  0.67165400  0.34678082  1  -0.756908  0  -0.225203  -0.20115  0  3.458445  0
N  N123  1  0.18049839  0.32834635  0.84678393  1  -0.757233  0  -0.225162  -0.201103  0  3.458229  0
N  N124  1  0.18051989  0.17165843  0.34679295  1  -0.75731  0  -0.225121  -0.201083  0  3.458542  0
N  N125  1  0.31948869  0.82834124  0.84678467  1  -0.756924  0  -0.225219  -0.201176  0  3.458316  0
N  N126  1  0.68052546  0.32834163  0.65322397  1  -0.756925  0  -0.225255  -0.201276  0  3.458262  0
N  N127  1  0.81949940  0.67165539  0.15321735  1  -0.756977  0  -0.225108  -0.201075  0  3.458457  0
N  N128  1  0.73896053  0.96366466  0.62328270  1  -0.870846  0  -0.134671  0.101621  0  3.714543  0
N  N129  1  0.76104139  0.03633136  0.12328804  1  -0.870757  0  -0.134649  0.10175  0  3.714593  0
N  N130  1  0.23893702  0.53633403  0.37670531  1  -0.870413  0  -0.134737  0.101428  0  3.714983  0
N  N131  1  0.26103825  0.46367071  0.87670894  1  -0.87086  0  -0.134572  0.10182  0  3.714734  0
N  N132  1  0.26105781  0.03634048  0.37671624  1  -0.869679  0  -0.134713  0.101656  0  3.714559  0
N  N133  1  0.23894342  0.96366018  0.87671089  1  -0.869948  0  -0.134647  0.101706  0  3.714664  0
N  N134  1  0.76106077  0.46366091  0.62329128  1  -0.869746  0  -0.134692  0.101465  0  3.714918  0
N  N135  1  0.73895088  0.53633579  0.12329117  1  -0.870767  0  -0.134743  0.101689  0  3.714599  0
N  N136  1  0.65044921  0.03223705  0.59254519  1  -0.757346  0  -0.485125  -0.462931  0  3.305136  0
N  N137  1  0.84956234  0.96776336  0.09254968  1  -0.757897  0  -0.485191  -0.463013  0  3.305022  0
N  N138  1  0.15042505  0.46776275  0.40744906  1  -0.758115  0  -0.485203  -0.462926  0  3.305037  0
N  N139  1  0.34955791  0.53223691  0.90745101  1  -0.757865  0  -0.485195  -0.463004  0  3.305309  0
N  N140  1  0.34956698  0.96776877  0.40745609  1  -0.757905  0  -0.485027  -0.462801  0  3.304982  0
N  N141  1  0.15043221  0.03223362  0.90745276  1  -0.757997  0  -0.485089  -0.462887  0  3.304993  0
N  N142  1  0.84956193  0.53223559  0.59254577  1  -0.757956  0  -0.485073  -0.462887  0  3.305066  0
N  N143  1  0.65043339  0.46776619  0.09254383  1  -0.757978  0  -0.485007  -0.462929  0  3.304961  0
N  N144  1  0.65501409  0.73749452  0.53854261  1  -1.179744  0  -0.339339  -0.354876  0  3.389927  0
N  N145  1  0.84496590  0.26250219  0.03854577  1  -1.180034  0  -0.339284  -0.354798  0  3.390299  0
N  N146  1  0.15501577  0.76250823  0.46145299  1  -1.179177  0  -0.339337  -0.354864  0  3.390402  0
N  N147  1  0.34495438  0.23749990  0.96145064  1  -1.180222  0  -0.339253  -0.35467  0  3.389991  0
N  N148  1  0.34499343  0.26251470  0.46146686  1  -1.179016  0  -0.339286  -0.354833  0  3.389712  0
N  N149  1  0.15502648  0.73749004  0.96145608  1  -1.179449  0  -0.339328  -0.354904  0  3.390291  0
N  N150  1  0.84497986  0.23748535  0.53854477  1  -1.179163  0  -0.33932  -0.354899  0  3.390088  0
N  N151  1  0.65503800  0.76251136  0.03854713  1  -1.179402  0  -0.339272  -0.354599  0  3.389962  0
N  N152  1  0.48520896  0.79663810  0.46089461  1  -0.755156  0  -0.246948  -0.180376  0  3.527844  0
N  N153  1  0.01477641  0.20336116  0.96088906  1  -0.755352  0  -0.246847  -0.180212  0  3.527475  0
N  N154  1  0.98520914  0.70336329  0.53911268  1  -0.754781  0  -0.246924  -0.180412  0  3.527179  0
N  N155  1  0.51476753  0.29663957  0.03910152  1  -0.7551  0  -0.246939  -0.180253  0  3.527444  0
N  N156  1  0.51479316  0.20336228  0.53911837  1  -0.754918  0  -0.246989  -0.180481  0  3.527235  0
N  N157  1  0.98521164  0.79663446  0.03911104  1  -0.755005  0  -0.246898  -0.180367  0  3.527105  0
N  N158  1  0.01478757  0.29663505  0.46088743  1  -0.754718  0  -0.246914  -0.18031  0  3.527047  0
N  N159  1  0.48522485  0.70336693  0.96089507  1  -0.755  0  -0.246838  -0.180114  0  3.526843  0
N  N160  1  0.53717119  0.86687057  0.50473811  1  -0.720998  0  -0.240255  -0.266095  0  3.192913  0
N  N161  1  0.96281992  0.13313104  0.00473717  1  -0.720435  0  -0.240293  -0.266223  0  3.193101  0
N  N162  1  0.03716544  0.63313597  0.49525816  1  -0.72129  0  -0.240227  -0.265997  0  3.193281  0
N  N163  1  0.46281847  0.36686998  0.99525622  1  -0.720635  0  -0.24039  -0.266329  0  3.193459  0
N  N164  1  0.46282768  0.13313661  0.49526667  1  -0.708471  0  -0.240226  -0.266016  0  3.192741  0
N  N165  1  0.03716922  0.86686118  0.99525766  1  -0.720796  0  -0.240314  -0.266143  0  3.193187  0
N  N166  1  0.96282478  0.36686237  0.50473901  1  -0.721081  0  -0.240322  -0.26616  0  3.19301  0
N  N167  1  0.53718581  0.63313992  0.00474330  1  -0.720351  0  -0.240447  -0.266363  0  3.193268  0
