# generated using pymatgen
data_CuH5C7BrN
_symmetry_space_group_name_H-M   'P 1'
_cell_length_a   3.90785090
_cell_length_b   10.88983223
_cell_length_c   17.24340141
_cell_angle_alpha   89.99927209
_cell_angle_beta   90.00046928
_cell_angle_gamma   99.06806366
_symmetry_Int_Tables_number   1
_chemical_formula_structural   CuH5C7BrN
_chemical_formula_sum   'Cu4 H20 C28 Br4 N4'
_cell_volume   724.63617879
_cell_formula_units_Z   4
loop_
 _symmetry_equiv_pos_site_id
 _symmetry_equiv_pos_as_xyz
  1  'x, y, z'
loop_
 _atom_site_type_symbol
 _atom_site_label
 _atom_site_symmetry_multiplicity
 _atom_site_fract_x
 _atom_site_fract_y
 _atom_site_fract_z
 _atom_site_occupancy
 _atom_site_hle17_bader_spin_density
 _atom_site_hle17_ddec_charge
 _atom_site_hle17_ddec_spin_density
 _atom_site_hle17_ddec_sum_bond_order
 _atom_site_hle17_magmom
 _atom_site_hse06_10hf_bader_spin_density
 _atom_site_hse06_10hf_ddec_charge
 _atom_site_hse06_10hf_ddec_spin_density
 _atom_site_hse06_10hf_ddec_sum_bond_order
 _atom_site_hse06_10hf_magmom
 _atom_site_hse06_bader_spin_density
 _atom_site_hse06_ddec_charge
 _atom_site_hse06_ddec_spin_density
 _atom_site_hse06_ddec_sum_bond_order
 _atom_site_hse06_magmom
 _atom_site_pbe_bader_spin_density
 _atom_site_pbe_cm5_charge
 _atom_site_pbe_ddec_charge
 _atom_site_pbe_ddec_spin_density
 _atom_site_pbe_ddec_sum_bond_order
 _atom_site_pbe_magmom
Cu  Cu0  1  0.67046284  0.91089202  0.95651783  1  0  0.443204  0  2.068997  0  0  0.355328  0  2.577031  0  0  0.361912  0  2.52167  0  0  0.353483  0.352765  0  2.612853  0
Cu  Cu1  1  0.82954173  0.58909747  0.45651689  1  0  0.443138  0  2.069316  0  0  0.355329  0  2.577414  0  0  0.361911  0  2.522037  0  0  0.353466  0.352742  0  2.613164  0
Cu  Cu2  1  0.32950936  0.08911452  0.04348498  1  0  0.443237  0  2.069073  0  0  0.355385  0  2.577087  0  0  0.361927  0  2.521707  0  0  0.353469  0.352825  0  2.612896  0
Cu  Cu3  1  0.17047809  0.41088790  0.54348476  1  0  0.443215  0  2.068986  0  0  0.35542  0  2.577029  0  0  0.361974  0  2.52165  0  0  0.353516  0.352829  0  2.612811  0
H  H4  1  0.67644623  0.43299244  0.97257214  1  0  0.090743  0  0.973246  0  0  0.10091  0  1.037579  0  0  0.102709  0  1.03794  0  0  0.100344  0.099433  0  1.037629  0
H  H5  1  0.82355761  0.06699584  0.47258701  1  0  0.090623  0  0.973388  0  0  0.100796  0  1.037714  0  0  0.102599  0  1.038072  0  0  0.100247  0.099306  0  1.037787  0
H  H6  1  0.32353023  0.56700576  0.02742255  1  0  0.090711  0  0.973432  0  0  0.100877  0  1.037759  0  0  0.102679  0  1.038118  0  0  0.100309  0.099384  0  1.037832  0
H  H7  1  0.17645556  0.93298579  0.52741522  1  0  0.090646  0  0.97344  0  0  0.100811  0  1.037773  0  0  0.10261  0  1.038138  0  0  0.100282  0.099327  0  1.037836  0
H  H8  1  0.85494812  0.24033243  0.92071897  1  0  0.095845  0  0.974467  0  0  0.099861  0  1.047424  0  0  0.104543  0  1.044028  0  0  0.088507  0.096368  0  1.050078  0
H  H9  1  0.64509969  0.25966819  0.42073326  1  0  0.095794  0  0.974478  0  0  0.099822  0  1.047425  0  0  0.10449  0  1.044044  0  0  0.088526  0.096334  0  1.050075  0
H  H10  1  0.14509965  0.75968369  0.07927108  1  0  0.095798  0  0.974337  0  0  0.099853  0  1.047308  0  0  0.104502  0  1.043948  0  0  0.088524  0.096364  0  1.049963  0
H  H11  1  0.35488196  0.74031146  0.57927245  1  0  0.095817  0  0.974319  0  0  0.099918  0  1.047237  0  0  0.104526  0  1.043915  0  0  0.088557  0.096424  0  1.049885  0
H  H12  1  0.15146388  0.24305113  0.79366224  1  0  0.088967  0  0.956627  0  0  0.098843  0  1.019402  0  0  0.101697  0  1.017904  0  0  0.095423  0.097087  0  1.019943  0
H  H13  1  0.34857627  0.25696230  0.29367689  1  0  0.089035  0  0.956718  0  0  0.098917  0  1.019479  0  0  0.101772  0  1.017974  0  0  0.095443  0.097162  0  1.02002  0
H  H14  1  0.84859294  0.75698080  0.20633014  1  0  0.089067  0  0.956607  0  0  0.098841  0  1.019493  0  0  0.10169  0  1.018012  0  0  0.095402  0.097087  0  1.020026  0
H  H15  1  0.65139219  0.74301637  0.70633057  1  0  0.089138  0  0.956602  0  0  0.098865  0  1.019532  0  0  0.101713  0  1.018054  0  0  0.095437  0.097111  0  1.02006  0
H  H16  1  0.26649412  0.43924171  0.71615021  1  0  0.095699  0  0.975351  0  0  0.101598  0  1.043509  0  0  0.105552  0  1.041663  0  0  0.087877  0.098554  0  1.045283  0
H  H17  1  0.23350926  0.06077684  0.21616440  1  0  0.095653  0  0.974983  0  0  0.101458  0  1.043269  0  0  0.105447  0  1.041389  0  0  0.087851  0.098415  0  1.045051  0
H  H18  1  0.73351476  0.56079190  0.28384449  1  0  0.095707  0  0.975204  0  0  0.101632  0  1.04334  0  0  0.105559  0  1.04152  0  0  0.087903  0.098585  0  1.045115  0
H  H19  1  0.76649699  0.93920662  0.78383842  1  0  0.095636  0  0.975083  0  0  0.101561  0  1.043248  0  0  0.105489  0  1.041428  0  0  0.08787  0.098512  0  1.045028  0
H  H20  1  0.09271685  0.63303312  0.76785781  1  0  0.097909  0  0.952655  0  0  0.109407  0  1.01372  0  0  0.112475  0  1.012184  0  0  0.102812  0.107015  0  1.01513  0
H  H21  1  0.40728119  0.86697785  0.26786826  1  0  0.098001  0  0.952468  0  0  0.10943  0  1.013615  0  0  0.112499  0  1.012075  0  0  0.102839  0.107049  0  1.015019  0
H  H22  1  0.90726259  0.36699108  0.23214326  1  0  0.097999  0  0.952376  0  0  0.109361  0  1.013608  0  0  0.112437  0  1.012048  0  0  0.102834  0.106986  0  1.01502  0
H  H23  1  0.59274926  0.13300849  0.73212875  1  0  0.097962  0  0.952489  0  0  0.109353  0  1.013685  0  0  0.112422  0  1.012142  0  0  0.102828  0.106981  0  1.015095  0
C  C24  1  0.87545633  0.54535740  0.87365579  1  0  -0.001595  0  3.915212  0  0  0.023452  0  4.144021  0  0  0.018468  0  4.166229  0  0  -0.004901  0.026532  0  4.129056  0
C  C25  1  0.62454767  0.95464488  0.37366801  1  0  -0.00133  0  3.915318  0  0  0.023683  0  4.144164  0  0  0.018704  0  4.166365  0  0  -0.004776  0.026775  0  4.129192  0
C  C26  1  0.12452584  0.45465475  0.12634065  1  0  -0.001407  0  3.915471  0  0  0.023649  0  4.144238  0  0  0.01865  0  4.166479  0  0  -0.004835  0.026735  0  4.129267  0
C  C27  1  0.37545781  0.04533672  0.62633365  1  0  -0.001374  0  3.915269  0  0  0.023689  0  4.144074  0  0  0.018693  0  4.166302  0  0  -0.004722  0.02677  0  4.12912  0
C  C28  1  0.80731510  0.43424822  0.91684020  1  0  -0.09037  0  3.728701  0  0  -0.111877  0  3.971245  0  0  -0.112865  0  3.993338  0  0  -0.081098  -0.110773  0  3.955976  0
C  C29  1  0.69269518  0.06574862  0.41685196  1  0  -0.090388  0  3.728852  0  0  -0.1119  0  3.971407  0  0  -0.11289  0  3.993496  0  0  -0.081107  -0.110791  0  3.95616  0
C  C30  1  0.19267684  0.56575654  0.08315507  1  0  -0.090467  0  3.729026  0  0  -0.111965  0  3.971608  0  0  -0.112948  0  3.993693  0  0  -0.081121  -0.110851  0  3.956351  0
C  C31  1  0.30729966  0.93423201  0.58315085  1  0  -0.090379  0  3.729037  0  0  -0.111899  0  3.971629  0  0  -0.112879  0  3.993703  0  0  -0.081144  -0.110795  0  3.956373  0
C  C32  1  0.90605524  0.32630836  0.88744278  1  0  -0.056822  0  3.745357  0  0  -0.068626  0  3.994824  0  0  -0.072322  0  4.01564  0  0  -0.089332  -0.065929  0  3.980079  0
C  C33  1  0.59397397  0.17369377  0.38745705  1  0  -0.056694  0  3.745279  0  0  -0.068475  0  3.994723  0  0  -0.072165  0  4.015551  0  0  -0.089256  -0.06578  0  3.979987  0
C  C34  1  0.09397088  0.67370488  0.11254902  1  0  -0.056673  0  3.744962  0  0  -0.068506  0  3.994353  0  0  -0.072174  0  4.015185  0  0  -0.089295  -0.065814  0  3.97961  0
C  C35  1  0.40600331  0.82628772  0.61254693  1  0  -0.056763  0  3.745193  0  0  -0.068611  0  3.994504  0  0  -0.072244  0  4.01536  0  0  -0.089352  -0.065908  0  3.979743  0
C  C36  1  0.07067591  0.32802728  0.81536348  1  0  -0.042496  0  3.714593  0  0  -0.057948  0  3.960371  0  0  -0.055976  0  3.978181  0  0  -0.081035  -0.059206  0  3.947953  0
C  C37  1  0.42934544  0.17198194  0.31537775  1  0  -0.042861  0  3.714751  0  0  -0.058371  0  3.960548  0  0  -0.056401  0  3.978375  0  0  -0.081235  -0.059621  0  3.948135  0
C  C38  1  0.92935365  0.67199433  0.18463005  1  0  -0.042776  0  3.714622  0  0  -0.058173  0  3.960463  0  0  -0.0562  0  3.978254  0  0  -0.081095  -0.059421  0  3.948033  0
C  C39  1  0.57062453  0.82800046  0.68462854  1  0  -0.042792  0  3.714673  0  0  -0.058147  0  3.960491  0  0  -0.056175  0  3.978273  0  0  -0.081083  -0.059397  0  3.948055  0
C  C40  1  0.13697549  0.43775255  0.77218429  1  0  -0.059184  0  3.74986  0  0  -0.069805  0  3.998142  0  0  -0.073475  0  4.018724  0  0  -0.090009  -0.067776  0  3.985081  0
C  C41  1  0.36303465  0.06225841  0.27219869  1  0  -0.058799  0  3.7493  0  0  -0.069278  0  3.997516  0  0  -0.072978  0  4.018081  0  0  -0.089809  -0.067256  0  3.984474  0
C  C42  1  0.86303689  0.56227085  0.22781098  1  0  -0.059022  0  3.749758  0  0  -0.069597  0  3.99792  0  0  -0.073243  0  4.018512  0  0  -0.089976  -0.06757  0  3.984864  0
C  C43  1  0.63695517  0.93772870  0.72780529  1  0  -0.058907  0  3.74964  0  0  -0.069503  0  3.997831  0  0  -0.073149  0  4.018423  0  0  -0.089891  -0.067473  0  3.984781  0
C  C44  1  0.04079783  0.54677460  0.80091538  1  0  -0.081359  0  3.708986  0  0  -0.106724  0  3.955755  0  0  -0.106136  0  3.974465  0  0  -0.079158  -0.107122  0  3.943722  0
C  C45  1  0.45920380  0.95323572  0.30092642  1  0  -0.081722  0  3.708921  0  0  -0.10704  0  3.955711  0  0  -0.106458  0  3.974432  0  0  -0.079303  -0.107442  0  3.943689  0
C  C46  1  0.95919547  0.45324594  0.19908222  1  0  -0.081566  0  3.708936  0  0  -0.106868  0  3.955747  0  0  -0.106274  0  3.974463  0  0  -0.079205  -0.107284  0  3.94374  0
C  C47  1  0.54080102  0.04675052  0.69907407  1  0  -0.081593  0  3.709063  0  0  -0.106916  0  3.955925  0  0  -0.106323  0  3.974634  0  0  -0.079296  -0.107329  0  3.943918  0
C  C48  1  0.77515502  0.65600674  0.90272902  1  0  0.304419  0  3.702332  0  0  0.287202  0  3.960933  0  0  0.301958  0  3.975197  0  0  0.201997  0.277356  0  3.951504  0
C  C49  1  0.72482567  0.84399208  0.40273701  1  0  0.304576  0  3.702118  0  0  0.287374  0  3.960727  0  0  0.302132  0  3.974989  0  0  0.202082  0.277519  0  3.951297  0
C  C50  1  0.22480256  0.34400160  0.09727205  1  0  0.304367  0  3.702685  0  0  0.287163  0  3.961259  0  0  0.301915  0  3.975525  0  0  0.201953  0.277311  0  3.951831  0
C  C51  1  0.27518608  0.15599233  0.59726174  1  0  0.304382  0  3.702489  0  0  0.287177  0  3.96108  0  0  0.301936  0  3.975344  0  0  0.20194  0.27733  0  3.951659  0
Br  Br52  1  0.24842281  0.03283878  0.90377885  1  0  -0.472527  0  1.577754  0  0  -0.394001  0  2.007109  0  0  -0.41547  0  1.967024  0  0  -0.214353  -0.379343  0  2.033769  0
Br  Br53  1  0.25160358  0.46717428  0.40377553  1  0  -0.472419  0  1.577825  0  0  -0.39395  0  2.007258  0  0  -0.415418  0  1.967161  0  0  -0.214332  -0.379283  0  2.033877  0
Br  Br54  1  0.75156792  0.96718176  0.09622512  1  0  -0.472518  0  1.577875  0  0  -0.393992  0  2.007234  0  0  -0.415448  0  1.967142  0  0  -0.214369  -0.379342  0  2.033906  0
Br  Br55  1  0.74842147  0.53281761  0.59622613  1  0  -0.47244  0  1.577832  0  0  -0.39396  0  2.00724  0  0  -0.415415  0  1.967123  0  0  -0.21435  -0.379291  0  2.03385  0
N  N56  1  0.69303276  0.74816062  0.92597460  1  0  -0.412462  0  3.131226  0  0  -0.367646  0  3.466788  0  0  -0.373084  0  3.458996  0  0  -0.390572  -0.364989  0  3.471589  0
N  N57  1  0.80694780  0.75182939  0.42598110  1  0  -0.41262  0  3.130916  0  0  -0.367821  0  3.466516  0  0  -0.373264  0  3.458722  0  0  -0.390623  -0.365148  0  3.471279  0
N  N58  1  0.30692008  0.25184863  0.07402879  1  0  -0.412462  0  3.131516  0  0  -0.367652  0  3.467057  0  0  -0.373074  0  3.459234  0  0  -0.390519  -0.364991  0  3.471847  0
N  N59  1  0.19306794  0.24815225  0.57401823  1  0  -0.412501  0  3.131296  0  0  -0.367715  0  3.466882  0  0  -0.373146  0  3.459071  0  0  -0.390567  -0.365046  0  3.471666  0
