# generated using pymatgen
data_MnH28C28S2(N3O)2
_symmetry_space_group_name_H-M   'P 1'
_cell_length_a   7.16002283
_cell_length_b   12.06546677
_cell_length_c   17.09939939
_cell_angle_alpha   89.99902168
_cell_angle_beta   90.00041015
_cell_angle_gamma   92.52948755
_symmetry_Int_Tables_number   1
_chemical_formula_structural   MnH28C28S2(N3O)2
_chemical_formula_sum   'Mn2 H56 C56 S4 N12 O4'
_cell_volume   1475.76098910
_cell_formula_units_Z   2
loop_
 _symmetry_equiv_pos_site_id
 _symmetry_equiv_pos_as_xyz
  1  'x, y, z'
loop_
 _atom_site_type_symbol
 _atom_site_label
 _atom_site_symmetry_multiplicity
 _atom_site_fract_x
 _atom_site_fract_y
 _atom_site_fract_z
 _atom_site_occupancy
 _atom_site_hle17_ddec_charge
 _atom_site_hle17_ddec_spin_density
 _atom_site_hle17_ddec_sum_bond_order
 _atom_site_hle17_magmom
 _atom_site_hse06_10hf_ddec_charge
 _atom_site_hse06_10hf_ddec_spin_density
 _atom_site_hse06_10hf_ddec_sum_bond_order
 _atom_site_hse06_10hf_magmom
 _atom_site_hse06_ddec_charge
 _atom_site_hse06_ddec_spin_density
 _atom_site_hse06_ddec_sum_bond_order
 _atom_site_hse06_magmom
 _atom_site_pbe_cm5_charge
 _atom_site_pbe_ddec_charge
 _atom_site_pbe_ddec_spin_density
 _atom_site_pbe_ddec_sum_bond_order
 _atom_site_pbe_magmom
Mn  Mn0  1  0.00001981  0.99999561  0.99999575  1  1.065705  -4.766206  2.043517  -4.646  0.9052  -4.668146  2.561668  -4.473  0.954999  -4.727629  2.493607  -4.555  0.651728  0.881282  -4.5751  2.607869  -4.352
Mn  Mn1  1  0.99998990  0.50000552  0.49999968  1  1.065617  -4.766257  2.043459  -4.646  0.905068  -4.668195  2.561644  -4.473  0.954873  -4.727666  2.493577  -4.555  0.651719  0.881135  -4.575201  2.607849  -4.352
H  H2  1  0.13526153  0.91181664  0.14482844  1  0.321342  -5e-06  0.991143  -0.001  0.283554  -0.000511  1.082188  -0.002  0.294781  -0.00028  1.071553  -0.002  0.282418  0.276135  -0.00073  1.088965  -0.002
H  H3  1  0.13523555  0.41182008  0.35517978  1  0.321489  -4e-06  0.991061  -0.001  0.283639  -0.000511  1.082231  -0.002  0.294854  -0.00028  1.07162  -0.002  0.282461  0.276228  -0.00073  1.088995  -0.002
H  H4  1  0.86475786  0.08818699  0.85517467  1  0.321313  -5e-06  0.99128  -0.001  0.283465  -0.000511  1.082438  -0.002  0.294688  -0.00028  1.071809  -0.002  0.282386  0.276051  -0.00073  1.089205  -0.002
H  H5  1  0.86474562  0.58817796  0.64482567  1  0.321452  -6e-06  0.991061  -0.001  0.283647  -0.000512  1.082147  -0.002  0.294858  -0.00028  1.071547  -0.002  0.282471  0.276231  -0.00073  1.088922  -0.002
H  H6  1  0.45599149  0.29731537  0.13629783  1  0.108407  -0.000293  0.946483  0.0  0.115673  -0.000432  1.010237  0.0  0.119443  -0.000327  1.009046  0.0  0.104023  0.112821  -0.000492  1.011539  0.0
H  H7  1  0.45600054  0.79731432  0.36370806  1  0.108387  -0.000298  0.946383  0.0  0.115594  -0.000432  1.01024  0.0  0.119362  -0.000327  1.009051  0.0  0.104018  0.112741  -0.000492  1.011542  0.0
H  H8  1  0.54400658  0.70268423  0.86370235  1  0.108353  -0.000289  0.946413  0.0  0.115586  -0.000432  1.010227  0.0  0.119355  -0.000327  1.009035  0.0  0.104006  0.112735  -0.000492  1.011527  0.0
H  H9  1  0.54398799  0.20268782  0.63629446  1  0.108422  -0.000297  0.94648  0.0  0.11567  -0.000432  1.010258  0.0  0.119441  -0.000327  1.009064  0.0  0.104033  0.112817  -0.000492  1.011562  0.0
H  H10  1  0.28231552  0.11559846  0.11939281  1  0.073269  -4.8e-05  0.958895  0.0  0.077909  -0.000476  1.030615  0.0  0.080623  -0.000309  1.027936  0.0  0.113784  0.07557  -0.000535  1.03331  -0.001
H  H11  1  0.28230433  0.61560211  0.38061183  1  0.073287  -3.2e-05  0.959017  0.0  0.077896  -0.000476  1.030776  0.0  0.080609  -0.00031  1.028098  0.0  0.113806  0.075556  -0.000535  1.033474  -0.001
H  H12  1  0.71770855  0.88439518  0.88060094  1  0.073251  -4.3e-05  0.958825  0.0  0.077868  -0.000476  1.030563  0.0  0.080577  -0.000309  1.027894  0.0  0.113783  0.075529  -0.000535  1.03326  -0.001
H  H13  1  0.71767597  0.38440174  0.61939011  1  0.073307  -3.5e-05  0.958931  0.0  0.077906  -0.000476  1.030684  0.0  0.080619  -0.000309  1.028006  0.0  0.113804  0.075568  -0.000535  1.03338  -0.001
H  H14  1  0.31894652  0.36872297  0.89455131  1  0.104142  -0.000313  0.9767  0.0  0.112873  -0.000445  1.041098  0.0  0.11633  -0.000337  1.03986  0.0  0.097314  0.110189  -0.00055  1.042376  0.0
H  H15  1  0.31891837  0.86873074  0.60544866  1  0.103928  -0.000317  0.97679  0.0  0.112711  -0.000445  1.04116  0.0  0.11617  -0.000337  1.039917  0.0  0.097246  0.110028  -0.00055  1.042435  0.0
H  H16  1  0.68107404  0.63127816  0.10544595  1  0.104015  -0.000305  0.976747  0.0  0.112792  -0.000445  1.041132  0.0  0.116252  -0.000337  1.039887  0.0  0.097276  0.110107  -0.00055  1.042409  0.0
H  H17  1  0.68106084  0.13127644  0.39455269  1  0.104116  -0.000311  0.976739  0.0  0.112872  -0.000445  1.041109  0.0  0.11633  -0.000337  1.039868  0.0  0.097329  0.110189  -0.00055  1.042389  0.0
H  H18  1  0.15966517  0.18352433  0.88844964  1  0.080543  -0.000107  0.947449  0.0  0.087389  -0.000635  1.013078  0.0  0.089983  -0.000426  1.010696  0.0  0.119143  0.085072  -0.000758  1.015659  -0.001
H  H19  1  0.15961934  0.68353620  0.61154800  1  0.080569  -9.4e-05  0.947481  0.0  0.087415  -0.000635  1.013156  0.0  0.09  -0.000426  1.010782  0.0  0.119214  0.085108  -0.000758  1.015726  -0.001
H  H20  1  0.84037176  0.81647256  0.11154412  1  0.080537  -0.00011  0.947478  0.0  0.087376  -0.000635  1.013158  0.0  0.089965  -0.000425  1.010777  0.0  0.119177  0.085071  -0.000758  1.015727  -0.001
H  H21  1  0.84035318  0.31647434  0.38845335  1  0.080586  -0.000102  0.947446  0.0  0.087431  -0.000635  1.013084  0.0  0.090028  -0.000426  1.010696  0.0  0.119178  0.085115  -0.000758  1.015666  -0.001
H  H22  1  0.56027293  0.47347148  0.08451265  1  0.095103  -2e-05  0.950326  0.0  0.106807  -0.000138  1.012153  0.0  0.109926  -0.000102  1.010383  0.0  0.101742  0.103876  -0.000167  1.014798  0.0
H  H23  1  0.56028453  0.97347335  0.41549085  1  0.094981  -2.3e-05  0.950368  0.0  0.106727  -0.000138  1.012165  0.0  0.109823  -0.000102  1.010438  0.0  0.101716  0.103797  -0.000167  1.014809  0.0
H  H24  1  0.43972903  0.52652478  0.91549221  1  0.094991  -1.9e-05  0.950458  0.0  0.106752  -0.000138  1.012222  0.0  0.109851  -0.000102  1.010482  0.0  0.101723  0.103822  -0.000167  1.014864  0.0
H  H25  1  0.43970694  0.02653044  0.58451109  1  0.094997  -3.6e-05  0.950434  0.0  0.106759  -0.000138  1.012203  0.0  0.109848  -0.000102  1.010487  0.0  0.101724  0.103829  -0.000167  1.014846  0.0
H  H26  1  0.39664515  0.82982367  0.12644096  1  0.062626  -0.000499  0.945232  0.0  0.078633  -0.000864  1.013923  -0.001  0.079398  -0.000634  1.012965  0.0  0.086836  0.078615  -0.001145  1.014075  -0.001
H  H27  1  0.39662152  0.32983413  0.37355676  1  0.062744  -0.000505  0.945272  0.0  0.078767  -0.000864  1.013911  -0.001  0.079532  -0.000634  1.01296  0.0  0.086881  0.078749  -0.001145  1.014065  -0.001
H  H28  1  0.60335994  0.17016095  0.87356449  1  0.062668  -0.000502  0.945303  0.0  0.078655  -0.000864  1.013993  -0.001  0.07942  -0.000634  1.013041  0.0  0.086831  0.07864  -0.001144  1.014144  -0.001
H  H29  1  0.60336312  0.67017136  0.62644577  1  0.06263  -0.000511  0.94522  0.0  0.078679  -0.000865  1.013844  -0.001  0.079446  -0.000634  1.012892  0.0  0.086819  0.07866  -0.001145  1.013999  -0.001
H  H30  1  0.35074692  0.81797373  0.02349583  1  0.064428  0.00028  0.966376  0.0  0.081762  7.1e-05  1.034513  0.0  0.081483  0.000173  1.035993  0.0  0.086028  0.08251  -8.3e-05  1.03296  0.0
H  H31  1  0.35071444  0.31795939  0.47650657  1  0.064556  0.000273  0.966188  0.0  0.08181  7.1e-05  1.034385  0.0  0.081583  0.000173  1.035817  0.0  0.086072  0.082546  -8.3e-05  1.032842  0.0
H  H32  1  0.64927334  0.18202409  0.97650903  1  0.06448  0.000276  0.966315  0.0  0.08181  7.1e-05  1.03443  0.0  0.081577  0.000174  1.035866  0.0  0.086069  0.082548  -8.3e-05  1.032887  0.0
H  H33  1  0.64926805  0.68203781  0.52349595  1  0.064497  0.000268  0.966216  0.0  0.081775  7.1e-05  1.034387  0.0  0.081546  0.000173  1.035819  0.0  0.086034  0.082512  -8.4e-05  1.032843  0.0
H  H34  1  0.44781425  0.94467485  0.06295098  1  0.071545  0.000212  0.9489  0.0  0.087088  -3.7e-05  1.019033  0.0  0.08698  0.000108  1.020316  0.0  0.089735  0.087262  -0.000239  1.018084  0.0
H  H35  1  0.44779207  0.44467384  0.43706363  1  0.071489  0.000211  0.94902  0.0  0.087027  -3.7e-05  1.019156  0.0  0.086919  0.000109  1.020444  0.0  0.089748  0.087209  -0.000239  1.018192  0.0
H  H36  1  0.55222201  0.05531457  0.93706207  1  0.071628  0.000205  0.948805  0.0  0.087087  -3.7e-05  1.019038  0.0  0.086977  0.000108  1.02033  0.0  0.08978  0.087268  -0.000239  1.018076  0.0
H  H37  1  0.55218801  0.55532752  0.56294415  1  0.071536  0.000206  0.948972  0.0  0.087034  -3.7e-05  1.019159  0.0  0.086925  0.000108  1.02045  0.0  0.089712  0.087215  -0.000239  1.018197  0.0
H  H38  1  0.93899606  0.76650528  0.24269596  1  0.069059  -2.5e-05  0.959127  0.0  0.074147  -0.000102  1.030777  0.0  0.076695  -5.7e-05  1.028758  0.0  0.105715  0.072031  -0.000159  1.032496  0.0
H  H39  1  0.93898222  0.26649187  0.25731470  1  0.068977  -2.5e-05  0.959067  0.0  0.074051  -0.000102  1.030733  0.0  0.0766  -5.7e-05  1.028714  0.0  0.10568  0.071951  -0.000159  1.032442  0.0
H  H40  1  0.06100307  0.23350594  0.75730598  1  0.068968  -2.3e-05  0.959209  0.0  0.074086  -0.000102  1.030808  0.0  0.076634  -5.7e-05  1.028789  0.0  0.105717  0.071978  -0.000159  1.032522  0.0
H  H41  1  0.06100790  0.73349699  0.74269075  1  0.068986  -2.6e-05  0.959129  0.0  0.074099  -0.000102  1.03076  0.0  0.076663  -5.7e-05  1.028726  0.0  0.105696  0.071983  -0.000159  1.032477  0.0
H  H42  1  0.17806276  0.10215720  0.37949485  1  0.107063  2.3e-05  0.943336  0.0  0.121868  -2e-06  0.994258  0.0  0.124803  9e-06  0.993878  0.0  0.108795  0.119794  -1.7e-05  0.994644  0.0
H  H43  1  0.17803265  0.60214055  0.12050262  1  0.107073  9e-06  0.943341  0.0  0.121873  -3e-06  0.994256  0.0  0.12481  9e-06  0.993877  0.0  0.1088  0.119799  -1.6e-05  0.994642  0.0
H  H44  1  0.82194520  0.89785895  0.62050124  1  0.107073  2.4e-05  0.943266  0.0  0.121844  -2e-06  0.994236  0.0  0.12478  9e-06  0.993857  0.0  0.108763  0.119768  -1.6e-05  0.994622  0.0
H  H45  1  0.82195143  0.39784336  0.87949581  1  0.107021  2.7e-05  0.943295  0.0  0.121836  -2e-06  0.994209  0.0  0.12477  9e-06  0.993831  0.0  0.108767  0.119762  -1.6e-05  0.994595  0.0
H  H46  1  0.24698791  0.06635031  0.24025578  1  0.069412  -9.5e-05  0.965774  0.0  0.077817  -0.000214  1.032353  0.0  0.080509  -0.000153  1.029732  0.0  0.105051  0.075608  -0.000264  1.034512  0.0
H  H47  1  0.24693410  0.56635374  0.25974643  1  0.069608  -7.9e-05  0.965972  0.0  0.077984  -0.000213  1.032534  0.0  0.080675  -0.000153  1.029916  0.0  0.105171  0.075774  -0.000264  1.034692  0.0
H  H48  1  0.75304374  0.93364993  0.75974207  1  0.069549  -8.2e-05  0.965913  0.0  0.077946  -0.000213  1.032454  0.0  0.080638  -0.000153  1.029835  0.0  0.105127  0.075736  -0.000264  1.034614  0.0
H  H49  1  0.75303537  0.43363856  0.74025317  1  0.069463  -8.4e-05  0.965738  0.0  0.077814  -0.000213  1.032363  0.0  0.080506  -0.000154  1.029741  0.0  0.105061  0.075603  -0.000264  1.03453  0.0
H  H50  1  0.86189070  0.78713838  0.38296146  1  0.112403  0.000159  0.958334  0.0  0.121949  0.000122  1.01917  0.0  0.124595  0.000159  1.019395  0.0  0.10697  0.119937  8.1e-05  1.019128  0.0
H  H51  1  0.86188733  0.28711328  0.11704462  1  0.112432  0.000146  0.958449  0.0  0.121902  0.000122  1.019371  0.0  0.124549  0.000159  1.019599  0.0  0.106914  0.119889  8.1e-05  1.01933  0.0
H  H52  1  0.13810111  0.21288450  0.61703872  1  0.11241  0.000147  0.958527  0.0  0.121876  0.000122  1.019449  0.0  0.124523  0.000159  1.019675  0.0  0.106918  0.119866  8.1e-05  1.019407  0.0
H  H53  1  0.13810577  0.71286228  0.88296025  1  0.11245  0.000148  0.958335  0.0  0.121992  0.000122  1.019178  0.0  0.124638  0.000159  1.019403  0.0  0.106964  0.119977  8.1e-05  1.019138  0.0
H  H54  1  0.88706078  0.88806640  0.50184109  1  0.092306  3.2e-05  0.945274  0.0  0.107087  1.3e-05  1.001558  0.0  0.109662  2.7e-05  1.0005  0.0  0.105265  0.105004  -6.4e-05  1.002723  0.0
H  H55  1  0.88705213  0.38804893  0.99816096  1  0.092346  2.3e-05  0.945081  0.0  0.107031  1.3e-05  1.001452  0.0  0.10961  2.7e-05  1.00039  0.0  0.105228  0.104946  -6.4e-05  1.002621  0.0
H  H56  1  0.11293420  0.11196061  0.49815851  1  0.092358  1.8e-05  0.944975  0.0  0.107045  1.3e-05  1.001346  0.0  0.109623  2.7e-05  1.000282  0.0  0.105226  0.104962  -6.4e-05  1.002514  0.0
H  H57  1  0.11294120  0.61192912  0.00183981  1  0.092334  2.3e-05  0.945335  0.0  0.107093  1.3e-05  1.001606  0.0  0.109664  2.7e-05  1.000553  0.0  0.105303  0.105009  -6.4e-05  1.002773  0.0
C  C58  1  0.49512696  0.45929384  0.02734981  1  -0.100051  -0.000812  3.719743  -0.001  -0.122077  -0.002763  3.976042  -0.002  -0.123829  -0.001375  3.994207  -0.001  -0.083689  -0.12439  -0.009624  3.969455  -0.006
C  C59  1  0.49512546  0.95929443  0.47265249  1  -0.099924  -0.000824  3.719892  -0.001  -0.121977  -0.002761  3.976189  -0.002  -0.123724  -0.001376  3.994351  -0.001  -0.083655  -0.124284  -0.009618  3.969595  -0.006
C  C60  1  0.50487142  0.54070908  0.97265154  1  -0.100056  -0.000812  3.720073  -0.001  -0.122129  -0.002764  3.976362  -0.002  -0.123875  -0.001375  3.994532  -0.001  -0.083744  -0.124438  -0.009625  3.96977  -0.006
C  C61  1  0.50486755  0.04071102  0.52734886  1  -0.100028  -0.000792  3.719901  0.0  -0.122131  -0.002765  3.97619  -0.002  -0.123871  -0.001375  3.994356  -0.001  -0.083743  -0.124442  -0.009622  3.969596  -0.006
C  C62  1  0.29342391  0.17494424  0.07137382  1  0.137124  -0.003444  3.708566  -0.003  0.106856  -0.006396  3.964169  -0.005  0.114039  -0.005162  3.981571  -0.004  0.052834  0.100754  -0.008383  3.956106  -0.006
C  C63  1  0.29341081  0.67494843  0.42862838  1  0.136938  -0.003536  3.708547  -0.003  0.106697  -0.006395  3.964109  -0.005  0.11388  -0.005164  3.981511  -0.004  0.052682  0.100595  -0.008383  3.956045  -0.006
C  C64  1  0.70660016  0.82504940  0.92862110  1  0.137122  -0.003437  3.708276  -0.003  0.106877  -0.006395  3.963901  -0.005  0.114059  -0.005161  3.981301  -0.004  0.052772  0.100774  -0.008382  3.955842  -0.006
C  C65  1  0.70657508  0.32505540  0.57137414  1  0.136959  -0.003517  3.708954  -0.003  0.106742  -0.006392  3.964516  -0.005  0.113923  -0.00516  3.98192  -0.004  0.052745  0.100642  -0.008379  3.956449  -0.006
C  C66  1  0.31492559  0.31673267  0.94671076  1  -0.167056  0.002089  3.711745  0.001  -0.179933  0.001401  3.951054  0.001  -0.187875  0.002024  3.972134  0.001  -0.084358  -0.175671  -0.001457  3.93872  -0.001
C  C67  1  0.31489937  0.81674083  0.55329100  1  -0.166545  0.00217  3.711443  0.001  -0.179423  0.0014  3.950715  0.001  -0.187362  0.002025  3.971793  0.001  -0.084134  -0.175164  -0.001454  3.938378  -0.001
C  C68  1  0.68509731  0.68326347  0.05328474  1  -0.166667  0.002007  3.711317  0.001  -0.179553  0.0014  3.950583  0.001  -0.187496  0.002023  3.971666  0.001  -0.084243  -0.175293  -0.001457  3.938248  -0.001
C  C69  1  0.68508573  0.18326964  0.44671094  1  -0.16699  0.00212  3.711684  0.001  -0.179893  0.001399  3.950945  0.001  -0.187833  0.002023  3.972026  0.001  -0.084327  -0.175633  -0.001456  3.938612  -0.001
C  C70  1  0.40002470  0.35167968  0.01741664  1  0.123912  -0.002567  3.825191  -0.002  0.13846  -0.005121  4.055335  -0.004  0.143968  -0.003785  4.076924  -0.003  0.001395  0.134747  -0.009227  4.042449  -0.007
C  C71  1  0.40001536  0.85168423  0.48258492  1  0.123558  -0.002599  3.825687  -0.002  0.138083  -0.00512  4.055857  -0.004  0.143596  -0.003787  4.077439  -0.003  0.001287  0.134369  -0.009225  4.042958  -0.007
C  C72  1  0.59998579  0.64831819  0.98258062  1  0.123744  -0.00254  3.825502  -0.002  0.138298  -0.005121  4.055629  -0.004  0.143808  -0.003786  4.077211  -0.003  0.001396  0.134586  -0.009225  4.042736  -0.007
C  C73  1  0.59997237  0.14832456  0.51741643  1  0.123788  -0.002592  3.825459  -0.002  0.138422  -0.005119  4.055484  -0.004  0.143929  -0.003785  4.077065  -0.003  0.00133  0.134712  -0.009222  4.042585  -0.007
C  C74  1  0.38964953  0.27656922  0.08042046  1  -0.165503  0.001816  3.697908  0.001  -0.182637  0.000602  3.944984  0.0  -0.190287  0.001721  3.965091  0.001  -0.082959  -0.179303  -0.002884  3.934429  -0.002
C  C75  1  0.38964165  0.77657110  0.41958315  1  -0.165268  0.001893  3.697875  0.001  -0.182347  0.000601  3.9449  0.0  -0.189993  0.001723  3.965003  0.001  -0.082885  -0.179014  -0.002882  3.934345  -0.002
C  C76  1  0.61036096  0.72342865  0.91957797  1  -0.165269  0.001786  3.697856  0.001  -0.182385  0.000602  3.944905  0.0  -0.190032  0.00172  3.965009  0.001  -0.082889  -0.179052  -0.002885  3.934349  -0.002
C  C77  1  0.61034563  0.22343272  0.58042054  1  -0.165291  0.001884  3.698085  0.001  -0.182434  0.000602  3.94506  0.0  -0.190085  0.00172  3.965174  0.001  -0.082849  -0.179099  -0.002884  3.934498  -0.002
C  C78  1  0.23683182  0.92373970  0.84633561  1  0.303722  -0.018731  4.056521  -0.02  0.290681  -0.023895  4.357339  -0.025  0.312805  -0.02179  4.372769  -0.023  0.141332  0.276866  -0.025179  4.343553  -0.026
C  C79  1  0.23684296  0.42374437  0.65365701  1  0.303454  -0.018746  4.056421  -0.02  0.290401  -0.023894  4.357256  -0.025  0.312527  -0.021789  4.372688  -0.023  0.141186  0.276585  -0.025179  4.343473  -0.026
C  C80  1  0.76319349  0.07625227  0.15365404  1  0.303626  -0.018769  4.056423  -0.02  0.290567  -0.0239  4.357254  -0.025  0.31269  -0.021796  4.372687  -0.023  0.141348  0.276756  -0.025184  4.34347  -0.026
C  C81  1  0.76312881  0.57625787  0.34634142  1  0.303512  -0.018755  4.056245  -0.02  0.290462  -0.02389  4.357069  -0.025  0.312587  -0.021787  4.372502  -0.023  0.141238  0.276646  -0.025176  4.343287  -0.026
C  C82  1  0.22447861  0.21318615  0.94262865  1  0.128491  -0.003245  3.711848  -0.003  0.100646  -0.006043  3.962533  -0.005  0.107697  -0.00485  3.979286  -0.004  0.049741  0.094892  -0.007303  3.954391  -0.005
C  C83  1  0.22443342  0.71320013  0.55737058  1  0.128424  -0.003329  3.711825  -0.003  0.10051  -0.006041  3.962555  -0.005  0.107568  -0.004848  3.97931  -0.004  0.049554  0.094745  -0.007302  3.95441  -0.005
C  C84  1  0.77555252  0.78680828  0.05736685  1  0.128405  -0.003198  3.711851  -0.003  0.100504  -0.006043  3.962579  -0.005  0.107564  -0.004848  3.979337  -0.004  0.049614  0.094739  -0.007303  3.954435  -0.005
C  C85  1  0.77553940  0.28681373  0.44263136  1  0.128528  -0.003286  3.711915  -0.003  0.100643  -0.00604  3.962645  -0.005  0.107691  -0.004846  3.9794  -0.004  0.049722  0.094887  -0.0073  3.954505  -0.005
C  C86  1  0.34927064  0.87376266  0.07416394  1  -0.02088  -0.001742  3.688228  -0.002  -0.115673  -0.003272  3.95818  -0.003  -0.108771  -0.002439  3.963085  -0.002  -0.1583  -0.120281  -0.004058  3.953254  -0.003
C  C87  1  0.34923720  0.37376281  0.42584013  1  -0.021277  -0.001703  3.688657  -0.002  -0.115981  -0.003273  3.958536  -0.003  -0.109123  -0.002437  3.963416  -0.002  -0.158459  -0.120578  -0.004057  3.95362  -0.003
C  C88  1  0.65074792  0.12623185  0.92584327  1  -0.021105  -0.001708  3.688384  -0.002  -0.115796  -0.003273  3.958322  -0.003  -0.108933  -0.002437  3.963203  -0.002  -0.158423  -0.120396  -0.004057  3.953412  -0.003
C  C89  1  0.65075103  0.62623602  0.57416474  1  -0.021115  -0.001685  3.688587  -0.002  -0.115833  -0.003272  3.95847  -0.003  -0.108973  -0.002437  3.963349  -0.002  -0.158326  -0.12043  -0.004057  3.953549  -0.003
C  C90  1  0.97100944  0.95715358  0.47694402  1  -0.097413  -0.000111  3.727003  0.0  -0.11965  -0.000206  3.982023  0.0  -0.122606  -4.2e-05  4.002806  0.0  -0.079976  -0.117442  -0.001169  3.967387  -0.001
C  C91  1  0.97099525  0.45713492  0.02305624  1  -0.097163  3e-06  3.7268  0.0  -0.119299  -0.000211  3.98179  0.0  -0.122264  -3.7e-05  4.002578  0.0  -0.079821  -0.117089  -0.001169  3.967159  -0.001
C  C92  1  0.02898803  0.04287010  0.52305149  1  -0.0971  0.000109  3.726345  0.0  -0.119165  -0.000217  3.981368  0.0  -0.122123  -3e-05  4.002151  0.0  -0.079685  -0.116952  -0.001168  3.966734  -0.001
C  C93  1  0.02899257  0.54284399  0.97694511  1  -0.097373  -2.6e-05  3.727117  0.0  -0.1195  -0.000212  3.98213  0.0  -0.122454  -3.4e-05  4.002915  0.0  -0.079883  -0.117286  -0.001169  3.967497  -0.001
C  C94  1  0.99013459  0.84002416  0.27488561  1  0.127874  0.000187  3.72439  0.0  0.096667  -0.000119  3.978486  0.0  0.103441  1.7e-05  3.995691  0.0  0.046799  0.091888  -0.000286  3.968133  0.0
C  C95  1  0.99011064  0.34001323  0.22512022  1  0.128052  6.9e-05  3.724435  0.0  0.096863  -0.000119  3.978519  0.0  0.103638  1.7e-05  3.995729  0.0  0.046828  0.092069  -0.000286  3.968163  0.0
C  C96  1  0.00987181  0.15999033  0.72511399  1  0.127937  0.000125  3.724587  0.0  0.096719  -0.000121  3.978695  0.0  0.103493  2e-05  3.9959  0.0  0.046766  0.091935  -0.000286  3.968342  0.0
C  C97  1  0.00987537  0.65997648  0.77488348  1  0.128139  0.000139  3.724265  0.0  0.09692  -0.00012  3.978362  0.0  0.103685  1.9e-05  3.995558  0.0  0.046886  0.092141  -0.000286  3.968007  0.0
C  C98  1  0.01250096  0.94694300  0.39427481  1  0.127719  6.3e-05  3.819141  0.0  0.141723  -0.000227  4.053027  0.0  0.146712  -8.6e-05  4.075985  0.0  0.005184  0.139092  -0.000711  4.036504  0.0
C  C99  1  0.01249229  0.44692319  0.10571974  1  0.127336  -7.7e-05  3.819356  0.0  0.141312  -0.000227  4.053246  0.0  0.146306  -8.6e-05  4.076193  0.0  0.005018  0.138683  -0.000711  4.03672  0.0
C  C100  1  0.98749884  0.05307568  0.60572186  1  0.127392  -4.7e-05  3.818917  0.0  0.141272  -0.000229  4.052954  0.0  0.146262  -8.4e-05  4.075914  0.0  0.005017  0.138639  -0.000711  4.036428  0.0
C  C101  1  0.98749685  0.55305489  0.89428044  1  0.127794  -1e-06  3.819124  0.0  0.141657  -0.000228  4.053208  0.0  0.146645  -8.6e-05  4.076164  0.0  0.005119  0.139024  -0.000711  4.036685  0.0
C  C102  1  0.12140087  0.02644141  0.35201765  1  -0.162771  -0.000264  3.704572  0.0  -0.178457  -0.000324  3.949291  0.0  -0.186469  -0.000219  3.971108  0.0  -0.082753  -0.17309  -0.000896  3.934552  -0.001
C  C103  1  0.12137918  0.52641991  0.14797881  1  -0.162594  -0.000115  3.704331  0.0  -0.178228  -0.000323  3.94898  0.0  -0.186239  -0.000219  3.970789  0.0  -0.082796  -0.172862  -0.000897  3.93424  -0.001
C  C104  1  0.87860305  0.97357642  0.64797844  1  -0.162706  -0.00018  3.704159  0.0  -0.178324  -0.000322  3.948922  0.0  -0.186338  -0.000222  3.97074  0.0  -0.082817  -0.172958  -0.000896  3.93418  -0.001
C  C105  1  0.87860724  0.47355901  0.85201728  1  -0.162767  -0.000237  3.704385  0.0  -0.178421  -0.000323  3.94913  0.0  -0.186431  -0.000219  3.970942  0.0  -0.082746  -0.173056  -0.000897  3.934392  -0.001
C  C106  1  0.15956481  0.00725310  0.27386713  1  0.124462  8.2e-05  3.738692  0.0  0.092313  -0.000347  3.994018  0.0  0.09868  -0.000156  4.011759  0.0  0.04331  0.087661  -0.000757  3.983073  0.0
C  C107  1  0.15952928  0.50724893  0.22613319  1  0.124151  -7e-05  3.739154  0.0  0.092029  -0.000347  3.994415  0.0  0.098394  -0.000156  4.01216  0.0  0.043253  0.087378  -0.000757  3.983466  0.0
C  C108  1  0.84045768  0.99275383  0.72613189  1  0.124204  -1.9e-05  3.738757  0.0  0.092066  -0.000348  3.99406  0.0  0.098432  -0.000153  4.011799  0.0  0.043276  0.087413  -0.000757  3.983111  0.0
C  C109  1  0.84045665  0.49273996  0.77386466  1  0.124486  3.2e-05  3.738644  0.0  0.092398  -0.000347  3.993931  0.0  0.098765  -0.000155  4.01167  0.0  0.043325  0.087744  -0.000757  3.982982  0.0
C  C110  1  0.94527549  0.85227052  0.35337594  1  -0.160422  -0.000139  3.692683  0.0  -0.178444  -0.000127  3.938886  0.0  -0.186759  -5.7e-05  3.961152  0.0  -0.080909  -0.173218  -0.000564  3.924334  0.0
C  C111  1  0.94526804  0.35225637  0.14662433  1  -0.160385  3e-06  3.69315  0.0  -0.178345  -0.000127  3.939316  0.0  -0.186667  -5.7e-05  3.961588  0.0  -0.080819  -0.173123  -0.000564  3.924774  0.0
C  C112  1  0.05472145  0.14774735  0.64662249  1  -0.160371  -3.1e-05  3.693174  0.0  -0.178323  -0.000125  3.939434  0.0  -0.186639  -5.9e-05  3.961701  0.0  -0.080822  -0.173101  -0.000564  3.924889  0.0
C  C113  1  0.05472419  0.64772500  0.85337760  1  -0.160636  -6.5e-05  3.692608  0.0  -0.178653  -0.000126  3.938931  0.0  -0.186969  -5.8e-05  3.961202  0.0  -0.080959  -0.173425  -0.000564  3.924379  0.0
S  S114  1  0.35927886  0.90690994  0.76796473  1  -0.417929  -0.013008  1.971183  -0.01  -0.398336  -0.018714  2.244402  -0.013  -0.416218  -0.014731  2.240983  -0.01  -0.197154  -0.379945  -0.023512  2.243944  -0.016
S  S115  1  0.35931661  0.40691592  0.73202730  1  -0.417847  -0.013002  1.971068  -0.01  -0.398236  -0.01871  2.244279  -0.013  -0.416119  -0.014731  2.240858  -0.01  -0.197115  -0.379848  -0.023508  2.243824  -0.016
S  S116  1  0.64074559  0.09308785  0.23202201  1  -0.417834  -0.012996  1.971468  -0.01  -0.398254  -0.018717  2.244712  -0.013  -0.416138  -0.014736  2.241294  -0.01  -0.197145  -0.379864  -0.023516  2.244257  -0.016
S  S117  1  0.64067067  0.59308790  0.26796703  1  -0.417852  -0.013005  1.971021  -0.01  -0.398254  -0.018709  2.244268  -0.013  -0.41614  -0.014732  2.240848  -0.01  -0.19713  -0.379867  -0.023507  2.243813  -0.016
N  N118  1  0.14633624  0.93399586  0.90409592  1  -0.57397  -0.017021  2.908516  0.001  -0.524835  -0.021159  3.203842  0.003  -0.547229  -0.016192  3.206231  0.006  -0.398922  -0.508717  -0.025154  3.200642  -0.001
N  N119  1  0.14633673  0.43400196  0.59589748  1  -0.573733  -0.016995  2.908401  0.001  -0.524557  -0.021152  3.203649  0.003  -0.546953  -0.016187  3.206048  0.006  -0.398776  -0.508438  -0.025148  3.200446  -0.001
N  N120  1  0.85370421  0.06599354  0.09589490  1  -0.573932  -0.016984  2.90817  0.001  -0.524761  -0.021151  3.203463  0.003  -0.547157  -0.016181  3.205861  0.006  -0.398897  -0.508629  -0.025146  3.200236  -0.001
N  N121  1  0.85364048  0.56599859  0.40409861  1  -0.573809  -0.016982  2.908273  0.001  -0.524654  -0.021157  3.203588  0.003  -0.547049  -0.016189  3.205985  0.006  -0.398849  -0.508535  -0.025152  3.200388  -0.001
N  N122  1  0.21052619  0.14296034  0.00398907  1  -0.321217  -0.027934  3.23135  -0.016  -0.252143  -0.033336  3.500375  -0.018  -0.269798  -0.029447  3.514643  -0.014  -0.318562  -0.242557  -0.03813  3.494614  -0.023
N  N123  1  0.21049106  0.64297053  0.49601152  1  -0.321139  -0.027867  3.231162  -0.016  -0.252056  -0.033335  3.500177  -0.018  -0.269713  -0.029445  3.514445  -0.014  -0.318416  -0.242466  -0.038129  3.494414  -0.023
N  N124  1  0.78951324  0.85703321  0.99600410  1  -0.321289  -0.027957  3.231258  -0.016  -0.252171  -0.033336  3.500212  -0.018  -0.269826  -0.029449  3.514476  -0.014  -0.318433  -0.242584  -0.038132  3.494456  -0.023
N  N125  1  0.78948117  0.35703669  0.50399218  1  -0.321233  -0.027887  3.231633  -0.016  -0.252137  -0.033336  3.500606  -0.018  -0.269793  -0.029447  3.514882  -0.014  -0.318532  -0.242547  -0.038129  3.494839  -0.023
N  N126  1  0.09675533  0.91557931  0.23555610  1  -0.297689  -0.00049  3.204936  -0.001  -0.23119  -0.00092  3.446524  -0.001  -0.246203  -0.000539  3.464146  -0.001  -0.306433  -0.222098  -0.001987  3.43585  -0.002
N  N127  1  0.09672831  0.41557328  0.26444903  1  -0.297738  -0.000407  3.205073  -0.001  -0.231225  -0.00092  3.44668  -0.001  -0.246234  -0.000537  3.464312  -0.001  -0.306444  -0.222137  -0.001987  3.436004  -0.002
N  N128  1  0.90325489  0.08443102  0.76444291  1  -0.297493  -0.00044  3.204738  -0.001  -0.23097  -0.000921  3.446341  -0.001  -0.245979  -0.000538  3.463964  -0.001  -0.306353  -0.221882  -0.001986  3.435662  -0.002
N  N129  1  0.90325792  0.58441892  0.73555525  1  -0.297884  -0.000459  3.20499  -0.001  -0.231375  -0.000921  3.446575  -0.001  -0.246384  -0.000538  3.464209  -0.001  -0.306475  -0.222283  -0.001988  3.4359  -0.002
O  O130  1  0.16340294  0.90902368  0.08550127  1  -0.553043  -0.031008  2.282102  -0.02  -0.471288  -0.041303  2.556663  -0.028  -0.494161  -0.036934  2.543711  -0.024  -0.40537  -0.454422  -0.046037  2.564558  -0.033
O  O131  1  0.16337860  0.40903401  0.41450005  1  -0.552886  -0.031027  2.28261  -0.02  -0.471085  -0.0413  2.557172  -0.028  -0.493955  -0.036933  2.544241  -0.024  -0.405299  -0.45422  -0.046032  2.565053  -0.033
O  O132  1  0.83661932  0.09098076  0.91449892  1  -0.552928  -0.031014  2.282416  -0.02  -0.471135  -0.041297  2.556983  -0.028  -0.494005  -0.03693  2.544045  -0.024  -0.405257  -0.454271  -0.046031  2.564865  -0.033
O  O133  1  0.83660992  0.59096814  0.58550364  1  -0.552912  -0.03102  2.282617  -0.02  -0.471161  -0.041301  2.557174  -0.028  -0.494033  -0.036934  2.544252  -0.024  -0.405325  -0.454296  -0.046033  2.565062  -0.033
