# generated using pymatgen
data_ZnH12C10N5O6
_symmetry_space_group_name_H-M   'P 1'
_cell_length_a   7.17928623
_cell_length_b   7.58434765
_cell_length_c   26.38100000
_cell_angle_alpha   90.00000000
_cell_angle_beta   90.00000000
_cell_angle_gamma   110.33040028
_symmetry_Int_Tables_number   1
_chemical_formula_structural   ZnH12C10N5O6
_chemical_formula_sum   'Zn4 H48 C40 N20 O24'
_cell_volume   1346.96669669
_cell_formula_units_Z   4
loop_
 _symmetry_equiv_pos_site_id
 _symmetry_equiv_pos_as_xyz
  1  'x, y, z'
loop_
 _atom_site_type_symbol
 _atom_site_label
 _atom_site_symmetry_multiplicity
 _atom_site_fract_x
 _atom_site_fract_y
 _atom_site_fract_z
 _atom_site_occupancy
 _atom_site_hle17_bader_spin_density
 _atom_site_hle17_ddec_charge
 _atom_site_hle17_ddec_spin_density
 _atom_site_hle17_ddec_sum_bond_order
 _atom_site_hle17_magmom
 _atom_site_hse06_10hf_bader_spin_density
 _atom_site_hse06_10hf_ddec_charge
 _atom_site_hse06_10hf_ddec_spin_density
 _atom_site_hse06_10hf_ddec_sum_bond_order
 _atom_site_hse06_10hf_magmom
 _atom_site_hse06_bader_spin_density
 _atom_site_hse06_ddec_charge
 _atom_site_hse06_ddec_spin_density
 _atom_site_hse06_ddec_sum_bond_order
 _atom_site_hse06_magmom
 _atom_site_pbe_bader_charge
 _atom_site_pbe_bader_spin_density
 _atom_site_pbe_cm5_charge
 _atom_site_pbe_ddec_charge
 _atom_site_pbe_ddec_spin_density
 _atom_site_pbe_ddec_sum_bond_order
 _atom_site_pbe_magmom
Zn  Zn0  1  0.00981901  0.71501502  0.84577347  1  0  1.069173  0  1.784006  0  0  0.898408  0  2.227577  0  0  0.944386  0  2.175062  0  1.325888  0  0.673654  0.866252  0  2.263471  0
Zn  Zn1  1  0.99018046  0.78498528  0.34577158  1  0  1.069145  0  1.783998  0  0  0.89838  0  2.227541  0  0  0.944357  0  2.175028  0  1.325859  0  0.673671  0.866223  0  2.263433  0
Zn  Zn2  1  0.99018308  0.28498377  0.15422691  1  0  1.069144  0  1.784075  0  0  0.898388  0  2.227628  0  0  0.944365  0  2.175112  0  1.325944  0  0.673646  0.866235  0  2.263518  0
Zn  Zn3  1  0.00981936  0.21501492  0.65422804  1  0  1.069143  0  1.783975  0  0  0.898377  0  2.22753  0  0  0.944355  0  2.175017  0  1.325864  0  0.673676  0.866219  0  2.263423  0
H  H4  1  0.42464910  0.05925017  0.85265722  1  0  0.105727  0  0.921809  0  0  0.114181  0  0.978256  0  0  0.118295  0  0.975102  0  0.104769  0  0.129554  0.111076  0  0.980857  0
H  H5  1  0.57536464  0.44075274  0.35265494  1  0  0.105799  0  0.921693  0  0  0.114243  0  0.978128  0  0  0.118357  0  0.974974  0  0.104729  0  0.129578  0.111141  0  0.980726  0
H  H6  1  0.57535021  0.94074862  0.14734241  1  0  0.105713  0  0.921831  0  0  0.114172  0  0.978271  0  0  0.118285  0  0.975116  0  0.105082  0  0.129555  0.111069  0  0.980868  0
H  H7  1  0.42463812  0.55925167  0.64734506  1  0  0.105792  0  0.921707  0  0  0.114233  0  0.978148  0  0  0.118346  0  0.974995  0  0.104745  0  0.129571  0.11113  0  0.980747  0
H  H8  1  0.65828875  0.28034084  0.78855237  1  0  0.097377  0  0.954764  0  0  0.101107  0  1.024729  0  0  0.105192  0  1.020687  0  0.153322  0  0.123468  0.098018  0  1.027918  0
H  H9  1  0.34172169  0.21966067  0.28855085  1  0  0.097317  0  0.954754  0  0  0.101088  0  1.024685  0  0  0.105145  0  1.020675  0  0.153403  0  0.123437  0.098002  0  1.027866  0
H  H10  1  0.34170828  0.71965936  0.21144725  1  0  0.09738  0  0.954746  0  0  0.101106  0  1.024713  0  0  0.105196  0  1.020663  0  0.153293  0  0.123461  0.098018  0  1.027901  0
H  H11  1  0.65828004  0.78034093  0.71144953  1  0  0.097321  0  0.954829  0  0  0.101066  0  1.024764  0  0  0.105123  0  1.020754  0  0.15339  0  0.123436  0.097981  0  1.027944  0
H  H12  1  0.06667956  0.13956509  0.89068003  1  0  0.121223  0  0.946535  0  0  0.129751  0  1.009219  0  0  0.132519  0  1.00598  0  0.198076  0  0.1447  0.127642  0  1.011595  0
H  H13  1  0.93331886  0.36043782  0.39067890  1  0  0.121147  0  0.946613  0  0  0.129775  0  1.009169  0  0  0.132546  0  1.005922  0  0.198024  0  0.144693  0.12766  0  1.01154  0
H  H14  1  0.93332166  0.86043510  0.10932034  1  0  0.121203  0  0.946569  0  0  0.12974  0  1.009245  0  0  0.13251  0  1.006003  0  0.198061  0  0.144688  0.127632  0  1.011619  0
H  H15  1  0.06668668  0.63956660  0.60932224  1  0  0.12111  0  0.946622  0  0  0.129742  0  1.009156  0  0  0.132514  0  1.005907  0  0.197986  0  0.144668  0.127629  0  1.011529  0
H  H16  1  0.20941159  0.70636329  0.96124711  1  0  0.095438  0  0.944363  0  0  0.105653  0  1.004049  0  0  0.107889  0  1.001493  0  0.1211  0  0.136351  0.103967  0  1.005942  0
H  H17  1  0.79059221  0.79364122  0.46124711  1  0  0.095426  0  0.944386  0  0  0.105636  0  1.004087  0  0  0.107872  0  1.001529  0  0.121064  0  0.136349  0.10395  0  1.00598  0
H  H18  1  0.79058772  0.29363550  0.03875403  1  0  0.095444  0  0.944367  0  0  0.105651  0  1.004066  0  0  0.107889  0  1.001506  0  0.121113  0  0.136347  0.103966  0  1.005959  0
H  H19  1  0.20940776  0.20636320  0.53875327  1  0  0.095421  0  0.944355  0  0  0.105631  0  1.004054  0  0  0.107868  0  1.001496  0  0.121112  0  0.136347  0.103946  0  1.005948  0
H  H20  1  0.16467734  0.30220848  0.01773473  1  0  0.077862  0  0.938831  0  0  0.095194  0  0.998683  0  0  0.094899  0  1.000137  0  0.046404  0  0.110682  0.095293  0  0.997805  0
H  H21  1  0.83532386  0.19779443  0.51773322  1  0  0.077771  0  0.938964  0  0  0.095165  0  0.998781  0  0  0.094871  0  1.000234  0  0.046212  0  0.110673  0.095262  0  0.997901  0
H  H22  1  0.83532108  0.69779172  0.98226565  1  0  0.077844  0  0.938909  0  0  0.09518  0  0.998762  0  0  0.094887  0  1.000212  0  0.046415  0  0.110668  0.095277  0  0.997883  0
H  H23  1  0.16467890  0.80220998  0.48226716  1  0  0.077843  0  0.938892  0  0  0.095206  0  0.998724  0  0  0.094913  0  1.000175  0  0.046235  0  0.110682  0.095301  0  0.997844  0
H  H24  1  0.20428398  0.38888881  0.95403548  1  0  0.086472  0  0.931287  0  0  0.100125  0  0.99848  0  0  0.101672  0  0.99703  0  0.095269  0  0.115509  0.098862  0  0.999639  0
H  H25  1  0.79571738  0.11111832  0.45403434  1  0  0.086472  0  0.931316  0  0  0.100148  0  0.998539  0  0  0.101695  0  0.997089  0  0.09528  0  0.115519  0.098882  0  0.999695  0
H  H26  1  0.79571584  0.61111139  0.04596452  1  0  0.086472  0  0.931285  0  0  0.100135  0  0.99847  0  0  0.101682  0  0.997022  0  0.09527  0  0.115513  0.098871  0  0.999628  0
H  H27  1  0.20428781  0.88888891  0.54596604  1  0  0.086462  0  0.931305  0  0  0.100131  0  0.998522  0  0  0.101677  0  0.997074  0  0.095242  0  0.115506  0.098864  0  0.999678  0
H  H28  1  0.55560018  0.37757956  0.96037224  1  0  0.082622  0  0.933655  0  0  0.100132  0  0.992341  0  0  0.101459  0  0.992035  0  0.047979  0  0.095024  0.099062  0  0.992722  0
H  H29  1  0.44439757  0.12241772  0.46037186  1  0  0.082585  0  0.933643  0  0  0.10009  0  0.992321  0  0  0.101417  0  0.992012  0  0.047974  0  0.094996  0.099019  0  0.992704  0
H  H30  1  0.44440052  0.62241923  0.03962852  1  0  0.082618  0  0.933617  0  0  0.100125  0  0.99229  0  0  0.101451  0  0.991983  0  0.047953  0  0.095005  0.099057  0  0.99267  0
H  H31  1  0.55560364  0.87758247  0.53962814  1  0  0.0826  0  0.933648  0  0  0.100101  0  0.992328  0  0  0.101427  0  0.99202  0  0.047821  0  0.095006  0.099028  0  0.99271  0
H  H32  1  0.50828743  0.32097286  0.02572837  1  0  0.076124  0  0.937425  0  0  0.093892  0  0.996631  0  0  0.094744  0  0.996537  0  0.04731  0  0.095221  0.093192  0  0.996819  0
H  H33  1  0.49171274  0.17902724  0.52572799  1  0  0.07614  0  0.937425  0  0  0.093906  0  0.996616  0  0  0.094758  0  0.996521  0  0.047317  0  0.095229  0.093206  0  0.996805  0
H  H34  1  0.49171048  0.67902593  0.97427201  1  0  0.076149  0  0.937424  0  0  0.09391  0  0.99662  0  0  0.094761  0  0.996526  0  0.047308  0  0.095227  0.09321  0  0.99681  0
H  H35  1  0.50828847  0.82097295  0.47427201  1  0  0.076163  0  0.937416  0  0  0.09392  0  0.996617  0  0  0.094772  0  0.996522  0  0.047317  0  0.095228  0.093217  0  0.996805  0
H  H36  1  0.67874259  0.76936071  0.81443463  1  0  0.3835  0  0.936035  0  0  0.341236  0  1.021427  0  0  0.352289  0  1.005749  0  0.646021  0  0.276835  0.333459  0  1.032436  0
H  H37  1  0.32125115  0.73063536  0.31443236  1  0  0.383662  0  0.935762  0  0  0.341423  0  1.02116  0  0  0.352474  0  1.005485  0  0.646059  0  0.276932  0.333647  0  1.032169  0
H  H38  1  0.32125914  0.23064089  0.18556537  1  0  0.383515  0  0.936004  0  0  0.341252  0  1.021404  0  0  0.352304  0  1.005727  0  0.646012  0  0.276829  0.333475  0  1.032412  0
H  H39  1  0.67874867  0.26936483  0.68556764  1  0  0.383653  0  0.935772  0  0  0.341416  0  1.021169  0  0  0.352466  0  1.005494  0  0.646036  0  0.276926  0.333639  0  1.032177  0
H  H40  1  0.83821361  0.97157592  0.82797885  1  0  0.406432  0  0.905792  0  0  0.373014  0  0.974727  0  0  0.384527  0  0.957977  0  0.656141  0  0.278937  0.364898  0  0.986505  0
H  H41  1  0.16178049  0.52841734  0.32797582  1  0  0.406317  0  0.90594  0  0  0.372925  0  0.974853  0  0  0.38444  0  0.958097  0  0.655985  0  0.278894  0.36481  0  0.986629  0
H  H42  1  0.16178987  0.02842287  0.17202077  1  0  0.406438  0  0.905781  0  0  0.373022  0  0.974718  0  0  0.384536  0  0.957967  0  0.656117  0  0.27894  0.364905  0  0.986497  0
H  H43  1  0.83821881  0.47158145  0.67202381  1  0  0.406305  0  0.905965  0  0  0.372913  0  0.974873  0  0  0.384426  0  0.958122  0  0.656  0  0.278902  0.364796  0  0.986651  0
H  H44  1  0.84134071  0.36180876  0.85904628  1  0  0.427879  0  0.843901  0  0  0.399572  0  0.915549  0  0  0.408661  0  0.902159  0  0.644162  0  0.305021  0.393123  0  0.924947  0
H  H45  1  0.15865250  0.13819133  0.35904325  1  0  0.427811  0  0.843857  0  0  0.399515  0  0.915607  0  0  0.408606  0  0.902208  0  0.644105  0  0.304999  0.393066  0  0.924917  0
H  H46  1  0.15865581  0.63819003  0.14095334  1  0  0.427702  0  0.844183  0  0  0.399498  0  0.915635  0  0  0.408565  0  0.902273  0  0.644161  0  0.305013  0.393062  0  0.925044  0
H  H47  1  0.84134871  0.86180886  0.64095675  1  0  0.427824  0  0.843841  0  0  0.399528  0  0.91559  0  0  0.408619  0  0.902192  0  0.644103  0  0.304998  0.393079  0  0.924901  0
H  H48  1  0.65933508  0.43752996  0.86830408  1  0  0.435453  0  0.862998  0  0  0.403452  0  0.927618  0  0  0.414001  0  0.912503  0  0.638776  0  0.295034  0.396031  0  0.938209  0
H  H49  1  0.34065622  0.06246873  0.36830295  1  0  0.435384  0  0.863079  0  0  0.403388  0  0.927698  0  0  0.413941  0  0.912579  0  0.638802  0  0.295008  0.395967  0  0.93829  0
H  H50  1  0.34066144  0.56246882  0.13169516  1  0  0.435413  0  0.863038  0  0  0.403426  0  0.927641  0  0  0.413975  0  0.912526  0  0.638794  0  0.295028  0.396006  0  0.938231  0
H  H51  1  0.65934309  0.93753006  0.63169705  1  0  0.435386  0  0.863076  0  0  0.403394  0  0.927689  0  0  0.413947  0  0.912569  0  0.638804  0  0.295002  0.395972  0  0.938281  0
C  C52  1  0.39766239  0.04468299  0.81203480  1  0  0.104183  0  3.643845  0  0  0.067779  0  3.913918  0  0  0.072678  0  3.925647  0  0.563194  0  0.061775  0.064011  0  3.906624  0
C  C53  1  0.60235011  0.45532414  0.31203252  1  0  0.104129  0  3.643858  0  0  0.067792  0  3.913895  0  0  0.072688  0  3.925619  0  0.563659  0  0.061807  0.064023  0  3.906602  0
C  C54  1  0.60233604  0.95531720  0.18796444  1  0  0.104262  0  3.643803  0  0  0.06785  0  3.913887  0  0  0.072749  0  3.925617  0  0.562569  0  0.061777  0.064084  0  3.906594  0
C  C55  1  0.39765249  0.54467606  0.68796710  1  0  0.104113  0  3.643905  0  0  0.067734  0  3.913933  0  0  0.072631  0  3.925658  0  0.563343  0  0.061789  0.063963  0  3.906639  0
C  C56  1  0.31206748  0.98752107  0.65387210  1  0  0.654363  0  3.940551  0  0  0.594662  0  4.255862  0  0  0.630182  0  4.244377  0  1.650285  0  0.21561  0.570431  0  4.262826  0
C  C57  1  0.68792812  0.51248766  0.15386945  1  0  0.654337  0  3.94043  0  0  0.59468  0  4.255684  0  0  0.6302  0  4.244196  0  1.650334  0  0.215613  0.570451  0  4.262645  0
C  C58  1  0.68793270  0.01247631  0.34612752  1  0  0.654415  0  3.940455  0  0  0.594702  0  4.255792  0  0  0.630222  0  4.244304  0  1.650288  0  0.215624  0.57047  0  4.262756  0
C  C59  1  0.31207067  0.48750973  0.84612941  1  0  0.654304  0  3.940644  0  0  0.594588  0  4.255962  0  0  0.630108  0  4.244479  0  1.650497  0  0.215651  0.570363  0  4.262917  0
C  C60  1  0.32897864  0.00288110  0.71109094  1  0  0.070064  0  3.668971  0  0  0.064643  0  3.921303  0  0  0.066553  0  3.935588  0  0.555888  0  0.131443  0.062787  0  3.91233  0
C  C61  1  0.67102463  0.49712744  0.21108828  1  0  0.069903  0  3.669322  0  0  0.064532  0  3.92151  0  0  0.06645  0  3.935783  0  0.555723  0  0.131394  0.062667  0  3.912544  0
C  C62  1  0.67102205  0.99711769  0.28890831  1  0  0.070038  0  3.668903  0  0  0.064599  0  3.921234  0  0  0.06651  0  3.935516  0  0.55586  0  0.131402  0.062743  0  3.912261  0
C  C63  1  0.32897292  0.50287416  0.78891096  1  0  0.070058  0  3.669288  0  0  0.064663  0  3.921475  0  0  0.066578  0  3.935754  0  0.555665  0  0.131432  0.062794  0  3.912507  0
C  C64  1  0.01253752  0.71997011  0.73190364  1  0  0.630427  0  3.91531  0  0  0.573372  0  4.222069  0  0  0.60684  0  4.215518  0  1.610007  0  0.207681  0.550858  0  4.225703  0
C  C65  1  0.98746747  0.78004143  0.23190630  1  0  0.630779  0  3.915115  0  0  0.573733  0  4.221762  0  0  0.607202  0  4.215207  0  1.61008  0  0.207901  0.551219  0  4.225397  0
C  C66  1  0.98746318  0.28002868  0.26809560  1  0  0.630543  0  3.915273  0  0  0.573499  0  4.221975  0  0  0.606968  0  4.21542  0  1.610002  0  0.207728  0.550985  0  4.225609  0
C  C67  1  0.01253286  0.21996017  0.76809257  1  0  0.630613  0  3.915373  0  0  0.573546  0  4.222  0  0  0.607017  0  4.215452  0  1.610087  0  0.207871  0.55103  0  4.225635  0
C  C68  1  0.19630571  0.88432893  0.74618892  1  0  0.03915  0  3.696251  0  0  0.037017  0  3.941049  0  0  0.034887  0  3.959892  0  0.498522  0  0.115578  0.037938  0  3.928951  0
C  C69  1  0.80369407  0.61567980  0.24618475  1  0  0.038987  0  3.69645  0  0  0.036884  0  3.941117  0  0  0.034753  0  3.959954  0  0.498302  0  0.115596  0.037807  0  3.929017  0
C  C70  1  0.80369360  0.11566986  0.25381070  1  0  0.039109  0  3.696349  0  0  0.037029  0  3.94105  0  0  0.034899  0  3.95989  0  0.49859  0  0.115565  0.037952  0  3.92895  0
C  C71  1  0.19630781  0.38432602  0.75381411  1  0  0.038964  0  3.696638  0  0  0.036951  0  3.941165  0  0  0.03482  0  3.960008  0  0.49831  0  0.115557  0.037875  0  3.92906  0
C  C72  1  0.52649723  0.16420696  0.77702475  1  0  0.10827  0  3.644483  0  0  0.073493  0  3.914225  0  0  0.078443  0  3.925501  0  0.480677  0  0.063015  0.070068  0  3.907122  0
C  C73  1  0.47351197  0.33579876  0.27702286  1  0  0.10813  0  3.644289  0  0  0.073282  0  3.914067  0  0  0.078253  0  3.925352  0  0.480528  0  0.06288  0.069857  0  3.906964  0
C  C74  1  0.47350120  0.83579323  0.22297525  1  0  0.108261  0  3.644433  0  0  0.073479  0  3.914191  0  0  0.078427  0  3.925463  0  0.480957  0  0.063028  0.070055  0  3.907084  0
C  C75  1  0.52648924  0.66420144  0.72297714  1  0  0.108054  0  3.644421  0  0  0.073309  0  3.914084  0  0  0.078278  0  3.92537  0  0.480778  0  0.062872  0.069883  0  3.90698  0
C  C76  1  0.11547040  0.05619050  0.91746219  1  0  0.183132  0  3.614338  0  0  0.102764  0  3.881523  0  0  0.116905  0  3.892835  0  1.000936  0  0.166482  0.093674  0  3.873745  0
C  C77  1  0.88452715  0.44381382  0.41746181  1  0  0.18305  0  3.614474  0  0  0.102633  0  3.881637  0  0  0.116773  0  3.892952  0  1.001336  0  0.166469  0.093555  0  3.873849  0
C  C78  1  0.88452891  0.94380829  0.08253819  1  0  0.183081  0  3.614412  0  0  0.102729  0  3.88155  0  0  0.116869  0  3.892862  0  1.001196  0  0.16647  0.09364  0  3.87377  0
C  C79  1  0.11547701  0.55619060  0.58253933  1  0  0.18313  0  3.614434  0  0  0.102765  0  3.881559  0  0  0.116906  0  3.892872  0  1.001262  0  0.166523  0.093684  0  3.873773  0
C  C80  1  0.19156693  0.84031805  0.95440469  1  0  0.192845  0  3.724984  0  0  0.140566  0  4.017819  0  0  0.15199  0  4.029898  0  0.974973  0  0.144987  0.133072  0  4.009593  0
C  C81  1  0.80843548  0.65968646  0.45440469  1  0  0.19287  0  3.725114  0  0  0.14059  0  4.017942  0  0  0.152017  0  4.030017  0  0.974871  0  0.144985  0.133095  0  4.009718  0
C  C82  1  0.80843289  0.15968214  0.04559569  1  0  0.192828  0  3.725079  0  0  0.140549  0  4.017916  0  0  0.151972  0  4.029996  0  0.974922  0  0.144978  0.133054  0  4.009691  0
C  C83  1  0.19156537  0.34031655  0.54559569  1  0  0.192897  0  3.725047  0  0  0.14061  0  4.017887  0  0  0.152035  0  4.029964  0  0.974908  0  0.14497  0.133115  0  4.009663  0
C  C84  1  0.25044990  0.30814221  0.98294151  1  0  -0.00779  0  3.61912  0  0  -0.085339  0  3.879814  0  0  -0.081822  0  3.891155  0  0.316182  0  -0.046804  -0.087549  0  3.87218  0
C  C85  1  0.74954940  0.19185929  0.48294113  1  0  -0.007653  0  3.619092  0  0  -0.085361  0  3.879929  0  0  -0.081845  0  3.891275  0  0.316387  0  -0.046809  -0.087552  0  3.872269  0
C  C86  1  0.74954992  0.69185798  0.01705849  1  0  -0.007764  0  3.619168  0  0  -0.085344  0  3.87986  0  0  -0.08183  0  3.891205  0  0.316112  0  -0.046801  -0.087545  0  3.872219  0
C  C87  1  0.25045145  0.80814371  0.51705963  1  0  -0.007737  0  3.619142  0  0  -0.085371  0  3.879939  0  0  -0.081854  0  3.891282  0  0.31631  0  -0.046802  -0.08756  0  3.872269  0
C  C88  1  0.47210754  0.39591789  0.99370646  1  0  -0.120959  0  3.673242  0  0  -0.16212  0  3.936233  0  0  -0.163646  0  3.94973  0  0.006869  0  -0.162075  -0.160832  0  3.926806  0
C  C89  1  0.52789454  0.10408361  0.49370608  1  0  -0.120975  0  3.67324  0  0  -0.162073  0  3.936214  0  0  -0.163597  0  3.949707  0  0.00686  0  -0.162053  -0.160798  0  3.926787  0
C  C90  1  0.52789176  0.60408090  0.00629354  1  0  -0.121044  0  3.673266  0  0  -0.162154  0  3.936229  0  0  -0.163675  0  3.94972  0  -0.022258  0  -0.162071  -0.160875  0  3.926805  0
C  C91  1  0.47210962  0.89592080  0.50629392  1  0  -0.121072  0  3.673267  0  0  -0.162166  0  3.936231  0  0  -0.163697  0  3.94974  0  -0.022101  0  -0.162072  -0.160877  0  3.926791  0
N  N92  1  0.23433190  0.90765329  0.79617149  1  0  -0.296435  0  3.295981  0  0  -0.234558  0  3.564031  0  0  -0.246434  0  3.579953  0  -1.21606  0  -0.297792  -0.22639  0  3.553614  0
N  N93  1  0.76567432  0.59235404  0.29616883  1  0  -0.296462  0  3.295997  0  0  -0.23465  0  3.564087  0  0  -0.246524  0  3.580009  0  -1.216065  0  -0.297897  -0.226479  0  3.553666  0
N  N94  1  0.76566688  0.09234410  0.20382851  1  0  -0.296502  0  3.296053  0  0  -0.234632  0  3.564068  0  0  -0.246505  0  3.579985  0  -1.216058  0  -0.297776  -0.226468  0  3.553653  0
N  N95  1  0.23432983  0.40765038  0.70383079  1  0  -0.296374  0  3.295995  0  0  -0.234568  0  3.564021  0  0  -0.246446  0  3.579948  0  -1.21609  0  -0.297822  -0.22639  0  3.553591  0
N  N96  1  0.49262488  0.14177126  0.72730488  1  0  -0.261783  0  3.126258  0  0  -0.210886  0  3.373545  0  0  -0.220147  0  3.387348  0  -1.191518  0  -0.280925  -0.204644  0  3.36465  0
N  N97  1  0.50738154  0.35823446  0.22730223  1  0  -0.261404  0  3.125861  0  0  -0.21054  0  3.37318  0  0  -0.219796  0  3.386966  0  -1.191485  0  -0.280741  -0.204296  0  3.364286  0
N  N98  1  0.50737494  0.85822893  0.27269512  1  0  -0.261799  0  3.126262  0  0  -0.210903  0  3.373561  0  0  -0.220164  0  3.387363  0  -1.191571  0  -0.280934  -0.204661  0  3.364665  0
N  N99  1  0.49261828  0.64176573  0.77269777  1  0  -0.261392  0  3.125841  0  0  -0.210567  0  3.373131  0  0  -0.219823  0  3.386918  0  -1.19148  0  -0.280734  -0.204321  0  3.364235  0
N  N100  1  0.10880382  0.87891686  0.91094841  1  0  -0.417454  0  3.227578  0  0  -0.343468  0  3.525916  0  0  -0.366279  0  3.538608  0  -1.24481  0  -0.348529  -0.328083  0  3.516924  0
N  N101  1  0.89119720  0.62108765  0.41094803  1  0  -0.417373  0  3.227542  0  0  -0.343373  0  3.525879  0  0  -0.366184  0  3.538573  0  -1.244824  0  -0.348479  -0.327988  0  3.516885  0
N  N102  1  0.89119549  0.12108193  0.08905159  1  0  -0.417432  0  3.227567  0  0  -0.343448  0  3.525905  0  0  -0.366259  0  3.538598  0  -1.244768  0  -0.348525  -0.328062  0  3.516913  0
N  N103  1  0.10880747  0.37891817  0.58905235  1  0  -0.417402  0  3.227599  0  0  -0.343422  0  3.525944  0  0  -0.366233  0  3.538639  0  -1.244803  0  -0.348485  -0.328038  0  3.516951  0
N  N104  1  0.19867457  0.11860157  0.96248057  1  0  0.049022  0  3.556225  0  0  0.169144  0  3.747016  0  0  0.160403  0  3.768215  0  -0.830301  0  -0.129708  0.174697  0  3.732763  0
N  N105  1  0.80132524  0.38140134  0.46248019  1  0  0.049127  0  3.556106  0  0  0.169243  0  3.746994  0  0  0.160501  0  3.768196  0  -0.830763  0  -0.129663  0.174793  0  3.732736  0
N  N106  1  0.80132525  0.88139862  0.03752018  1  0  0.049088  0  3.556267  0  0  0.169214  0  3.747056  0  0  0.160473  0  3.768257  0  -0.830764  0  -0.129681  0.174766  0  3.732801  0
N  N107  1  0.19867613  0.61860308  0.53752094  1  0  0.049111  0  3.556186  0  0  0.169168  0  3.747078  0  0  0.160426  0  3.768278  0  -0.830779  0  -0.12974  0.174717  0  3.732821  0
N  N108  1  0.24748228  0.98236913  0.98697055  1  0  -0.26359  0  2.826644  0  0  -0.271968  0  3.094798  0  0  -0.27942  0  3.107359  0  -0.645829  0  -0.22535  -0.267022  0  3.08644  0
N  N109  1  0.75251874  0.51763538  0.48697055  1  0  -0.263665  0  2.826707  0  0  -0.272029  0  3.094849  0  0  -0.279481  0  3.107407  0  -0.645588  0  -0.225377  -0.267086  0  3.086495  0
N  N110  1  0.75251754  0.01763107  0.01303021  1  0  -0.263595  0  2.826714  0  0  -0.271974  0  3.094869  0  0  -0.279426  0  3.107431  0  -0.645594  0  -0.225324  -0.267029  0  3.086513  0
N  N111  1  0.24747985  0.48236903  0.51303021  1  0  -0.26367  0  2.826708  0  0  -0.272019  0  3.094862  0  0  -0.27947  0  3.107422  0  -0.645542  0  -0.225329  -0.267075  0  3.086509  0
O  O112  1  0.92605284  0.60894318  0.76742125  1  0  -0.618854  0  2.019125  0  0  -0.563145  0  2.278102  0  0  -0.590183  0  2.268883  0  -1.163695  0  -0.309637  -0.544274  0  2.283815  0
O  O113  1  0.07394993  0.89105852  0.26741443  1  0  -0.618859  0  2.019649  0  0  -0.563218  0  2.278674  0  0  -0.590237  0  2.26943  0  -1.163958  0  -0.30974  -0.544354  0  2.284389  0
O  O114  1  0.07394821  0.39105279  0.23257799  1  0  -0.618945  0  2.019135  0  0  -0.563227  0  2.278084  0  0  -0.590262  0  2.268862  0  -1.163767  0  -0.309671  -0.544357  0  2.283798  0
O  O115  1  0.92605180  0.10894309  0.73258444  1  0  -0.61862  0  2.01958  0  0  -0.563031  0  2.27869  0  0  -0.590038  0  2.269413  0  -1.163975  0  -0.309652  -0.544169  0  2.284411  0
O  O116  1  0.41566461  0.90379355  0.63283310  1  0  -0.625323  0  1.967145  0  0  -0.571991  0  2.197396  0  0  -0.600517  0  2.190118  0  -1.174756  0  -0.307357  -0.551227  0  2.201421  0
O  O117  1  0.58433868  0.59620956  0.13283045  1  0  -0.625231  0  1.967299  0  0  -0.57195  0  2.197567  0  0  -0.600476  0  2.190292  0  -1.174941  0  -0.307319  -0.551184  0  2.201582  0
O  O118  1  0.58433521  0.09620665  0.36716614  1  0  -0.625314  0  1.967087  0  0  -0.571971  0  2.197343  0  0  -0.600498  0  2.190061  0  -1.174723  0  -0.307343  -0.551204  0  2.201361  0
O  O119  1  0.41565593  0.40378783  0.86716880  1  0  -0.625325  0  1.96753  0  0  -0.571933  0  2.197722  0  0  -0.600458  0  2.190451  0  -1.174905  0  -0.30735  -0.551159  0  2.201718  0
O  O120  1  0.96163138  0.70174145  0.68547781  1  0  -0.634012  0  1.992754  0  0  -0.57185  0  2.214348  0  0  -0.597229  0  2.205225  0  -1.182027  0  -0.308367  -0.554127  0  2.220095  0
O  O121  1  0.03837397  0.79826728  0.18547060  1  0  -0.634383  0  1.992217  0  0  -0.572155  0  2.213703  0  0  -0.597537  0  2.204578  0  -1.181848  0  -0.308484  -0.554427  0  2.219467  0
O  O122  1  0.03836896  0.29826015  0.31452144  1  0  -0.633998  0  1.992739  0  0  -0.571853  0  2.21432  0  0  -0.597238  0  2.205205  0  -1.18198  0  -0.308371  -0.554131  0  2.220069  0
O  O123  1  0.96162724  0.20173291  0.81452864  1  0  -0.634479  0  1.992344  0  0  -0.572205  0  2.213829  0  0  -0.59758  0  2.204686  0  -1.1818  0  -0.308542  -0.554478  0  2.219585  0
O  O124  1  0.20654147  0.06644658  0.63130624  1  0  -0.620282  0  2.032623  0  0  -0.56187  0  2.29856  0  0  -0.590658  0  2.285818  0  -1.167198  0  -0.308673  -0.541285  0  2.3064  0
O  O125  1  0.79346479  0.43355493  0.13130283  1  0  -0.620207  0  2.032298  0  0  -0.561836  0  2.298241  0  0  -0.590631  0  2.285501  0  -1.167075  0  -0.308626  -0.541247  0  2.306076  0
O  O126  1  0.79345835  0.93355362  0.36869376  1  0  -0.62027  0  2.032707  0  0  -0.561851  0  2.298653  0  0  -0.59064  0  2.28591  0  -1.167208  0  -0.308652  -0.541267  0  2.306493  0
O  O127  1  0.20653209  0.56644105  0.86869755  1  0  -0.620227  0  2.032318  0  0  -0.561863  0  2.298302  0  0  -0.590658  0  2.285565  0  -1.167183  0  -0.308671  -0.541276  0  2.306134  0
O  O128  1  0.78580905  0.83724573  0.83919260  1  0  -0.825024  0  1.94036  0  0  -0.761796  0  2.149682  0  0  -0.782843  0  2.114642  0  -1.307612  0  -0.591422  -0.746896  0  2.173948  0
O  O129  1  0.21418573  0.66275316  0.33918995  1  0  -0.825069  0  1.9403  0  0  -0.761875  0  2.149549  0  0  -0.782917  0  2.114516  0  -1.307503  0  -0.591443  -0.746975  0  2.173814  0
O  O130  1  0.21419268  0.16275587  0.16080740  1  0  -0.825053  0  1.940347  0  0  -0.76183  0  2.149656  0  0  -0.782877  0  2.114616  0  -1.307586  0  -0.591429  -0.74693  0  2.173922  0
O  O131  1  0.78581270  0.33724704  0.66081005  1  0  -0.82506  0  1.940332  0  0  -0.761863  0  2.149593  0  0  -0.782908  0  2.114556  0  -1.307504  0  -0.591445  -0.746961  0  2.173855  0
O  O132  1  0.80367866  0.46228995  0.87444032  1  0  -0.805137  0  1.877549  0  0  -0.740147  0  2.078211  0  0  -0.760235  0  2.044914  0  -1.244288  0  -0.569994  -0.726072  0  2.101254  0
O  O133  1  0.19631821  0.03770874  0.37443880  1  0  -0.805012  0  1.877539  0  0  -0.740021  0  2.078238  0  0  -0.760107  0  2.044945  0  -1.24429  0  -0.569924  -0.725944  0  2.101199  0
O  O134  1  0.19631734  0.53770743  0.12555930  1  0  -0.804929  0  1.877858  0  0  -0.740018  0  2.078378  0  0  -0.760079  0  2.045134  0  -1.244307  0  -0.569972  -0.725964  0  2.101398  0
O  O135  1  0.80368301  0.96229145  0.62556082  1  0  -0.805019  0  1.877513  0  0  -0.740024  0  2.078194  0  0  -0.760112  0  2.044901  0  -1.244292  0  -0.569912  -0.725947  0  2.101156  0
