# generated using pymatgen
data_ZnH29C29I5N3O7
_symmetry_space_group_name_H-M   'P 1'
_cell_length_a   14.58518397
_cell_length_b   15.91275653
_cell_length_c   19.31094163
_cell_angle_alpha   89.87758722
_cell_angle_beta   89.90886388
_cell_angle_gamma   89.86782982
_symmetry_Int_Tables_number   1
_chemical_formula_structural   ZnH29C29I5N3O7
_chemical_formula_sum   'Zn2 H58 C58 I10 N6 O14'
_cell_volume   4481.85795428
_cell_formula_units_Z   2
loop_
 _symmetry_equiv_pos_site_id
 _symmetry_equiv_pos_as_xyz
  1  'x, y, z'
loop_
 _atom_site_type_symbol
 _atom_site_label
 _atom_site_symmetry_multiplicity
 _atom_site_fract_x
 _atom_site_fract_y
 _atom_site_fract_z
 _atom_site_occupancy
 _atom_site_pbe_bader_charge
 _atom_site_pbe_bader_spin_density
 _atom_site_pbe_cm5_charge
 _atom_site_pbe_ddec_charge
 _atom_site_pbe_ddec_spin_density
 _atom_site_pbe_ddec_sum_bond_order
 _atom_site_pbe_magmom
Zn  Zn0  1  0.40469066  0.50132841  0.49607654  1  1.333143  0  0.696497  0.896774  0  2.436943  0
Zn  Zn1  1  0.59818469  0.50201379  0.49706980  1  1.318381  0  0.690014  0.897737  0  2.417337  0
H  H2  1  0.06693460  0.58985737  0.42920802  1  0.048988  0  0.113636  0.056517  0  1.014341  0
H  H3  1  0.91875753  0.61665074  0.45071035  1  0.099451  0  0.112802  0.060584  0  0.998177  0
H  H4  1  0.91001604  0.38839913  0.44486960  1  0.077242  0  0.100595  0.055591  0  1.038544  0
H  H5  1  0.05254928  0.36906596  0.48449893  1  0.096746  0  0.097378  0.064182  0  1.031856  0
H  H6  1  0.41606945  0.60895870  0.84842931  1  0.090934  0  0.106507  0.118375  0  1.002203  0
H  H7  1  0.57446425  0.37991617  0.84507192  1  0.109515  0  0.106967  0.114908  0  1.010759  0
H  H8  1  0.42538382  0.61439332  0.27572582  1  0.099684  0  0.108772  0.123954  0  0.993644  0
H  H9  1  0.57654795  0.38265234  0.28091934  1  0.081528  0  0.109336  0.126791  0  0.991553  0
H  H10  1  0.51308330  0.06099293  0.40688537  1  0.025387  0  0.100712  0.109258  0  0.958936  0
H  H11  1  0.63448288  0.08361125  0.49562643  1  0.064552  0  0.101842  0.115502  0  0.9589  0
H  H12  1  0.45922058  0.92058604  0.40428353  1  0.075754  0  0.102739  0.114895  0  0.958127  0
H  H13  1  0.61243409  0.94298466  0.45894884  1  0.046849  0  0.100121  0.106587  0  0.9661  0
H  H14  1  0.63042707  0.91971165  0.54733227  1  0.037446  0  0.085508  0.092885  0  1.039146  0
H  H15  1  0.36221036  0.94383679  0.45595209  1  0.068174  0  0.081534  0.085472  0  1.043696  0
H  H16  1  0.60508738  0.06066429  0.58254562  1  0.066464  0  0.080517  0.092017  0  1.023093  0
H  H17  1  0.39694634  0.08440398  0.42516872  1  0.060039  0  0.089784  0.104778  0  1.003127  0
H  H18  1  0.83759217  0.50208277  0.30292427  1  0.067194  0  0.109989  0.083934  0  0.948455  0
H  H19  1  0.80176363  0.43190875  0.36911079  1  0.062049  0  0.099882  0.068594  0  0.985768  0
H  H20  1  0.95757130  0.40158177  0.26437142  1  0.021731  0  0.093791  0.08951  0  0.97506  0
H  H21  1  0.93239453  0.33310781  0.33361164  1  0.035745  0  0.092329  0.08957  0  0.975242  0
H  H22  1  0.77232832  0.31090011  0.28665065  1  0.043037  0  0.083798  0.110088  0  1.008926  0
H  H23  1  0.85651703  0.28339327  0.22418345  1  0.035852  0  0.088976  0.119643  0  0.997751  0
H  H24  1  0.79624269  0.37984537  0.21672901  1  0.031309  0  0.081564  0.109243  0  1.016787  0
H  H25  1  0.17495710  0.52140055  0.37430906  1  0.035197  0  0.091334  0.049352  0  1.025253  0
H  H26  1  0.06735722  0.51221169  0.33011451  1  0.037696  0  0.093641  0.056449  0  1.024194  0
H  H27  1  0.23704389  0.40094422  0.30865877  1  0.030543  0  0.097949  0.0988  0  0.959245  0
H  H28  1  0.13224295  0.39051070  0.26348709  1  0.024087  0  0.091654  0.081527  0  0.980642  0
H  H29  1  0.15194528  0.53665503  0.21316050  1  0.016938  0  0.081621  0.105068  0  1.007999  0
H  H30  1  0.24807538  0.47279463  0.19284247  1  0.035101  0  0.088074  0.122822  0  0.996998  0
H  H31  1  0.25608539  0.54804534  0.25987287  1  0.021723  0  0.079882  0.108009  0  1.024989  0
H  H32  1  0.95616827  0.52312356  0.72568639  1  0.065604  0  0.106196  0.078282  0  0.997541  0
H  H33  1  0.94507457  0.41471787  0.70360876  1  0.069239  0  0.089873  0.061459  0  1.02008  0
H  H34  1  0.78347629  0.53565701  0.72798812  1  0.046821  0  0.096256  0.099145  0  0.953453  0
H  H35  1  0.77448486  0.42761649  0.70889175  1  0.043566  0  0.073871  0.067378  0  1.053291  0
H  H36  1  0.85628663  0.39161790  0.82091724  1  0.017388  0  0.085311  0.111612  0  0.999918  0
H  H37  1  0.75585178  0.45174903  0.83669046  1  0.050468  0  0.086848  0.119099  0  1.014614  0
H  H38  1  0.86514072  0.50027570  0.84059897  1  0.009315  0  0.084586  0.108205  0  1.002494  0
H  H39  1  0.18034403  0.61346547  0.62371137  1  0.105535  0  0.102307  0.081669  0  1.004014  0
H  H40  1  0.20887188  0.50636253  0.64337893  1  0.075768  0  0.090031  0.06827  0  1.039975  0
H  H41  1  0.12820717  0.52001604  0.75763643  1  0.044276  0  0.091334  0.085453  0  0.977596  0
H  H42  1  0.22706393  0.58272728  0.74909081  1  0.047579  0  0.086289  0.08569  0  1.009591  0
H  H43  1  0.13275510  0.71095748  0.72730015  1  0.047084  0  0.081746  0.108225  0  1.010371  0
H  H44  1  0.09774834  0.66315575  0.80616940  1  0.035184  0  0.087296  0.115458  0  0.999323  0
H  H45  1  0.03023638  0.65130386  0.73021287  1  0.016079  0  0.086671  0.11816  0  1.006807  0
H  H46  1  0.83191739  0.72079821  0.59522467  1  0.073602  0  0.110934  0.08545  0  0.946297  0
H  H47  1  0.79950663  0.67403810  0.51571879  1  0.041748  0  0.098804  0.065472  0  0.992834  0
H  H48  1  0.94360921  0.81302766  0.53274141  1  0.028203  0  0.093791  0.088798  0  0.97288  0
H  H49  1  0.91286878  0.76702488  0.45285666  1  0.015378  0  0.086383  0.072823  0  0.99356  0
H  H50  1  0.74907696  0.81758059  0.46884386  1  0.043246  0  0.088636  0.11822  0  1.000296  0
H  H51  1  0.82769477  0.90292457  0.46915426  1  0.064276  0  0.087556  0.114974  0  0.99744  0
H  H52  1  0.78076064  0.86524210  0.54816417  1  0.024561  0  0.086331  0.112708  0  1.006815  0
H  H53  1  0.13049081  0.77440827  0.51177323  1  0.046153  0  0.098551  0.068359  0  0.979603  0
H  H54  1  0.07530264  0.73146044  0.43818691  1  0.027733  0  0.094768  0.051549  0  0.995382  0
H  H55  1  0.27584834  0.69976833  0.48085675  1  0.08856  0  0.090008  0.101048  0  1.00021  0
H  H56  1  0.22295925  0.65444468  0.40797926  1  -0.012989  0  0.085699  0.079037  0  0.99687  0
H  H57  1  0.19855740  0.79759059  0.35510461  1  0.01662  0  0.08053  0.103389  0  1.006595  0
H  H58  1  0.31619621  0.78210544  0.37573775  1  0.029838  0  0.088004  0.121641  0  0.994605  0
H  H59  1  0.24621444  0.84525105  0.43001537  1  0.020276  0  0.075251  0.097701  0  1.044426  0
C  C60  1  0.50077985  0.66307576  0.49912768  1  1.679112  0  0.217674  0.666886  0  4.246021  0
C  C61  1  0.49323898  0.48982825  0.93017777  1  0.975484  0  0.247112  0.264322  0  3.970319  0
C  C62  1  0.45672923  0.55957783  0.17597155  1  -0.199684  0  -0.034572  0.048574  0  3.871472  0
C  C63  1  0.53718016  0.42674542  0.17906893  1  -0.238032  0  -0.035404  0.050728  0  3.868568  0
C  C64  1  0.45757168  0.56262826  0.24800110  1  0.03813  0  -0.089614  -0.142041  0  3.974277  0
C  C65  1  0.54270591  0.43168822  0.25094903  1  0.012344  0  -0.090104  -0.141139  0  3.960296  0
C  C66  1  0.50181174  0.49923081  0.28527018  1  0.004579  0  -0.000201  0.027572  0  3.939512  0
C  C67  1  0.49559282  0.49125630  0.13948865  1  0.056374  0  -0.014305  -0.0512  0  3.964856  0
C  C68  1  0.43603389  0.95529460  0.45016274  1  -0.072492  0  -0.161106  -0.193129  0  3.856716  0
C  C69  1  0.58666243  0.95495549  0.51154746  1  -0.013618  0  -0.163524  -0.19349  0  3.865197  0
C  C70  1  0.58600191  0.04889091  0.52839890  1  -0.061352  0  -0.164417  -0.196707  0  3.862326  0
C  C71  1  0.45685953  0.04931780  0.44358541  1  -0.011946  0  -0.16081  -0.188244  0  3.850647  0
C  C72  1  0.49855326  0.25053047  0.50255051  1  0.216711  0  -0.05088  -0.175604  0  3.954765  0
C  C73  1  0.48726789  0.91969845  0.51429041  1  0.121018  0  -0.010383  0.146137  0  3.882902  0
C  C74  1  0.48845186  0.08444473  0.51485716  1  0.124863  0  -0.008846  0.149404  0  3.875974  0
C  C75  1  0.49800663  0.50035378  0.63063619  1  1.656042  0  0.201314  0.588907  0  4.24346  0
C  C76  1  0.42275187  0.05112064  0.57366535  1  -0.248546  0  -0.038901  0.02695  0  3.362289  0
C  C77  1  0.43779775  0.95302390  0.58133742  1  -0.237587  0  -0.03389  0.034687  0  3.347238  0
C  C78  1  0.49080403  0.17533373  0.51130973  1  -0.505189  0  -0.048234  -0.05859  0  4.085954  0
C  C79  1  0.49026580  0.82894767  0.51105713  1  -0.503978  0  -0.046482  -0.059771  0  4.090234  0
C  C80  1  0.49815773  0.75357939  0.50343791  1  0.212133  0  -0.049713  -0.179766  0  3.957913  0
C  C81  1  0.95074211  0.59371645  0.49874075  1  0.516405  0  0.014209  0.081637  0  3.809359  0
C  C82  1  0.05664995  0.58598797  0.48559573  1  0.534486  0  0.01406  0.088615  0  3.80786  0
C  C83  1  0.94666900  0.44869180  0.44449644  1  0.504483  0  0.005287  0.073043  0  3.822864  0
C  C84  1  0.05017038  0.42895106  0.45585654  1  0.503581  0  0.005421  0.073157  0  3.837475  0
C  C85  1  0.91310275  0.50099377  0.50875935  1  0.170305  0  -0.001254  -0.076812  0  3.861786  0
C  C86  1  0.09050385  0.49601576  0.50738521  1  0.157266  0  -0.003279  -0.080282  0  3.848411  0
C  C87  1  0.05560316  0.47296280  0.58301588  1  0.541101  0  0.084184  0.146584  0  3.671295  0
C  C88  1  0.94626652  0.46275804  0.57858942  1  0.563319  0  0.093614  0.173735  0  3.669894  0
C  C89  1  0.18921636  0.49492168  0.50375670  1  0.906766  0  0.236401  0.32703  0  3.947248  0
C  C90  1  0.81413604  0.50278212  0.50778413  1  0.80465  0  0.239763  0.333725  0  3.918852  0
C  C91  1  0.50269852  0.34086904  0.49663627  1  1.679676  0  0.217315  0.669453  0  4.240361  0
C  C92  1  0.50340929  0.50293975  0.36290225  1  1.620826  0  0.217617  0.596817  0  4.180878  0
C  C93  1  0.45562945  0.56339192  0.74715468  1  -0.275925  0  -0.042696  0.046139  0  3.877702  0
C  C94  1  0.53926744  0.43249903  0.74524377  1  -0.224524  0  -0.039658  0.050872  0  3.881656  0
C  C95  1  0.45099059  0.55991681  0.81922466  1  0.131034  0  -0.090741  -0.153499  0  3.969856  0
C  C96  1  0.54052253  0.43076608  0.81729505  1  0.042921  0  -0.089851  -0.155073  0  3.981493  0
C  C97  1  0.49468199  0.49384510  0.85418272  1  -0.043669  0  -0.00514  0.039908  0  4.012282  0
C  C98  1  0.49781544  0.49898178  0.70878724  1  -0.008376  0  -0.013213  -0.060197  0  3.911015  0
C  C99  1  0.49368501  0.48803333  0.06319959  1  0.976581  0  0.229869  0.249652  0  4.018803  0
C  C100  1  0.86134783  0.45219896  0.33805359  1  0.373938  0  -0.066946  0.031215  0  3.883255  0
C  C101  1  0.90142226  0.37876559  0.29754331  1  -0.01469  0  -0.169977  -0.135151  0  3.974291  0
C  C102  1  0.82766746  0.33597583  0.25388901  1  -0.088072  0  -0.245218  -0.357208  0  3.987984  0
C  C103  1  0.12798108  0.47740352  0.34825830  1  0.400793  0  -0.078249  0.019439  0  3.907276  0
C  C104  1  0.17811156  0.43635580  0.28821865  1  0.006667  0  -0.166982  -0.124285  0  3.974515  0
C  C105  1  0.21013177  0.50205276  0.23565227  1  -0.055895  0  -0.245496  -0.352758  0  3.973634  0
C  C106  1  0.91092174  0.47649027  0.70176816  1  0.32958  0  -0.068617  0.036995  0  3.830787  0
C  C107  1  0.81710744  0.47433619  0.73555221  1  0.015474  0  -0.17399  -0.133644  0  3.974772  0
C  C108  1  0.82410541  0.45339996  0.81265874  1  -0.071861  0  -0.242232  -0.344553  0  3.964421  0
C  C109  1  0.16078689  0.55804199  0.65420804  1  0.293812  0  -0.073831  0.019855  0  3.818265  0
C  C110  1  0.15584422  0.57592682  0.73122706  1  -0.005803  0  -0.169664  -0.12915  0  3.978239  0
C  C111  1  0.10085750  0.65454562  0.74978565  1  -0.081491  0  -0.245406  -0.35059  0  3.970064  0
C  C112  1  0.85656538  0.70498207  0.54300688  1  0.401749  0  -0.067022  0.026137  0  3.887661  0
C  C113  1  0.88637891  0.78404363  0.50449415  1  -0.010007  0  -0.169943  -0.136382  0  3.994525  0
C  C114  1  0.80666605  0.84590069  0.49707386  1  -0.121797  0  -0.242219  -0.350313  0  3.970842  0
C  C115  1  0.13032937  0.72027056  0.47636235  1  0.403749  0  -0.068555  0.03438  0  3.898605  0
C  C116  1  0.22313728  0.71073448  0.44116935  1  -0.024094  0  -0.177288  -0.147491  0  3.97577  0
C  C117  1  0.24715630  0.78818547  0.39796308  1  -0.051759  0  -0.245628  -0.343816  0  3.97073  0
I  I118  1  0.40403111  0.67182927  0.69692345  1  0.131903  0  0.086742  -0.016531  0  1.612955  0
I  I119  1  0.59641268  0.32927304  0.69216155  1  0.14569  0  0.105617  0.024309  0  1.58168  0
I  I120  1  0.28168982  0.09072370  0.54409379  1  0.072654  0  0.048289  -0.046286  0  1.530223  0
I  I121  1  0.44605334  0.12405458  0.66801393  1  0.105043  0  0.04475  -0.053052  0  1.670733  0
I  I122  1  0.89290761  0.32364834  0.57725975  1  -0.088769  0  -0.017539  -0.172465  0  1.343011  0
I  I123  1  0.13331238  0.35349833  0.61477294  1  -0.023548  0  0.021937  -0.113301  0  1.400973  0
I  I124  1  0.39928454  0.66515463  0.12550015  1  0.129455  0  0.069106  -0.035273  0  1.363121  0
I  I125  1  0.58630139  0.31404096  0.13455880  1  0.126756  0  0.072904  -0.035583  0  1.378958  0
I  I126  1  0.31173541  0.88052766  0.60051169  1  0.084444  0  0.065624  -0.018628  0  1.624709  0
I  I127  1  0.52473975  0.91373285  0.67005277  1  0.079903  0  0.053361  -0.048303  0  1.586394  0
N  N128  1  0.57247633  0.46826805  0.96212694  1  -0.476435  0  -0.158178  -0.148845  0  3.178716  0
N  N129  1  0.41276443  0.50485976  0.96283176  1  -0.630328  0  -0.162942  -0.153257  0  3.170753  0
N  N130  1  0.57295906  0.46897162  0.03049495  1  -0.637852  0  -0.161413  -0.144665  0  3.256681  0
N  N131  1  0.41284596  0.50244342  0.03134395  1  -0.493833  0  -0.163271  -0.147841  0  3.255147  0
N  N132  1  0.26788766  0.49839663  0.49653354  1  -1.244933  0  -0.294716  -0.30287  0  3.136574  0
N  N133  1  0.73526333  0.50566302  0.50155932  1  -1.145592  0  -0.295534  -0.309403  0  3.129764  0
O  O134  1  0.42545255  0.62624188  0.51270436  1  -1.14197  0  -0.303978  -0.54313  0  2.336607  0
O  O135  1  0.57681435  0.62908041  0.48281778  1  -1.142427  0  -0.315101  -0.546613  0  2.251718  0
O  O136  1  0.42300424  0.48134515  0.60166559  1  -1.147492  0  -0.309196  -0.535132  0  2.30384  0
O  O137  1  0.57309156  0.51977518  0.60174039  1  -1.153154  0  -0.309911  -0.537704  0  2.313742  0
O  O138  1  0.42832929  0.37732758  0.47928324  1  -1.142654  0  -0.312607  -0.53762  0  2.264094  0
O  O139  1  0.57934146  0.37529552  0.50976608  1  -1.134618  0  -0.313708  -0.552798  0  2.305454  0
O  O140  1  0.42913528  0.52549016  0.39191859  1  -1.156433  0  -0.313376  -0.542228  0  2.282046  0
O  O141  1  0.57833449  0.48290842  0.39208908  1  -1.155736  0  -0.314782  -0.546633  0  2.291351  0
O  O142  1  0.92733525  0.49322586  0.38279341  1  -1.051976  0  -0.222893  -0.247811  0  2.49017  0
O  O143  1  0.10074344  0.41136545  0.39563931  1  -1.045564  0  -0.218498  -0.224973  0  2.468571  0
O  O144  1  0.89872055  0.50104361  0.62959129  1  -1.040917  0  -0.170008  -0.172772  0  2.61948  0
O  O145  1  0.06917155  0.53291524  0.63164990  1  -1.035234  0  -0.173921  -0.17466  0  2.61742  0
O  O146  1  0.93110539  0.64674887  0.55424702  1  -1.035091  0  -0.216089  -0.217471  0  2.5163  0
O  O147  1  0.10762153  0.64847922  0.51894352  1  -1.03644  0  -0.213631  -0.228816  0  2.524576  0
