# generated using pymatgen
data_Cu3H16(C12N13)2
_symmetry_space_group_name_H-M   'P 1'
_cell_length_a   13.30168824
_cell_length_b   14.56037336
_cell_length_c   15.73051628
_cell_angle_alpha   90.00005338
_cell_angle_beta   92.89245478
_cell_angle_gamma   90.00007872
_symmetry_Int_Tables_number   1
_chemical_formula_structural   Cu3H16(C12N13)2
_chemical_formula_sum   'Cu6 H32 C48 N52'
_cell_volume   3042.76641142
_cell_formula_units_Z   2
loop_
 _symmetry_equiv_pos_site_id
 _symmetry_equiv_pos_as_xyz
  1  'x, y, z'
loop_
 _atom_site_type_symbol
 _atom_site_label
 _atom_site_symmetry_multiplicity
 _atom_site_fract_x
 _atom_site_fract_y
 _atom_site_fract_z
 _atom_site_occupancy
 _atom_site_pbe_bader_charge
 _atom_site_pbe_bader_spin_density
 _atom_site_pbe_cm5_charge
 _atom_site_pbe_ddec_charge
 _atom_site_pbe_ddec_spin_density
 _atom_site_pbe_ddec_sum_bond_order
 _atom_site_pbe_magmom
Cu  Cu0  1  0.52949583  0.19798171  0.38863196  1  0.980207  0.489733  0.760009  0.53228  0.642889  2.523033  0.491
Cu  Cu1  1  0.97050301  0.69798277  0.11136845  1  0.980214  0.48972  0.759993  0.532232  0.642874  2.522945  0.491
Cu  Cu2  1  0.47050542  0.80201850  0.61136678  1  0.980333  0.489747  0.760044  0.532329  0.642907  2.523024  0.491
Cu  Cu3  1  0.02949298  0.30201882  0.88863388  1  0.980326  0.489754  0.760028  0.532281  0.642914  2.523136  0.491
Cu  Cu4  1  0.49999989  0.99999896  0.50000082  1  1.089749  0.599571  0.836282  0.607405  0.789784  2.539025  0.597
Cu  Cu5  1  0.99999860  0.49999861  0.99999904  1  1.089713  0.599569  0.836256  0.607356  0.789782  2.538973  0.597
H  H6  1  0.85148661  0.86965890  0.06267308  1  0.100508  0.001968  0.116424  0.080549  0.000823  1.006104  0.002
H  H7  1  0.73313097  0.97479284  0.13487731  1  0.094381  0.001172  0.115672  0.127111  0.00066  0.983993  0.001
H  H8  1  0.73278778  0.77990096  0.34150736  1  0.110858  0.000897  0.118769  0.131959  0.000439  0.987292  0.001
H  H9  1  0.85287104  0.68359646  0.26224608  1  0.134317  0.001756  0.116506  0.083751  0.000845  1.048757  0.001
H  H10  1  0.05750376  0.87818021  0.16655398  1  0.100518  0.002129  0.120891  0.085714  0.000853  0.981023  0.001
H  H11  1  0.18511106  0.93385474  0.27754527  1  0.126804  0.001294  0.120147  0.131592  0.000702  0.981841  0.001
H  H12  1  0.20834406  0.65520879  0.36969822  1  0.105335  0.001158  0.117397  0.126753  0.000638  0.983985  0.001
H  H13  1  0.08302035  0.60987259  0.25195524  1  0.103547  0.002241  0.12478  0.096565  0.001063  0.99408  0.001
H  H14  1  0.64851324  0.36965804  0.43732751  1  0.100476  0.001968  0.116425  0.080519  0.000823  1.006159  0.002
H  H15  1  0.76686905  0.47479206  0.36512402  1  0.094376  0.001172  0.11567  0.127091  0.00066  0.984015  0.001
H  H16  1  0.76721193  0.27990066  0.15849379  1  0.110503  0.000898  0.118777  0.131976  0.000439  0.987241  0.001
H  H17  1  0.64712777  0.18359678  0.23775431  1  0.134058  0.001757  0.116512  0.083748  0.000845  1.04877  0.001
H  H18  1  0.44249858  0.37818100  0.33344642  1  0.100474  0.002129  0.120861  0.085655  0.000853  0.981027  0.001
H  H19  1  0.31489062  0.43385526  0.22245324  1  0.12666  0.001294  0.12017  0.131613  0.000702  0.98185  0.001
H  H20  1  0.29165342  0.15520918  0.13030179  1  0.10528  0.001158  0.117397  0.126748  0.000638  0.983977  0.001
H  H21  1  0.41697781  0.10987120  0.24804348  1  0.103555  0.002241  0.12476  0.096573  0.001063  0.994089  0.001
H  H22  1  0.14851087  0.13034132  0.93732804  1  0.100454  0.001968  0.116387  0.080499  0.000823  1.006121  0.002
H  H23  1  0.26686878  0.02520875  0.86512390  1  0.094401  0.001172  0.115669  0.127086  0.00066  0.984022  0.001
H  H24  1  0.26721272  0.22009994  0.65849516  1  0.110515  0.000898  0.118801  0.131988  0.000439  0.987294  0.001
H  H25  1  0.14712795  0.31640375  0.73775510  1  0.134032  0.001756  0.116507  0.083762  0.000844  1.048753  0.001
H  H26  1  0.94249824  0.12181932  0.83344669  1  0.100496  0.002129  0.120892  0.085714  0.000853  0.980988  0.001
H  H27  1  0.81488869  0.06614616  0.72245467  1  0.126673  0.001294  0.120148  0.131644  0.000702  0.981819  0.001
H  H28  1  0.79165569  0.34479211  0.63030427  1  0.105351  0.001157  0.117414  0.126739  0.000638  0.983966  0.001
H  H29  1  0.91698015  0.39012762  0.74804664  1  0.103563  0.002242  0.124788  0.096609  0.001063  0.994061  0.001
H  H30  1  0.35148876  0.63034217  0.56267189  1  0.100454  0.001968  0.116395  0.080491  0.000823  1.006132  0.002
H  H31  1  0.23313145  0.52520747  0.63487596  1  0.094387  0.001172  0.115671  0.127095  0.00066  0.983995  0.001
H  H32  1  0.23278705  0.72009886  0.84150421  1  0.110523  0.000898  0.118784  0.131965  0.000439  0.987293  0.001
H  H33  1  0.35287047  0.81640343  0.76224493  1  0.134047  0.001757  0.116508  0.083766  0.000845  1.048777  0.001
H  H34  1  0.55750342  0.62181991  0.66655298  1  0.100588  0.002129  0.120915  0.085726  0.000853  0.980978  0.001
H  H35  1  0.68511213  0.56614702  0.77754492  1  0.126701  0.001294  0.120153  0.131619  0.000702  0.981793  0.001
H  H36  1  0.70834481  0.84479309  0.86969619  1  0.105338  0.001157  0.117408  0.126723  0.000638  0.983976  0.001
H  H37  1  0.58302117  0.89012696  0.75195388  1  0.103563  0.002241  0.124794  0.096627  0.001063  0.994074  0.001
C  C38  1  0.82473587  0.85345878  0.12528627  1  0.462242  -0.00019  0.042179  0.0823  -0.000543  3.979706  0.0
C  C39  1  0.75815351  0.91085976  0.16502468  1  0.020732  0.005681  -0.078555  -0.159567  0.003968  3.925547  0.004
C  C40  1  0.72354931  0.88530549  0.24447186  1  -0.071589  -0.002595  0.023984  0.091664  -0.003047  3.989151  -0.002
C  C41  1  0.75778929  0.80181797  0.27985898  1  0.014356  0.00476  -0.07215  -0.145763  0.003238  3.902575  0.004
C  C42  1  0.82505107  0.74892580  0.23660663  1  0.480212  -0.001096  0.044605  0.095859  -0.001458  3.930752  -0.001
C  C43  1  0.65644987  0.94299149  0.29139453  1  0.939229  0.004203  0.206045  0.213746  0.00327  4.069457  0.005
C  C44  1  0.09387802  0.83088477  0.21221319  1  0.498567  -0.000755  0.047631  0.088311  -0.00106  3.960066  0.0
C  C45  1  0.16417048  0.86161482  0.27382280  1  -0.062182  0.00588  -0.070312  -0.148735  0.004074  3.914427  0.004
C  C46  1  0.20786994  0.79827653  0.33191183  1  0.020821  -0.002414  0.02771  0.095134  -0.002915  3.981493  -0.002
C  C47  1  0.17695845  0.70629741  0.32534732  1  0.003726  0.005396  -0.071256  -0.149623  0.003762  3.912056  0.004
C  C48  1  0.10745423  0.68081859  0.26097398  1  0.463906  -0.001508  0.051568  0.098951  -0.001983  3.924093  -0.001
C  C49  1  0.28435686  0.82691942  0.39578319  1  0.931734  0.006306  0.210245  0.215546  0.005088  4.059375  0.007
C  C50  1  0.67526321  0.35345927  0.37471428  1  0.462283  -0.00019  0.042163  0.082293  -0.000544  3.97981  0.0
C  C51  1  0.74184716  0.41085960  0.33497726  1  0.020698  0.005682  -0.078535  -0.159517  0.003968  3.925589  0.004
C  C52  1  0.77644982  0.38530530  0.25552999  1  -0.071506  -0.002596  0.023975  0.091664  -0.003049  3.989167  -0.002
C  C53  1  0.74220971  0.30181770  0.22014216  1  0.014689  0.004761  -0.072167  -0.145786  0.003239  3.902476  0.004
C  C54  1  0.67494709  0.24892618  0.26339379  1  0.480471  -0.001097  0.044611  0.095838  -0.001459  3.93072  -0.001
C  C55  1  0.84355085  0.44298996  0.20860680  1  0.939212  0.004203  0.206117  0.213812  0.003271  4.069433  0.005
C  C56  1  0.40612125  0.33088409  0.28778895  1  0.498474  -0.000756  0.047681  0.088487  -0.001062  3.960069  0.0
C  C57  1  0.33583184  0.36161468  0.22617822  1  -0.062041  0.005881  -0.070377  -0.14886  0.004074  3.914574  0.004
C  C58  1  0.29212927  0.29827627  0.16808837  1  0.020896  -0.002415  0.027713  0.095095  -0.002917  3.98155  -0.002
C  C59  1  0.32304211  0.20629789  0.17465222  1  0.004013  0.005397  -0.071284  -0.149593  0.003763  3.912133  0.004
C  C60  1  0.39255006  0.18081853  0.23902188  1  0.463573  -0.001507  0.051562  0.098841  -0.001984  3.924152  -0.001
C  C61  1  0.21564239  0.32692038  0.10421704  1  0.931271  0.006306  0.210332  0.215762  0.005088  4.059225  0.007
C  C62  1  0.17526162  0.14654075  0.87471422  1  0.462299  -0.000194  0.042198  0.082337  -0.000548  3.979654  0.0
C  C63  1  0.24184624  0.08914114  0.83497654  1  0.020736  0.005686  -0.078498  -0.159438  0.003971  3.925509  0.004
C  C64  1  0.27644893  0.11469541  0.75552802  1  -0.071521  -0.002601  0.023907  0.091498  -0.003054  3.98926  -0.002
C  C65  1  0.24220971  0.19818293  0.72014221  1  0.01469  0.004765  -0.072159  -0.145725  0.003242  3.902513  0.004
C  C66  1  0.17494642  0.25107441  0.76339449  1  0.480503  -0.001101  0.044569  0.095771  -0.001463  3.930648  -0.001
C  C67  1  0.34354912  0.05701010  0.70860665  1  0.939892  0.004204  0.206115  0.213765  0.003272  4.069359  0.005
C  C68  1  0.90612549  0.16911476  0.78778627  1  0.498453  -0.000759  0.047585  0.08828  -0.001065  3.960128  0.0
C  C69  1  0.83583002  0.13838608  0.72617717  1  -0.062055  0.005887  -0.070304  -0.148823  0.004078  3.914528  0.004
C  C70  1  0.79212981  0.20172437  0.66808938  1  0.020869  -0.00242  0.02778  0.095255  -0.002923  3.981515  -0.002
C  C71  1  0.82304280  0.29370280  0.67465395  1  0.003753  0.005403  -0.071247  -0.149571  0.003767  3.912069  0.004
C  C72  1  0.89254852  0.31918093  0.73902672  1  0.464124  -0.001512  0.051455  0.09873  -0.001989  3.924272  -0.001
C  C73  1  0.71564665  0.17307942  0.60421564  1  0.931744  0.006306  0.210212  0.21555  0.005088  4.059364  0.007
C  C74  1  0.32473729  0.64654163  0.62528505  1  0.462284  -0.000194  0.042216  0.082367  -0.000548  3.979667  0.0
C  C75  1  0.25815484  0.58914061  0.66502341  1  0.020754  0.005686  -0.078538  -0.159487  0.003971  3.925443  0.004
C  C76  1  0.22355068  0.61469560  0.74447189  1  -0.0715  -0.002601  0.023909  0.091484  -0.003054  3.989224  -0.002
C  C77  1  0.25779003  0.69818320  0.77985778  1  0.014674  0.004765  -0.072104  -0.145628  0.003242  3.902471  0.004
C  C78  1  0.32505265  0.75107404  0.73660488  1  0.480504  -0.001101  0.044549  0.095736  -0.001463  3.930693  -0.001
C  C79  1  0.15645040  0.55700957  0.79139321  1  0.939301  0.004205  0.206097  0.21379  0.003272  4.069467  0.005
C  C80  1  0.59387474  0.66911544  0.71221338  1  0.498322  -0.000758  0.047656  0.08841  -0.001065  3.960004  0.0
C  C81  1  0.66417016  0.63838691  0.77382118  1  -0.062013  0.005886  -0.070348  -0.148831  0.004077  3.914493  0.004
C  C82  1  0.70787046  0.70172531  0.83190776  1  0.020816  -0.00242  0.027807  0.09524  -0.002923  3.981511  -0.002
C  C83  1  0.67695763  0.79370439  0.82534582  1  0.003734  0.005402  -0.071263  -0.149521  0.003766  3.912061  0.004
C  C84  1  0.60744968  0.81918099  0.76097489  1  0.4638  -0.001511  0.051471  0.098688  -0.001988  3.924285  -0.001
C  C85  1  0.78435208  0.67308052  0.89578332  1  0.931672  0.006306  0.210199  0.215518  0.005088  4.05944  0.007
N  N86  1  0.85857212  0.77416415  0.16049578  1  -1.205778  0.076468  -0.350344  -0.230546  0.051855  3.63096  0.067
N  N87  1  0.63018103  0.03034385  0.27091239  1  -0.641224  0.007865  -0.214981  -0.260779  0.004689  3.203127  0.006
N  N88  1  0.57376875  0.05784314  0.33340764  1  -0.174999  0.002035  -0.11593  -0.084085  0.000541  3.430324  0.003
N  N89  1  0.56619939  0.98855831  0.38870590  1  -0.188114  0.089015  -0.130899  -0.030721  0.062876  3.619564  0.08
N  N90  1  0.61683665  0.91599013  0.36471771  1  -0.58528  0.005128  -0.206091  -0.229547  0.002442  3.169778  0.003
N  N91  1  0.06643263  0.74203057  0.20512901  1  -1.1958  0.0851  -0.348579  -0.210137  0.057755  3.651849  0.075
N  N92  1  0.33065580  0.90966801  0.39575201  1  -0.578097  0.007831  -0.202057  -0.228985  0.004285  3.142559  0.006
N  N93  1  0.39509440  0.90600609  0.46205784  1  -0.166007  0.082944  -0.121841  -0.019038  0.058794  3.569195  0.076
N  N94  1  0.38852442  0.82495942  0.50147398  1  -0.182775  0.060826  -0.130853  -0.035997  0.043233  3.583476  0.056
N  N95  1  0.31954644  0.77352043  0.46108485  1  -0.604314  0.009838  -0.206716  -0.250505  0.005738  3.182148  0.008
N  N96  1  0.41762116  0.13098133  0.44245944  1  -0.326103  0.109372  -0.338694  -0.554485  0.073481  3.204179  0.094
N  N97  1  0.32975163  0.15271904  0.43808148  1  -0.314497  -0.001865  0.08341  0.427888  -0.012747  4.458262  -0.016
N  N98  1  0.24429279  0.17108871  0.43548958  1  0.059863  0.139651  -0.206869  -0.370854  0.090867  2.435386  0.1
N  N99  1  0.64142608  0.27416525  0.33950403  1  -1.205845  0.076468  -0.350338  -0.230502  0.051855  3.630973  0.067
N  N100  1  0.86982055  0.53034283  0.22908925  1  -0.641201  0.007865  -0.215036  -0.260859  0.00469  3.203128  0.006
N  N101  1  0.92623363  0.55784282  0.16659406  1  -0.175008  0.002035  -0.115902  -0.084  0.000541  3.430158  0.003
N  N102  1  0.93380140  0.48855748  0.11129611  1  -0.188057  0.089016  -0.130893  -0.030779  0.062876  3.619501  0.08
N  N103  1  0.88316328  0.41598927  0.13528357  1  -0.585275  0.005127  -0.206121  -0.229562  0.002442  3.169766  0.003
N  N104  1  0.43356875  0.24202855  0.29487123  1  -1.195639  0.085102  -0.348568  -0.210137  0.057757  3.651813  0.075
N  N105  1  0.16934208  0.40966823  0.10425014  1  -0.577297  0.007829  -0.202087  -0.229099  0.004284  3.142522  0.006
N  N106  1  0.10490422  0.40600684  0.03794306  1  -0.166403  0.082946  -0.121787  -0.018913  0.058795  3.569199  0.076
N  N107  1  0.11147326  0.32496065  0.99852603  1  -0.182738  0.060825  -0.130837  -0.035989  0.043232  3.58391  0.056
N  N108  1  0.18045197  0.27352197  0.03891466  1  -0.604281  0.009837  -0.20679  -0.250636  0.005739  3.182452  0.008
N  N109  1  0.08238155  0.63098115  0.05754204  1  -0.326007  0.109365  -0.338654  -0.554396  0.073477  3.204127  0.094
N  N110  1  0.17024885  0.65271692  0.06191865  1  -0.314481  -0.001868  0.083398  0.427892  -0.01275  4.458313  -0.016
N  N111  1  0.25571074  0.67108669  0.06451069  1  0.059743  0.13968  -0.206892  -0.370897  0.090885  2.435301  0.1
N  N112  1  0.14142461  0.22583675  0.83950531  1  -1.206018  0.076474  -0.350277  -0.230478  0.051858  3.630819  0.067
N  N113  1  0.36981871  0.96965774  0.72908882  1  -0.641874  0.007866  -0.214971  -0.26069  0.004689  3.203095  0.006
N  N114  1  0.42623100  0.94215639  0.66659357  1  -0.175029  0.002034  -0.115954  -0.084139  0.000541  3.430254  0.003
N  N115  1  0.43380035  0.01144122  0.61129531  1  -0.18808  0.089012  -0.130907  -0.030752  0.062874  3.619447  0.08
N  N116  1  0.38316385  0.08401077  0.63528290  1  -0.585284  0.005126  -0.206139  -0.229574  0.002441  3.169559  0.003
N  N117  1  0.93357013  0.25796965  0.79487106  1  -1.196006  0.085111  -0.348528  -0.210031  0.057763  3.651929  0.075
N  N118  1  0.66934696  0.09033151  0.60424806  1  -0.577977  0.00783  -0.202114  -0.22914  0.004285  3.142625  0.006
N  N119  1  0.60490910  0.09399206  0.53794162  1  -0.166074  0.082946  -0.121738  -0.018806  0.058793  3.569179  0.076
N  N120  1  0.61147984  0.17503804  0.49852424  1  -0.182732  0.060819  -0.130901  -0.036148  0.043228  3.583798  0.056
N  N121  1  0.68045706  0.22647772  0.53891270  1  -0.604334  0.009837  -0.206716  -0.250487  0.005738  3.182229  0.008
N  N122  1  0.58237783  0.86901820  0.55753857  1  -0.326125  0.109406  -0.338718  -0.554523  0.073506  3.203841  0.094
N  N123  1  0.67025262  0.84727843  0.56191865  1  -0.314547  -0.001843  0.083315  0.42775  -0.012722  4.458481  -0.016
N  N124  1  0.75570470  0.82891151  0.56451281  1  0.059936  0.139568  -0.206727  -0.370656  0.090811  2.435928  0.1
N  N125  1  0.35857366  0.72583703  0.66049400  1  -1.206041  0.076473  -0.350281  -0.23048  0.051858  3.630885  0.067
N  N126  1  0.13017994  0.46965670  0.77091072  1  -0.641306  0.007865  -0.215034  -0.260831  0.004689  3.203142  0.006
N  N127  1  0.07376686  0.44215602  0.83340591  1  -0.17501  0.002035  -0.115933  -0.084094  0.000541  3.430245  0.003
N  N128  1  0.06619759  0.51144136  0.88870380  1  -0.18816  0.089013  -0.130847  -0.030627  0.062874  3.619377  0.08
N  N129  1  0.11683496  0.58401026  0.86471695  1  -0.585212  0.005126  -0.206139  -0.229617  0.002441  3.169707  0.003
N  N130  1  0.56643099  0.75797029  0.70512744  1  -1.195675  0.085105  -0.348612  -0.210144  0.05776  3.651904  0.075
N  N131  1  0.83065314  0.59033268  0.89574961  1  -0.577629  0.007829  -0.202088  -0.229114  0.004284  3.142595  0.006
N  N132  1  0.89509025  0.59399200  0.96205730  1  -0.166385  0.082945  -0.121747  -0.018859  0.058792  3.569191  0.076
N  N133  1  0.88852047  0.67503751  0.00147620  1  -0.18275  0.060816  -0.130848  -0.036056  0.043226  3.583927  0.056
N  N134  1  0.81954250  0.72647687  0.96108761  1  -0.604236  0.009836  -0.20677  -0.250527  0.005738  3.182398  0.008
N  N135  1  0.91762271  0.36901837  0.94246064  1  -0.326154  0.109407  -0.338718  -0.55449  0.073507  3.203888  0.094
N  N136  1  0.82974637  0.34727849  0.93807984  1  -0.314562  -0.001839  0.083236  0.427632  -0.012718  4.458767  -0.016
N  N137  1  0.74429652  0.32891009  0.93548512  1  0.059975  0.139548  -0.20665  -0.370561  0.090798  2.436211  0.1
