# generated using pymatgen
data_CoH4C6(N3O2)2
_symmetry_space_group_name_H-M   'P 1'
_cell_length_a   6.00511586
_cell_length_b   6.00498346
_cell_length_c   14.15506081
_cell_angle_alpha   102.16763661
_cell_angle_beta   102.16650631
_cell_angle_gamma   90.03984240
_symmetry_Int_Tables_number   1
_chemical_formula_structural   CoH4C6(N3O2)2
_chemical_formula_sum   'Co2 H8 C12 N12 O8'
_cell_volume   487.22204145
_cell_formula_units_Z   2
loop_
 _symmetry_equiv_pos_site_id
 _symmetry_equiv_pos_as_xyz
  1  'x, y, z'
loop_
 _atom_site_type_symbol
 _atom_site_label
 _atom_site_symmetry_multiplicity
 _atom_site_fract_x
 _atom_site_fract_y
 _atom_site_fract_z
 _atom_site_occupancy
 _atom_site_hle17_ddec_charge
 _atom_site_hle17_ddec_spin_density
 _atom_site_hle17_ddec_sum_bond_order
 _atom_site_hle17_magmom
 _atom_site_hse06_10hf_ddec_charge
 _atom_site_hse06_10hf_ddec_spin_density
 _atom_site_hse06_10hf_ddec_sum_bond_order
 _atom_site_hse06_10hf_magmom
 _atom_site_hse06_ddec_charge
 _atom_site_hse06_ddec_spin_density
 _atom_site_hse06_ddec_sum_bond_order
 _atom_site_hse06_magmom
 _atom_site_pbe_cm5_charge
 _atom_site_pbe_ddec_charge
 _atom_site_pbe_ddec_spin_density
 _atom_site_pbe_ddec_sum_bond_order
 _atom_site_pbe_magmom
Co  Co0  1  0.12498493  0.87501541  0.25000203  1  0.900274  2.84761  2.042603  2.606  0.81115  2.848306  2.471116  2.651  0.894504  2.884915  2.394072  2.723  0.693021  0.747068  2.815691  2.528409  2.585
Co  Co1  1  0.87500510  0.12499436  0.74999769  1  0.900322  2.84761  2.042517  2.606  0.811151  2.848298  2.471085  2.651  0.89452  2.884914  2.394033  2.723  0.693011  0.747063  2.815603  2.528418  2.585
H  H2  1  0.28224381  0.76468369  0.02872017  1  0.119749  0.000446  0.944223  0.001  0.120233  0.000393  1.015429  0.001  0.123364  0.000247  1.012866  0.001  0.122007  0.118059  0.000556  1.017343  0.001
H  H3  1  0.76507249  0.74722527  0.52868575  1  0.118942  0.000446  0.944985  0.001  0.119487  0.000392  1.016262  0.001  0.122632  0.000246  1.013673  0.001  0.121465  0.117251  0.000554  1.018241  0.001
H  H4  1  0.74723549  0.76506694  0.02867756  1  0.119014  0.000443  0.944971  0.001  0.119561  0.000391  1.016259  0.001  0.122709  0.000246  1.01367  0.001  0.121465  0.117327  0.000554  1.018232  0.001
H  H5  1  0.76469173  0.28224886  0.52872922  1  0.119796  0.000445  0.944182  0.001  0.120249  0.000393  1.015411  0.001  0.123382  0.000248  1.012848  0.001  0.121987  0.118076  0.000556  1.017326  0.001
H  H6  1  0.71775272  0.23531926  0.97127740  1  0.119832  0.000446  0.944053  0.001  0.120306  0.000393  1.015253  0.001  0.123438  0.000247  1.012689  0.001  0.122019  0.118133  0.000556  1.017167  0.001
H  H7  1  0.23531166  0.71775577  0.47127618  1  0.119787  0.000445  0.944165  0.001  0.120253  0.000393  1.015386  0.001  0.123383  0.000247  1.012826  0.001  0.121995  0.11808  0.000556  1.017298  0.001
H  H8  1  0.25275405  0.23493260  0.97132049  1  0.119008  0.000443  0.944807  0.001  0.119555  0.000392  1.016091  0.001  0.122705  0.000246  1.013497  0.001  0.121459  0.117318  0.000554  1.018078  0.001
H  H9  1  0.23493074  0.25277595  0.47131863  1  0.118985  0.000445  0.944853  0.001  0.119506  0.000392  1.016179  0.001  0.122663  0.000246  1.013577  0.001  0.121465  0.117272  0.000554  1.018156  0.001
C  C10  1  0.61977954  0.86994417  0.23980664  1  0.307746  -0.003434  3.787134  0.001  0.259994  7.9e-05  4.069733  0.003  0.264654  -0.000936  4.093956  0.001  0.28309  0.25597  0.001038  4.053651  0.005
C  C11  1  0.86995064  0.61978037  0.73980600  1  0.307838  -0.003443  3.787211  0.001  0.260045  8e-05  4.069892  0.003  0.264704  -0.000941  4.094114  0.001  0.28312  0.256022  0.00104  4.053821  0.005
C  C12  1  0.38021682  0.13005537  0.76019203  1  0.307646  -0.003449  3.787324  0.001  0.259952  7.9e-05  4.069931  0.003  0.264613  -0.000939  4.094155  0.001  0.283045  0.25593  0.00104  4.053858  0.005
C  C13  1  0.13005090  0.38022086  0.26019540  1  0.30772  -0.003453  3.787163  0.001  0.259979  8e-05  4.06978  0.003  0.264639  -0.000937  4.094002  0.001  0.283084  0.255955  0.001038  4.0537  0.005
C  C14  1  0.42846131  0.79553510  0.09044339  1  0.057997  -0.003964  3.625353  0.0  0.018749  2.9e-05  3.907265  0.002  0.022261  -5.9e-05  3.925428  0.001  0.019081  0.015644  -0.000113  3.895487  0.002
C  C15  1  0.79551242  0.66221738  0.59038049  1  0.060972  -0.003832  3.624027  0.0  0.021884  6.2e-05  3.905433  0.002  0.025383  -3.9e-05  3.923594  0.001  0.02013  0.01885  -6e-05  3.89369  0.003
C  C16  1  0.66221439  0.79549942  0.09037363  1  0.060832  -0.003797  3.623672  0.0  0.021725  6.1e-05  3.905061  0.002  0.025221  -3.7e-05  3.923224  0.001  0.020141  0.01869  -6.1e-05  3.893314  0.003
C  C17  1  0.79554705  0.42846903  0.59044703  1  0.057902  -0.003938  3.625655  0.0  0.018687  3e-05  3.907549  0.002  0.022194  -5.7e-05  3.925713  0.001  0.01909  0.01558  -0.000111  3.895781  0.002
C  C18  1  0.57152450  0.20445762  0.90955441  1  0.057827  -0.00397  3.62552  0.0  0.018596  3.1e-05  3.907431  0.002  0.022105  -5.8e-05  3.925597  0.001  0.019072  0.015492  -0.000111  3.895658  0.002
C  C19  1  0.20445823  0.57153903  0.40955461  1  0.057852  -0.00393  3.625481  0.0  0.018613  3e-05  3.907386  0.002  0.022122  -5.7e-05  3.925551  0.001  0.019066  0.015506  -0.000112  3.895613  0.002
C  C20  1  0.33778345  0.20449501  0.90962117  1  0.060898  -0.00378  3.623871  0.0  0.02182  6.2e-05  3.90524  0.002  0.025315  -3.7e-05  3.923403  0.001  0.020135  0.018782  -5.8e-05  3.893497  0.003
C  C21  1  0.20449082  0.33778385  0.40962106  1  0.06094  -0.00384  3.623843  0.0  0.021872  6.1e-05  3.905213  0.002  0.02536  -3.9e-05  3.923368  0.001  0.020115  0.018835  -6.2e-05  3.893465  0.003
N  N22  1  0.67133551  0.92156796  0.34320284  1  0.415605  -0.008468  3.984304  -0.006  0.474863  -0.003698  4.238119  -0.003  0.497771  -0.002282  4.245371  -0.002  0.039112  0.458559  -0.006416  4.233311  -0.005
N  N23  1  0.92156242  0.67132398  0.84320283  1  0.415532  -0.00848  3.984314  -0.006  0.474781  -0.003698  4.238156  -0.003  0.497689  -0.002282  4.245408  -0.002  0.039115  0.458476  -0.006414  4.233355  -0.005
N  N24  1  0.32866938  0.07843159  0.65679376  1  0.415699  -0.008455  3.984203  -0.006  0.474803  -0.003699  4.238214  -0.003  0.497711  -0.00228  4.245467  -0.002  0.039103  0.458497  -0.006412  4.233413  -0.005
N  N25  1  0.07844204  0.32866702  0.15679720  1  0.41563  -0.008466  3.984385  -0.006  0.474835  -0.003699  4.238269  -0.003  0.497741  -0.002282  4.245523  -0.002  0.039098  0.458531  -0.006417  4.233461  -0.005
N  N26  1  0.40310886  0.84292209  0.18581433  1  -0.394204  0.039732  3.299052  0.065  -0.355974  0.029603  3.609563  0.042  -0.381376  0.023191  3.627561  0.032  -0.3502  -0.336547  0.035568  3.596626  0.05
N  N27  1  0.84307371  0.78259494  0.68571897  1  -0.396735  0.039622  3.296579  0.065  -0.35888  0.029525  3.6073  0.042  -0.384236  0.023114  3.625276  0.032  -0.3511  -0.339475  0.035505  3.594351  0.05
N  N28  1  0.78258363  0.84307660  0.18571609  1  -0.396721  0.039616  3.296244  0.065  -0.358853  0.029526  3.60691  0.042  -0.384209  0.023112  3.62489  0.032  -0.351164  -0.339448  0.035504  3.593947  0.05
N  N29  1  0.84291984  0.40310685  0.68581207  1  -0.394249  0.039728  3.299313  0.065  -0.355976  0.029603  3.609809  0.042  -0.381379  0.023192  3.627807  0.032  -0.350239  -0.336551  0.03557  3.596891  0.05
N  N30  1  0.59688749  0.15707744  0.81418574  1  -0.394108  0.039739  3.299151  0.065  -0.355867  0.029603  3.609631  0.042  -0.381272  0.023192  3.627632  0.032  -0.350167  -0.33644  0.035571  3.596709  0.05
N  N31  1  0.15708195  0.59689951  0.31418841  1  -0.394144  0.039723  3.29907  0.065  -0.355889  0.029601  3.609541  0.042  -0.381288  0.02319  3.627535  0.032  -0.350179  -0.336465  0.035566  3.596606  0.05
N  N32  1  0.21740931  0.15692293  0.81428297  1  -0.396713  0.039612  3.296479  0.065  -0.358867  0.029525  3.607147  0.042  -0.384226  0.023112  3.62513  0.032  -0.351125  -0.33946  0.035505  3.594197  0.05
N  N33  1  0.15692621  0.21740800  0.31428244  1  -0.39673  0.03963  3.296598  0.065  -0.358889  0.029525  3.607294  0.042  -0.384244  0.023113  3.625273  0.032  -0.351145  -0.339483  0.035502  3.594327  0.05
O  O34  1  0.87708646  0.94367947  0.38755553  1  -0.369283  0.007853  1.84286  0.017  -0.352093  0.00975  2.060312  0.018  -0.367986  0.007056  2.05637  0.014  -0.124525  -0.340041  0.012788  2.06283  0.023
O  O35  1  0.94404942  0.50990079  0.88769497  1  -0.370891  0.007827  1.842875  0.017  -0.353797  0.009719  2.060383  0.018  -0.369679  0.007029  2.056459  0.013  -0.125552  -0.341756  0.012762  2.06289  0.023
O  O36  1  0.50990988  0.94404767  0.38769114  1  -0.370888  0.007778  1.843002  0.017  -0.353791  0.009717  2.060474  0.018  -0.369674  0.007006  2.056555  0.013  -0.125515  -0.341758  0.012752  2.06298  0.023
O  O37  1  0.94368975  0.87707563  0.88756676  1  -0.369256  0.007809  1.842846  0.017  -0.352056  0.009745  2.060304  0.018  -0.367948  0.007032  2.056362  0.013  -0.124519  -0.340005  0.012783  2.062828  0.023
O  O38  1  0.12292137  0.05630988  0.61243477  1  -0.369364  0.007838  1.842837  0.017  -0.352114  0.009744  2.060329  0.018  -0.368008  0.007049  2.056389  0.014  -0.124529  -0.340063  0.012786  2.062853  0.023
O  O39  1  0.05632644  0.12291193  0.11244179  1  -0.369262  0.00783  1.842962  0.017  -0.352049  0.009747  2.06042  0.018  -0.367941  0.007047  2.05648  0.014  -0.124466  -0.339998  0.012784  2.062939  0.023
O  O40  1  0.49009533  0.05595871  0.61230541  1  -0.370892  0.007786  1.842826  0.017  -0.353738  0.00972  2.060337  0.018  -0.36962  0.00701  2.056414  0.013  -0.125506  -0.341698  0.012759  2.062844  0.023
O  O41  1  0.05595364  0.49009702  0.11230979  1  -0.370901  0.0078  1.842973  0.017  -0.353815  0.009717  2.060517  0.018  -0.369696  0.007014  2.056595  0.013  -0.12556  -0.341781  0.012754  2.063023  0.023
