# generated using pymatgen
data_Zn2H20C21(NO5)2
_symmetry_space_group_name_H-M   'P 1'
_cell_length_a   9.72742956
_cell_length_b   11.16148993
_cell_length_c   14.08583835
_cell_angle_alpha   92.95051930
_cell_angle_beta   95.88180523
_cell_angle_gamma   88.74509647
_symmetry_Int_Tables_number   1
_chemical_formula_structural   Zn2H20C21(NO5)2
_chemical_formula_sum   'Zn2 H20 C21 N2 O10'
_cell_volume   1519.05540986
_cell_formula_units_Z   1
loop_
 _symmetry_equiv_pos_site_id
 _symmetry_equiv_pos_as_xyz
  1  'x, y, z'
loop_
 _atom_site_type_symbol
 _atom_site_label
 _atom_site_symmetry_multiplicity
 _atom_site_fract_x
 _atom_site_fract_y
 _atom_site_fract_z
 _atom_site_occupancy
 _atom_site_pbe_bader_charge
 _atom_site_pbe_bader_spin_density
 _atom_site_pbe_cm5_charge
 _atom_site_pbe_ddec_charge
 _atom_site_pbe_ddec_spin_density
 _atom_site_pbe_ddec_sum_bond_order
 _atom_site_pbe_magmom
Zn  Zn0  1  0.63654058  0.50509066  0.50690091  1  1.28161  0  0.659902  0.837134  0  2.448988  0
Zn  Zn1  1  0.35682201  0.50455290  0.51268144  1  1.283788  0  0.664294  0.842219  0  2.460013  0
H  H2  1  0.65805319  0.47837336  0.02783322  1  0.093883  0  0.118278  0.119076  0  0.961783  0
H  H3  1  0.13680452  0.02314647  0.59135794  1  0.035787  0  0.101307  0.062183  0  0.9584  0
H  H4  1  0.02308114  0.82075072  0.56447508  1  0.032883  0  0.093702  0.129953  0  0.98898  0
H  H5  1  0.92205357  0.93591856  0.50710510  1  0.05465  0  0.092407  0.121633  0  1.024216  0
H  H6  1  0.02118091  0.83437634  0.43847028  1  0.013452  0  0.088074  0.115516  0  1.006612  0
H  H7  1  0.76088652  0.01735030  0.40450495  1  0.023962  0  0.09797  0.057448  0  0.99105  0
H  H8  1  0.75000583  0.15823530  0.47057844  1  0.062253  0  0.098216  0.065399  0  1.003482  0
H  H9  1  0.68328457  0.11656254  0.25381045  1  0.044207  0  0.094278  0.090092  0  0.96642  0
H  H10  1  0.67483821  0.25721184  0.31771198  1  0.038901  0  0.092571  0.099435  0  0.989847  0
H  H11  1  0.93116361  0.24252542  0.37015719  1  0.01509  0  0.076571  0.094809  0  1.023433  0
H  H12  1  0.90061652  0.23200643  0.24364079  1  0.041939  0  0.090795  0.119727  0  0.995668  0
H  H13  1  0.10275217  0.50975775  0.57641999  1  0.423467  0  0.321567  0.286218  0  0.906395  0
H  H14  1  0.94042930  0.10093887  0.30773460  1  0.016076  0  0.084931  0.106749  0  1.008558  0
H  H15  1  0.34129255  0.50698536  0.98745284  1  0.10397  0  0.120219  0.122059  0  0.957245  0
H  H16  1  0.60209509  0.90891837  0.51823453  1  0.121249  0  0.100941  0.137386  0  1.024883  0
H  H17  1  0.32712104  0.12608461  0.56141099  1  0.101622  0  0.107399  0.130551  0  1.027401  0
H  H18  1  0.85205009  0.62188792  0.40122489  1  0.162205  0  0.149668  0.12084  0  0.930729  0
H  H19  1  0.90413248  0.42788249  0.53295925  1  0.427968  0  0.319239  0.28261  0  0.913658  0
H  H20  1  0.10675903  0.56345308  0.37543369  1  0.184084  0  0.148213  0.122725  0  0.939825  0
H  H21  1  0.14315481  0.02953844  0.46540402  1  0.057612  0  0.101632  0.063088  0  0.982029  0
C  C22  1  0.48835219  0.27022443  0.49073761  1  1.608266  0  0.214856  0.552334  0  4.191485  0
C  C23  1  0.50577066  0.73630355  0.51738905  1  1.441504  0  0.196397  0.657334  0  4.176102  0
C  C24  1  0.45680499  0.50466203  0.32045566  1  1.660562  0  0.216393  0.666346  0  4.247435  0
C  C25  1  0.44326585  0.50325864  0.21721473  1  0.112184  0  -0.043165  -0.187238  0  3.94769  0
C  C26  1  0.44080060  0.49869835  0.03060878  1  0.048951  0  -0.060284  -0.043909  0  4.051077  0
C  C27  1  0.55815360  0.48682782  0.98521326  1  0.097151  0  -0.061305  -0.045215  0  4.054246  0
C  C28  1  0.55574315  0.48567752  0.88543422  1  -0.453806  0  -0.037553  -0.015118  0  4.166008  0
C  C29  1  0.44174169  0.50063722  0.13032959  1  -0.398397  0  -0.038947  -0.015211  0  4.166214  0
C  C30  1  0.14132930  0.96842410  0.52422131  1  0.418913  0  -0.062838  0.082583  0  3.919723  0
C  C31  1  0.01970750  0.88467980  0.50753612  1  -0.056077  0  -0.242848  -0.393965  0  3.981925  0
C  C32  1  0.70860128  0.10601924  0.40623955  1  0.412737  0  -0.065281  0.039447  0  3.885564  0
C  C33  1  0.55059706  0.48652097  0.79849268  1  0.171362  0  -0.040863  -0.181637  0  3.942681  0
C  C34  1  0.72958447  0.17009493  0.31634435  1  -0.015609  0  -0.172193  -0.14172  0  3.976357  0
C  C35  1  0.88360891  0.18729771  0.30896299  1  -0.070127  0  -0.242346  -0.343988  0  3.986219  0
C  C36  1  0.38957125  0.94158149  0.52212874  1  0.489566  0  0.097733  0.33488  0  4.041153  0
C  C37  1  0.50270922  0.86685935  0.51914601  1  0.035562  0  -0.136831  -0.406539  0  3.892983  0
C  C38  1  0.39866984  0.07172296  0.52207348  1  0.057847  0  -0.116295  -0.316615  0  4.001201  0
C  C39  1  0.48716911  0.13508203  0.47621853  1  0.438667  0  0.087436  0.143032  0  4.001601  0
C  C40  1  0.91125874  0.55650844  0.44516613  1  0.665026  0  0.12908  0.172541  0  3.845519  0
C  C41  1  0.06299787  0.54703789  0.44225741  1  0.700386  0  0.127942  0.170623  0  3.844785  0
C  C42  1  0.53306412  0.49141720  0.69565212  1  1.686096  0  0.21682  0.668634  0  4.241283  0
N  N43  1  0.84475032  0.49038377  0.49546485  1  -1.160527  0  -0.429141  -0.370279  0  3.259502  0
N  N44  1  0.14695382  0.52002673  0.51414157  1  -1.172344  0  -0.42668  -0.365433  0  3.251425  0
O  O45  1  0.59946295  0.32281089  0.47876291  1  -1.164107  0  -0.305992  -0.533871  0  2.367659  0
O  O46  1  0.56502225  0.07870556  0.41240287  1  -1.077937  0  -0.182973  -0.187265  0  2.573178  0
O  O47  1  0.37754357  0.32099850  0.51409788  1  -1.150785  0  -0.319166  -0.532782  0  2.317702  0
O  O48  1  0.64052175  0.47624116  0.65119775  1  -1.138906  0  -0.324136  -0.552461  0  2.233721  0
O  O49  1  0.40978163  0.51084744  0.65903974  1  -1.139757  0  -0.318347  -0.543663  0  2.236017  0
O  O50  1  0.62646714  0.68510370  0.52647842  1  -1.159973  0  -0.345146  -0.576864  0  2.248205  0
O  O51  1  0.39201950  0.67917765  0.50523318  1  -1.162534  0  -0.330206  -0.56753  0  2.360654  0
O  O52  1  0.57882434  0.52176765  0.36070632  1  -1.144793  0  -0.316272  -0.553606  0  2.256277  0
O  O53  1  0.34844365  0.48765293  0.36144113  1  -1.157587  0  -0.318168  -0.557382  0  2.237392  0
O  O54  1  0.26420079  0.89386687  0.53101304  1  -1.042173  0  -0.171856  -0.182314  0  2.52298  0
