# generated using pymatgen
data_Ni3H14(C4O3)4
_symmetry_space_group_name_H-M   'P 1'
_cell_length_a   6.19734656
_cell_length_b   6.62172402
_cell_length_c   10.20554433
_cell_angle_alpha   82.82299330
_cell_angle_beta   83.25391315
_cell_angle_gamma   85.58824098
_symmetry_Int_Tables_number   1
_chemical_formula_structural   Ni3H14(C4O3)4
_chemical_formula_sum   'Ni3 H14 C16 O12'
_cell_volume   411.82354078
_cell_formula_units_Z   1
loop_
 _symmetry_equiv_pos_site_id
 _symmetry_equiv_pos_as_xyz
  1  'x, y, z'
loop_
 _atom_site_type_symbol
 _atom_site_label
 _atom_site_symmetry_multiplicity
 _atom_site_fract_x
 _atom_site_fract_y
 _atom_site_fract_z
 _atom_site_occupancy
 _atom_site_hle17_ddec_charge
 _atom_site_hle17_ddec_spin_density
 _atom_site_hle17_ddec_sum_bond_order
 _atom_site_hle17_magmom
 _atom_site_hse06_10hf_ddec_charge
 _atom_site_hse06_10hf_ddec_spin_density
 _atom_site_hse06_10hf_ddec_sum_bond_order
 _atom_site_hse06_10hf_magmom
 _atom_site_hse06_ddec_charge
 _atom_site_hse06_ddec_spin_density
 _atom_site_hse06_ddec_sum_bond_order
 _atom_site_hse06_magmom
 _atom_site_pbe_cm5_charge
 _atom_site_pbe_ddec_charge
 _atom_site_pbe_ddec_spin_density
 _atom_site_pbe_ddec_sum_bond_order
 _atom_site_pbe_magmom
Ni  Ni0  1  0.52147566  0.26189439  0.99470483  1  1.037877  1.753849  1.764603  1.529  1.073094  1.826116  2.141041  1.66  1.160896  1.873312  2.071983  1.739  0.610111  0.99615  1.784214  2.20639  1.592
Ni  Ni1  1  0.47852703  0.73810561  0.00529557  1  1.037896  1.753873  1.764647  1.529  1.073085  1.826125  2.141099  1.66  1.160886  1.873321  2.07204  1.739  0.610101  0.996138  1.784217  2.206458  1.592
Ni  Ni2  1  0.00000066  0.49999997  0.99999997  1  1.061779  1.771129  1.845799  1.546  1.093801  1.831987  2.232284  1.67  1.174513  1.880296  2.168737  1.749  0.623145  1.021512  1.785076  2.293386  1.597
H  H3  1  0.40658380  0.30939056  0.41241878  1  0.09757  0.000166  0.95632  0.0  0.107475  0.000142  1.019248  0.0  0.110583  8.7e-05  1.017518  0.0  0.103418  0.105116  0.000208  1.020684  0.0
H  H4  1  0.59341206  0.69061396  0.58757782  1  0.097587  0.000164  0.956259  0.0  0.107492  0.000142  1.0192  0.0  0.1106  8.7e-05  1.01747  0.0  0.103426  0.105129  0.000208  1.020636  0.0
H  H5  1  0.26834382  0.33652017  0.65048083  1  0.101885  -3e-06  0.949352  0.0  0.110203  -3.8e-05  1.013081  0.0  0.11443  -5.3e-05  1.009552  0.0  0.103385  0.106741  4.3e-05  1.016309  0.0
H  H6  1  0.73165530  0.66348436  0.34951651  1  0.101915  -1e-06  0.949301  0.0  0.110214  -3.8e-05  1.013047  0.0  0.114438  -5.3e-05  1.00952  0.0  0.103397  0.106756  4.3e-05  1.016264  0.0
H  H7  1  0.63472899  0.19055566  0.57550068  1  0.099113  0.000237  0.954752  0.0  0.108899  0.000169  1.017065  0.0  0.111675  0.00011  1.015944  0.0  0.103892  0.106806  0.000234  1.018011  0.0
H  H8  1  0.36527052  0.80944276  0.42449717  1  0.099109  0.000241  0.954757  0.0  0.10889  0.000169  1.017078  0.0  0.111671  0.00011  1.015944  0.0  0.103897  0.106798  0.000234  1.018027  0.0
H  H9  1  0.77130869  0.16863820  0.33631656  1  0.101444  -5.2e-05  0.945215  0.0  0.109461  6e-06  1.01006  0.0  0.113424  -1.9e-05  1.006938  0.0  0.103321  0.106283  6.9e-05  1.012943  0.0
H  H10  1  0.22869064  0.83136331  0.66368299  1  0.101468  -4.7e-05  0.945192  0.0  0.109508  6e-06  1.010017  0.0  0.113472  -1.9e-05  1.006893  0.0  0.103337  0.106333  6.9e-05  1.012904  0.0
H  H11  1  0.66600616  0.46322379  0.15091486  1  0.415252  -0.003237  0.835107  -0.004  0.398239  -0.000285  0.901825  0.0  0.407814  -0.000767  0.893802  -0.001  0.306033  0.391236  0.000395  0.906784  0.001
H  H12  1  0.33399480  0.53677773  0.84908554  1  0.415224  -0.003243  0.835145  -0.004  0.398218  -0.000284  0.901843  0.0  0.407791  -0.000767  0.893822  -0.001  0.306026  0.391218  0.000396  0.906797  0.001
H  H13  1  0.81986458  0.91526384  0.97623666  1  0.419184  -0.001128  0.881698  -0.001  0.388736  -0.000328  0.959633  0.0  0.401098  -0.000499  0.942146  0.0  0.297559  0.379687  -0.000157  0.968664  0.0
H  H14  1  0.18013804  0.08473773  0.02376655  1  0.419197  -0.00113  0.881657  -0.001  0.388755  -0.000329  0.959587  0.0  0.401116  -0.000499  0.942114  0.0  0.297578  0.379706  -0.000157  0.968611  0.0
H  H15  1  0.75912615  0.94124224  0.12843650  1  0.444255  -0.000393  0.793593  -0.001  0.428391  0.000191  0.847137  0.0  0.439107  -3.3e-05  0.835748  0.0  0.326591  0.42013  0.000442  0.855634  0.001
H  H16  1  0.24087648  0.05875935  0.87156769  1  0.444255  -0.000392  0.793659  -0.001  0.428391  0.000191  0.847203  0.0  0.439106  -3.3e-05  0.835814  0.0  0.326569  0.420131  0.000442  0.85571  0.001
C  C17  1  0.18337461  0.22404462  0.21930388  1  0.651473  -0.009755  3.836969  -0.007  0.606136  0.002347  4.137365  0.002  0.643531  0.001489  4.129689  0.002  0.216428  0.579049  0.003146  4.140782  0.003
C  C18  1  0.81662479  0.77595531  0.78069286  1  0.651571  -0.009745  3.836769  -0.007  0.606172  0.002347  4.137241  0.002  0.643566  0.001488  4.129566  0.002  0.216462  0.57909  0.003145  4.140649  0.003
C  C19  1  0.09805852  0.23683861  0.36059882  1  -0.065789  0.004677  3.761641  0.006  -0.045448  0.002255  3.992647  0.003  -0.053197  0.001199  4.015404  0.002  -0.017253  -0.04033  0.003054  3.978124  0.004
C  C20  1  0.90194255  0.76316139  0.63940170  1  -0.065771  0.004689  3.761596  0.006  -0.045428  0.002254  3.992653  0.003  -0.053177  0.001198  4.015409  0.002  -0.017229  -0.040307  0.003053  3.978121  0.004
C  C21  1  0.23824143  0.28204833  0.44952477  1  -0.065166  0.001168  3.728313  0.001  -0.088258  0.001115  3.976379  0.001  -0.088795  0.000887  3.99661  0.001  -0.081946  -0.087792  0.001108  3.9629  0.001
C  C22  1  0.76176122  0.71795160  0.55047172  1  -0.065124  0.001167  3.728304  0.001  -0.08823  0.001115  3.976374  0.001  -0.088768  0.000887  3.996605  0.001  -0.081942  -0.087765  0.001108  3.962891  0.001
C  C23  1  0.16123612  0.29727247  0.58143592  1  -0.073612  -0.002592  3.73345  -0.001  -0.095621  -0.000758  3.983239  0.0  -0.096445  -0.000897  4.003237  0.0  -0.084369  -0.095156  -0.000656  3.970114  0.0
C  C24  1  0.83876160  0.70272907  0.41856472  1  -0.073707  -0.002581  3.733596  -0.001  -0.09568  -0.000759  3.983394  0.0  -0.096509  -0.000896  4.003405  0.0  -0.084415  -0.095222  -0.000656  3.970272  0.0
C  C25  1  0.94268040  0.26644943  0.62685449  1  -0.056362  0.01154  3.739422  0.015  -0.035227  0.006421  3.966078  0.008  -0.04287  0.004581  3.988895  0.006  -0.014188  -0.030521  0.007607  3.951613  0.01
C  C26  1  0.05732066  0.73355055  0.37314506  1  -0.05637  0.011524  3.739476  0.015  -0.035252  0.006421  3.966171  0.008  -0.0429  0.004582  3.988986  0.006  -0.014212  -0.030541  0.007607  3.951695  0.01
C  C27  1  0.80307961  0.21790035  0.53827332  1  -0.069978  -0.00285  3.729178  -0.002  -0.091057  -0.000637  3.975935  0.0  -0.092039  -0.000824  3.997228  0.0  -0.081646  -0.090384  -0.000106  3.961989  0.0
C  C28  1  0.19691829  0.78209812  0.46172660  1  -0.06996  -0.002832  3.729179  -0.002  -0.091017  -0.000639  3.975925  0.0  -0.091997  -0.000824  3.997219  0.0  -0.081627  -0.090354  -0.000106  3.961998  0.0
C  C29  1  0.87928479  0.20520583  0.40579877  1  -0.065107  0.001871  3.717595  0.003  -0.08965  0.001331  3.971568  0.002  -0.090323  0.001028  3.991675  0.001  -0.081286  -0.089759  0.001365  3.958922  0.002
C  C30  1  0.12071626  0.79479415  0.59420078  1  -0.065147  0.001843  3.717663  0.002  -0.089715  0.001332  3.97164  0.002  -0.090388  0.001029  3.991745  0.001  -0.081307  -0.089831  0.001366  3.959002  0.002
C  C31  1  0.86020261  0.29150895  0.76851181  1  0.650016  -0.011075  3.860651  -0.009  0.609725  -0.001013  4.162332  0.0  0.648697  -0.00085  4.153031  0.0  0.212599  0.581577  -0.001452  4.167046  -0.001
C  C32  1  0.13979868  0.70848805  0.23149190  1  0.650001  -0.011075  3.860625  -0.009  0.609673  -0.001014  4.162397  0.0  0.648657  -0.000852  4.153083  0.0  0.212561  0.581529  -0.001454  4.167099  -0.001
O  O33  1  0.04600639  0.21061949  0.13500680  1  -0.649416  0.029345  2.054356  0.05  -0.611734  0.018188  2.312959  0.03  -0.643812  0.012274  2.301558  0.022  -0.315112  -0.586283  0.023245  2.31984  0.036
O  O34  1  0.95399641  0.78937899  0.86499471  1  -0.649504  0.02935  2.054189  0.05  -0.611772  0.01819  2.312802  0.03  -0.643851  0.012274  2.3014  0.022  -0.315143  -0.586325  0.023248  2.319687  0.036
O  O35  1  0.38779452  0.22680265  0.18795406  1  -0.581194  0.049226  2.057754  0.085  -0.54848  0.032737  2.322943  0.058  -0.584464  0.023726  2.313268  0.045  -0.299516  -0.519387  0.042258  2.328574  0.071
O  O36  1  0.61220330  0.77319736  0.81204671  1  -0.581259  0.049221  2.05771  0.085  -0.548504  0.032737  2.322905  0.058  -0.584487  0.023727  2.313231  0.045  -0.299514  -0.519415  0.042258  2.328539  0.071
O  O37  1  0.00169396  0.32960096  0.84209666  1  -0.641826  0.038321  2.11011  0.067  -0.614046  0.025063  2.389651  0.044  -0.64805  0.017695  2.377411  0.033  -0.315267  -0.586691  0.031783  2.397263  0.053
O  O38  1  0.99830757  0.67039138  0.15790255  1  -0.641867  0.038327  2.110103  0.067  -0.614043  0.025064  2.389611  0.044  -0.648051  0.017696  2.377367  0.033  -0.315234  -0.586691  0.031785  2.397221  0.053
O  O39  1  0.65769259  0.27380389  0.80444689  1  -0.593866  0.046591  2.047214  0.081  -0.568231  0.02962  2.318231  0.053  -0.60412  0.021396  2.30626  0.041  -0.310148  -0.539381  0.037384  2.325718  0.063
O  O40  1  0.34231488  0.72619762  0.19555302  1  -0.593818  0.046591  2.047204  0.081  -0.568185  0.029621  2.318268  0.053  -0.604083  0.021397  2.306301  0.041  -0.310116  -0.539336  0.037385  2.325755  0.063
O  O41  1  0.68488707  0.48611309  0.05407501  1  -0.881619  0.163932  2.060739  0.277  -0.917294  0.101832  2.399207  0.173  -0.980008  0.075234  2.375897  0.134  -0.550735  -0.862852  0.126028  2.412849  0.206
O  O42  1  0.31511399  0.51388691  0.94592552  1  -0.881589  0.163938  2.060738  0.277  -0.917269  0.101832  2.39922  0.173  -0.979984  0.075234  2.375912  0.134  -0.55074  -0.86283  0.12603  2.412858  0.206
O  O43  1  0.70078328  0.97012708  0.04269197  1  -0.804999  0.044575  2.023312  0.074  -0.782201  0.039528  2.27179  0.064  -0.814364  0.030771  2.236211  0.053  -0.543451  -0.754975  0.047247  2.294654  0.073
O  O44  1  0.29921788  0.02987139  0.95730868  1  -0.805022  0.044575  2.023322  0.074  -0.782216  0.039528  2.271787  0.064  -0.814386  0.030771  2.236236  0.053  -0.54344  -0.754989  0.047247  2.294661  0.073
