# generated using pymatgen
data_ZnH9C4NO6
_symmetry_space_group_name_H-M   'P 1'
_cell_length_a   5.18803929
_cell_length_b   9.64201313
_cell_length_c   14.28497441
_cell_angle_alpha   90.00027578
_cell_angle_beta   90.00066857
_cell_angle_gamma   90.00134232
_symmetry_Int_Tables_number   1
_chemical_formula_structural   ZnH9C4NO6
_chemical_formula_sum   'Zn4 H36 C16 N4 O24'
_cell_volume   714.57931731
_cell_formula_units_Z   4
loop_
 _symmetry_equiv_pos_site_id
 _symmetry_equiv_pos_as_xyz
  1  'x, y, z'
loop_
 _atom_site_type_symbol
 _atom_site_label
 _atom_site_symmetry_multiplicity
 _atom_site_fract_x
 _atom_site_fract_y
 _atom_site_fract_z
 _atom_site_occupancy
 _atom_site_hle17_bader_spin_density
 _atom_site_hle17_ddec_charge
 _atom_site_hle17_ddec_spin_density
 _atom_site_hle17_ddec_sum_bond_order
 _atom_site_hle17_magmom
 _atom_site_hse06_10hf_bader_spin_density
 _atom_site_hse06_10hf_ddec_charge
 _atom_site_hse06_10hf_ddec_spin_density
 _atom_site_hse06_10hf_ddec_sum_bond_order
 _atom_site_hse06_10hf_magmom
 _atom_site_hse06_bader_spin_density
 _atom_site_hse06_ddec_charge
 _atom_site_hse06_ddec_spin_density
 _atom_site_hse06_ddec_sum_bond_order
 _atom_site_hse06_magmom
 _atom_site_pbe_bader_spin_density
 _atom_site_pbe_cm5_charge
 _atom_site_pbe_ddec_charge
 _atom_site_pbe_ddec_spin_density
 _atom_site_pbe_ddec_sum_bond_order
 _atom_site_pbe_magmom
Zn  Zn0  1  0.83999927  0.12485403  0.06077341  1  0  1.117575  0  1.691516  0  0  0.943254  0  2.126897  0  0  0.990881  0  2.072445  0  0  0.670256  0.909848  0  2.164213  0
Zn  Zn1  1  0.15997429  0.62486645  0.93922183  1  0  1.11752  0  1.691487  0  0  0.943123  0  2.126867  0  0  0.990754  0  2.072414  0  0  0.670191  0.909718  0  2.164182  0
Zn  Zn2  1  0.15997641  0.12486171  0.56077717  1  0  1.11764  0  1.691433  0  0  0.943258  0  2.126835  0  0  0.990889  0  2.072386  0  0  0.670226  0.909842  0  2.164151  0
Zn  Zn3  1  0.84002028  0.62484529  0.43922997  1  0  1.117537  0  1.691576  0  0  0.943233  0  2.12693  0  0  0.99084  0  2.072492  0  0  0.670244  0.90983  0  2.164244  0
H  H4  1  0.55696234  0.22192058  0.20158251  1  0  0.258535  0  0.953889  0  0  0.250073  0  1.004483  0  0  0.255645  0  1.001975  0  0  0.295695  0.246091  0  1.006408  0
H  H5  1  0.44305390  0.72194193  0.79841516  1  0  0.258512  0  0.953962  0  0  0.24995  0  1.004683  0  0  0.255516  0  1.0022  0  0  0.295657  0.245976  0  1.006591  0
H  H6  1  0.44303774  0.22193191  0.70158739  1  0  0.258617  0  0.953918  0  0  0.250133  0  1.004527  0  0  0.255703  0  1.002029  0  0  0.295724  0.246155  0  1.00644  0
H  H7  1  0.55697850  0.72189638  0.29841938  1  0  0.258779  0  0.953547  0  0  0.250229  0  1.004297  0  0  0.255811  0  1.001762  0  0  0.295764  0.246245  0  1.006223  0
H  H8  1  0.82768504  0.22035872  0.31518353  1  0  0.113766  0  0.929837  0  0  0.126497  0  0.993565  0  0  0.129083  0  0.99181  0  0  0.118688  0.124565  0  0.994965  0
H  H9  1  0.17233692  0.72037270  0.68481134  1  0  0.113712  0  0.929921  0  0  0.126497  0  0.993536  0  0  0.129098  0  0.991772  0  0  0.118716  0.124568  0  0.994942  0
H  H10  1  0.17230925  0.22037382  0.81518874  1  0  0.113762  0  0.929905  0  0  0.126509  0  0.993583  0  0  0.129108  0  0.99182  0  0  0.118724  0.124576  0  0.994988  0
H  H11  1  0.82771656  0.72035657  0.18482083  1  0  0.113718  0  0.929846  0  0  0.126397  0  0.993577  0  0  0.128989  0  0.991804  0  0  0.118711  0.124466  0  0.994981  0
H  H12  1  0.00542448  0.35292929  0.26240430  1  0  0.114525  0  0.92819  0  0  0.128423  0  0.987126  0  0  0.130511  0  0.986391  0  0  0.116461  0.126841  0  0.987762  0
H  H13  1  0.99461661  0.85294697  0.73758961  1  0  0.114583  0  0.928068  0  0  0.128441  0  0.987048  0  0  0.130527  0  0.986318  0  0  0.116384  0.126859  0  0.987684  0
H  H14  1  0.99457749  0.35292699  0.76240294  1  0  0.114576  0  0.928214  0  0  0.128419  0  0.987202  0  0  0.130503  0  0.98647  0  0  0.11645  0.126838  0  0.987836  0
H  H15  1  0.00545975  0.85291193  0.23760357  1  0  0.114605  0  0.92822  0  0  0.128413  0  0.987187  0  0  0.130499  0  0.98645  0  0  0.116493  0.126833  0  0.987825  0
H  H16  1  0.67187610  0.47592011  0.19108893  1  0  0.106066  0  0.937296  0  0  0.116265  0  1.004518  0  0  0.119017  0  1.002413  0  0  0.108707  0.114181  0  1.006131  0
H  H17  1  0.32815673  0.97593693  0.80891381  1  0  0.106063  0  0.937242  0  0  0.116211  0  1.004486  0  0  0.11896  0  1.002375  0  0  0.108657  0.114124  0  1.006105  0
H  H18  1  0.32812286  0.47593099  0.69109055  1  0  0.106133  0  0.937217  0  0  0.11627  0  1.004469  0  0  0.119022  0  1.002354  0  0  0.108698  0.114182  0  1.006095  0
H  H19  1  0.67185600  0.97590946  0.30890099  1  0  0.106103  0  0.937144  0  0  0.116309  0  1.004386  0  0  0.119069  0  1.002285  0  0  0.108705  0.114221  0  1.006007  0
H  H20  1  0.50252179  0.39921481  0.09752722  1  0  0.114306  0  0.929271  0  0  0.127225  0  0.993154  0  0  0.129622  0  0.991816  0  0  0.11759  0.125425  0  0.994266  0
H  H21  1  0.49748079  0.89923444  0.90248086  1  0  0.114387  0  0.92929  0  0  0.127285  0  0.993154  0  0  0.129676  0  0.991815  0  0  0.117597  0.125481  0  0.994269  0
H  H22  1  0.49747069  0.39922683  0.59752881  1  0  0.114365  0  0.929284  0  0  0.127258  0  0.993152  0  0  0.12964  0  0.991825  0  0  0.117649  0.125482  0  0.994234  0
H  H23  1  0.50253382  0.89920271  0.40246947  1  0  0.114307  0  0.929227  0  0  0.127246  0  0.993119  0  0  0.129663  0  0.991772  0  0  0.117587  0.125438  0  0.994229  0
H  H24  1  0.56524888  0.88078571  0.06917600  1  0  0.427411  0  0.865891  0  0  0.396508  0  0.932816  0  0  0.407112  0  0.917179  0  0  0.294184  0.38898  0  0.943901  0
H  H25  1  0.43470666  0.38081231  0.93082571  1  0  0.427462  0  0.865702  0  0  0.396543  0  0.932744  0  0  0.407147  0  0.917107  0  0  0.294192  0.389006  0  0.943845  0
H  H26  1  0.43469757  0.88079900  0.56916404  1  0  0.427327  0  0.865914  0  0  0.396435  0  0.932884  0  0  0.407038  0  0.917251  0  0  0.294144  0.38891  0  0.943965  0
H  H27  1  0.56526375  0.38077724  0.43083418  1  0  0.427336  0  0.865912  0  0  0.396457  0  0.932853  0  0  0.407068  0  0.917201  0  0  0.294175  0.38893  0  0.943938  0
H  H28  1  0.62914148  0.18662060  0.89652399  1  0  0.430209  0  0.875525  0  0  0.39486  0  0.94629  0  0  0.406497  0  0.929599  0  0  0.293393  0.386735  0  0.957891  0
H  H29  1  0.37083856  0.68660936  0.10348126  1  0  0.430327  0  0.875324  0  0  0.3949  0  0.946204  0  0  0.406537  0  0.929513  0  0  0.293409  0.386775  0  0.957806  0
H  H30  1  0.37083297  0.18661517  0.39652118  1  0  0.430241  0  0.875466  0  0  0.394898  0  0.94623  0  0  0.406533  0  0.929541  0  0  0.293419  0.386773  0  0.957829  0
H  H31  1  0.62915863  0.68662619  0.60347357  1  0  0.430179  0  0.875573  0  0  0.394813  0  0.946377  0  0  0.406449  0  0.929686  0  0  0.293368  0.38669  0  0.957976  0
H  H32  1  0.41318143  0.99860886  0.12605105  1  0  0.425557  0  0.876794  0  0  0.391681  0  0.944566  0  0  0.403537  0  0.92738  0  0  0.290615  0.383312  0  0.956666  0
H  H33  1  0.58678683  0.49862252  0.87394617  1  0  0.425623  0  0.876692  0  0  0.391695  0  0.944548  0  0  0.403554  0  0.927356  0  0  0.290583  0.383325  0  0.956649  0
H  H34  1  0.58679513  0.99861478  0.62605229  1  0  0.425572  0  0.876769  0  0  0.39163  0  0.944651  0  0  0.40349  0  0.927458  0  0  0.290562  0.383259  0  0.956754  0
H  H35  1  0.41320397  0.49859483  0.37394983  1  0  0.425483  0  0.876866  0  0  0.391683  0  0.944531  0  0  0.403536  0  0.927349  0  0  0.290641  0.383317  0  0.956626  0
H  H36  1  0.39201382  0.15368116  0.96416027  1  0  0.42527  0  0.868406  0  0  0.391861  0  0.94205  0  0  0.402897  0  0.926121  0  0  0.29586  0.384145  0  0.953162  0
H  H37  1  0.60796867  0.65365903  0.03583717  1  0  0.425119  0  0.868568  0  0  0.391781  0  0.942126  0  0  0.402822  0  0.92619  0  0  0.295796  0.384064  0  0.953241  0
H  H38  1  0.60797119  0.15366531  0.46416470  1  0  0.425144  0  0.868557  0  0  0.391803  0  0.942105  0  0  0.402842  0  0.926173  0  0  0.295809  0.384081  0  0.953226  0
H  H39  1  0.39202287  0.65366866  0.53583414  1  0  0.425252  0  0.86835  0  0  0.391842  0  0.942073  0  0  0.402879  0  0.926142  0  0  0.29584  0.384126  0  0.953186  0
C  C40  1  0.91940705  0.25074590  0.24890923  1  0  -0.145277  0  3.632513  0  0  -0.200142  0  3.888343  0  0  -0.201478  0  3.895268  0  0  -0.075425  -0.199063  0  3.883589  0
C  C41  1  0.08061427  0.75076018  0.75108644  1  0  -0.145386  0  3.632804  0  0  -0.200186  0  3.888425  0  0  -0.20154  0  3.895366  0  0  -0.075452  -0.199101  0  3.883662  0
C  C42  1  0.08060359  0.25075151  0.74891057  1  0  -0.1454  0  3.632691  0  0  -0.2002  0  3.888465  0  0  -0.201542  0  3.89539  0  0  -0.075483  -0.199115  0  3.883701  0
C  C43  1  0.91943508  0.75073174  0.25109910  1  0  -0.145394  0  3.63316  0  0  -0.200002  0  3.888736  0  0  -0.201329  0  3.895651  0  0  -0.075511  -0.198923  0  3.883977  0
C  C44  1  0.13717458  0.14883988  0.23148991  1  0  0.689177  0  3.832381  0  0  0.63145  0  4.145556  0  0  0.664319  0  4.138079  0  0  0.217011  0.609065  0  4.150069  0
C  C45  1  0.86282506  0.64886539  0.76850121  1  0  0.689172  0  3.832514  0  0  0.631293  0  4.145794  0  0  0.664163  0  4.138314  0  0  0.216995  0.608911  0  4.150307  0
C  C46  1  0.86281571  0.14884417  0.73150064  1  0  0.689501  0  3.832165  0  0  0.631606  0  4.145509  0  0  0.664478  0  4.138029  0  0  0.217132  0.609223  0  4.150025  0
C  C47  1  0.13718778  0.64882895  0.26851149  1  0  0.689094  0  3.833116  0  0  0.631272  0  4.146346  0  0  0.664137  0  4.138882  0  0  0.216919  0.608886  0  4.150862  0
C  C48  1  0.68693889  0.39736381  0.13557875  1  0  -0.14652  0  3.651678  0  0  -0.204332  0  3.91108  0  0  -0.205686  0  3.917915  0  0  -0.079311  -0.203331  0  3.906379  0
C  C49  1  0.31306939  0.89737978  0.86442442  1  0  -0.146762  0  3.651999  0  0  -0.204385  0  3.911178  0  0  -0.205713  0  3.917976  0  0  -0.079263  -0.20338  0  3.906471  0
C  C50  1  0.31305481  0.39737450  0.63557891  1  0  -0.146735  0  3.651824  0  0  -0.204369  0  3.911036  0  0  -0.205691  0  3.917839  0  0  -0.079308  -0.203385  0  3.906328  0
C  C51  1  0.68694576  0.89735768  0.36441586  1  0  -0.146418  0  3.651229  0  0  -0.204299  0  3.910892  0  0  -0.2057  0  3.91776  0  0  -0.079248  -0.203286  0  3.906174  0
C  C52  1  0.90003445  0.43575424  0.06682308  1  0  0.679645  0  3.84474  0  0  0.626688  0  4.15008  0  0  0.659675  0  4.144141  0  0  0.209831  0.60432  0  4.153284  0
C  C53  1  0.09996776  0.93575444  0.93316973  1  0  0.679782  0  3.844589  0  0  0.626651  0  4.150114  0  0  0.659644  0  4.144158  0  0  0.209763  0.604285  0  4.153314  0
C  C54  1  0.09996238  0.43575285  0.56682660  1  0  0.679879  0  3.844751  0  0  0.626843  0  4.150114  0  0  0.659828  0  4.144169  0  0  0.209824  0.604474  0  4.153318  0
C  C55  1  0.90002441  0.93576724  0.43316900  1  0  0.67982  0  3.844171  0  0  0.626652  0  4.149876  0  0  0.659647  0  4.143944  0  0  0.209648  0.604281  0  4.153075  0
N  N56  1  0.72631561  0.25744010  0.17329094  1  0  -0.385949  0  3.28596  0  0  -0.309415  0  3.53229  0  0  -0.327732  0  3.543761  0  0  -0.487877  -0.296978  0  3.524247  0
N  N57  1  0.27369829  0.75745426  0.82670825  1  0  -0.385774  0  3.285901  0  0  -0.309223  0  3.532141  0  0  -0.327551  0  3.543605  0  0  -0.48778  -0.296786  0  3.524096  0
N  N58  1  0.27368115  0.25744613  0.67329305  1  0  -0.386009  0  3.286049  0  0  -0.309518  0  3.532308  0  0  -0.327844  0  3.543764  0  0  -0.487909  -0.297081  0  3.524273  0
N  N59  1  0.72632889  0.75742645  0.32671244  1  0  -0.386149  0  3.285819  0  0  -0.309579  0  3.532085  0  0  -0.327898  0  3.543577  0  0  -0.487903  -0.297137  0  3.524044  0
O  O60  1  0.12984521  0.07070445  0.15919912  1  0  -0.644264  0  2.082639  0  0  -0.564932  0  2.328995  0  0  -0.593776  0  2.316715  0  0  -0.304895  -0.544859  0  2.336893  0
O  O61  1  0.87013761  0.57072537  0.84079453  1  0  -0.644223  0  2.08236  0  0  -0.564805  0  2.328739  0  0  -0.593639  0  2.316444  0  0  -0.304867  -0.544745  0  2.336647  0
O  O62  1  0.87015083  0.07070780  0.65920497  1  0  -0.644623  0  2.082363  0  0  -0.565112  0  2.328648  0  0  -0.593972  0  2.316366  0  0  -0.305028  -0.545046  0  2.336557  0
O  O63  1  0.12983970  0.57068986  0.34079288  1  0  -0.644009  0  2.082814  0  0  -0.564746  0  2.329226  0  0  -0.593591  0  2.316956  0  0  -0.304764  -0.544672  0  2.337116  0
O  O64  1  0.32225894  0.14691532  0.28906826  1  0  -0.629561  0  2.004921  0  0  -0.570324  0  2.232633  0  0  -0.594975  0  2.222846  0  0  -0.315986  -0.55323  0  2.238874  0
O  O65  1  0.67774061  0.64694843  0.71092566  1  0  -0.629598  0  2.005149  0  0  -0.570198  0  2.232803  0  0  -0.594842  0  2.223013  0  0  -0.315935  -0.553104  0  2.239044  0
O  O66  1  0.67773132  0.14692656  0.78906915  1  0  -0.629614  0  2.005321  0  0  -0.570229  0  2.232986  0  0  -0.594874  0  2.223192  0  0  -0.31592  -0.55314  0  2.239231  0
O  O67  1  0.32229522  0.64690089  0.21093596  1  0  -0.629748  0  2.004881  0  0  -0.570389  0  2.232608  0  0  -0.595048  0  2.222827  0  0  -0.316023  -0.553294  0  2.238849  0
O  O68  1  0.05323812  0.34420142  0.03881980  1  0  -0.604551  0  1.950803  0  0  -0.540723  0  2.181059  0  0  -0.565673  0  2.171903  0  0  -0.304039  -0.523561  0  2.186997  0
O  O69  1  0.94677947  0.84420028  0.96118249  1  0  -0.604545  0  1.950809  0  0  -0.540652  0  2.181145  0  0  -0.565619  0  2.172001  0  0  -0.303941  -0.523493  0  2.187085  0
O  O70  1  0.94678083  0.34420264  0.53881756  1  0  -0.604549  0  1.951185  0  0  -0.540715  0  2.181488  0  0  -0.565687  0  2.172353  0  0  -0.303979  -0.52355  0  2.187426  0
O  O71  1  0.05325603  0.84420631  0.46117773  1  0  -0.604807  0  1.950108  0  0  -0.540852  0  2.180419  0  0  -0.565748  0  2.17119  0  0  -0.304047  -0.523692  0  2.186369  0
O  O72  1  0.90487286  0.56436529  0.04096957  1  0  -0.670076  0  2.088549  0  0  -0.588831  0  2.347437  0  0  -0.619057  0  2.334202  0  0  -0.317492  -0.56771  0  2.355613  0
O  O73  1  0.09509427  0.06437215  0.95901777  1  0  -0.670181  0  2.088363  0  0  -0.588883  0  2.347325  0  0  -0.619113  0  2.334094  0  0  -0.317561  -0.567764  0  2.355508  0
O  O74  1  0.09510349  0.56437110  0.54097517  1  0  -0.670171  0  2.08824  0  0  -0.588889  0  2.347178  0  0  -0.619121  0  2.333954  0  0  -0.31753  -0.567785  0  2.355393  0
O  O75  1  0.90486942  0.06437154  0.45902686  1  0  -0.670115  0  2.088696  0  0  -0.58877  0  2.347637  0  0  -0.619006  0  2.334407  0  0  -0.317352  -0.56765  0  2.355838  0
O  O76  1  0.56030964  0.20399538  0.96166646  1  0  -0.838493  0  1.925585  0  0  -0.766478  0  2.135088  0  0  -0.790098  0  2.099869  0  0  -0.561613  -0.749753  0  2.159149  0
O  O77  1  0.43968077  0.70398458  0.03834165  1  0  -0.838441  0  1.925561  0  0  -0.766373  0  2.135026  0  0  -0.79  0  2.099807  0  0  -0.561577  -0.74965  0  2.159084  0
O  O78  1  0.43967936  0.20398877  0.46166252  1  0  -0.838391  0  1.925665  0  0  -0.766419  0  2.135063  0  0  -0.790049  0  2.09984  0  0  -0.561589  -0.749699  0  2.159134  0
O  O79  1  0.56031299  0.70399016  0.53833089  1  0  -0.838438  0  1.925532  0  0  -0.766441  0  2.13501  0  0  -0.790074  0  2.099806  0  0  -0.561592  -0.749717  0  2.159063  0
O  O80  1  0.58795549  0.96778855  0.10477584  1  0  -0.837329  0  1.923922  0  0  -0.779625  0  2.148065  0  0  -0.800342  0  2.110789  0  0  -0.581659  -0.765031  0  2.173837  0
O  O81  1  0.41201339  0.46780425  0.89521847  1  0  -0.83734  0  1.92365  0  0  -0.779622  0  2.14796  0  0  -0.800352  0  2.110706  0  0  -0.581569  -0.765026  0  2.173741  0
O  O82  1  0.41202287  0.96779222  0.60477709  1  0  -0.837196  0  1.923878  0  0  -0.779499  0  2.148192  0  0  -0.800201  0  2.110877  0  0  -0.581556  -0.764905  0  2.173965  0
O  O83  1  0.58797106  0.46777259  0.39522913  1  0  -0.837241  0  1.924103  0  0  -0.779604  0  2.14821  0  0  -0.800294  0  2.110901  0  0  -0.581703  -0.765016  0  2.173974  0
