# generated using pymatgen
data_LiHCO2
_symmetry_space_group_name_H-M   'P 1'
_cell_length_a   8.52991504
_cell_length_b   8.52991103
_cell_length_c   13.50946616
_cell_angle_alpha   97.45777856
_cell_angle_beta   97.45776279
_cell_angle_gamma   90.11623860
_symmetry_Int_Tables_number   1
_chemical_formula_structural   LiHCO2
_chemical_formula_sum   'Li16 H16 C16 O32'
_cell_volume   966.20329284
_cell_formula_units_Z   16
loop_
 _symmetry_equiv_pos_site_id
 _symmetry_equiv_pos_as_xyz
  1  'x, y, z'
loop_
 _atom_site_type_symbol
 _atom_site_label
 _atom_site_symmetry_multiplicity
 _atom_site_fract_x
 _atom_site_fract_y
 _atom_site_fract_z
 _atom_site_occupancy
 _atom_site_hle17_bader_spin_density
 _atom_site_hle17_ddec_charge
 _atom_site_hle17_ddec_spin_density
 _atom_site_hle17_ddec_sum_bond_order
 _atom_site_hle17_magmom
 _atom_site_hse06_10hf_bader_spin_density
 _atom_site_hse06_10hf_ddec_charge
 _atom_site_hse06_10hf_ddec_spin_density
 _atom_site_hse06_10hf_ddec_sum_bond_order
 _atom_site_hse06_10hf_magmom
 _atom_site_hse06_bader_spin_density
 _atom_site_hse06_ddec_charge
 _atom_site_hse06_ddec_spin_density
 _atom_site_hse06_ddec_sum_bond_order
 _atom_site_hse06_magmom
 _atom_site_pbe_bader_spin_density
 _atom_site_pbe_cm5_charge
 _atom_site_pbe_ddec_charge
 _atom_site_pbe_ddec_spin_density
 _atom_site_pbe_ddec_sum_bond_order
 _atom_site_pbe_magmom
Li  Li0  1  0.82787551  0.16598718  0.99401564  1  0  0.854319  0  0.408373  0  0  0.812438  0  0.516188  0  0  0.822804  0  0.498382  0  0  0.535707  0.804822  0  0.529125  0
Li  Li1  1  0.83401178  0.17212505  0.50598370  1  0  0.854321  0  0.408371  0  0  0.812439  0  0.516191  0  0  0.822804  0  0.498384  0  0  0.535711  0.804822  0  0.529129  0
Li  Li2  1  0.17212642  0.83401228  0.00598338  1  0  0.854318  0  0.408369  0  0  0.812437  0  0.516187  0  0  0.822804  0  0.498379  0  0  0.535708  0.804821  0  0.529124  0
Li  Li3  1  0.16598779  0.82787440  0.49401587  1  0  0.85431  0  0.408369  0  0  0.812435  0  0.516179  0  0  0.8228  0  0.498372  0  0  0.535712  0.804819  0  0.529116  0
Li  Li4  1  0.89440690  0.94244695  0.84096743  1  0  0.848907  0  0.419422  0  0  0.805537  0  0.531202  0  0  0.816225  0  0.512578  0  0  0.536265  0.797641  0  0.544819  0
Li  Li5  1  0.05755223  0.10559229  0.65903186  1  0  0.848919  0  0.419417  0  0  0.805554  0  0.531182  0  0  0.816243  0  0.512558  0  0  0.536268  0.797656  0  0.544798  0
Li  Li6  1  0.10559267  0.05755251  0.15903213  1  0  0.84892  0  0.419421  0  0  0.805544  0  0.531208  0  0  0.816234  0  0.512582  0  0  0.536252  0.797647  0  0.544824  0
Li  Li7  1  0.94244851  0.89440717  0.34096854  1  0  0.848922  0  0.419409  0  0  0.805556  0  0.531177  0  0  0.816244  0  0.512554  0  0  0.536265  0.797659  0  0.544793  0
Li  Li8  1  0.27505199  0.39098865  0.75072456  1  0  0.856689  0  0.403695  0  0  0.81604  0  0.508854  0  0  0.826348  0  0.49122  0  0  0.537358  0.808422  0  0.521766  0
Li  Li9  1  0.60901065  0.72494838  0.74927559  1  0  0.856691  0  0.403676  0  0  0.81605  0  0.508822  0  0  0.826357  0  0.491188  0  0  0.537359  0.808434  0  0.521733  0
Li  Li10  1  0.72494876  0.60901081  0.24927511  1  0  0.85669  0  0.403682  0  0  0.816039  0  0.508846  0  0  0.826346  0  0.491213  0  0  0.537352  0.808423  0  0.521759  0
Li  Li11  1  0.39098891  0.27505108  0.25072398  1  0  0.856696  0  0.403665  0  0  0.816049  0  0.508819  0  0  0.826357  0  0.491185  0  0  0.537359  0.808436  0  0.52173  0
Li  Li12  1  0.40952630  0.60291623  0.91158200  1  0  0.853564  0  0.403724  0  0  0.808652  0  0.516834  0  0  0.819926  0  0.497386  0  0  0.529323  0.800321  0  0.530992  0
Li  Li13  1  0.39708409  0.59047340  0.58841818  1  0  0.853572  0  0.403702  0  0  0.808663  0  0.51681  0  0  0.819936  0  0.497363  0  0  0.52933  0.80033  0  0.530966  0
Li  Li14  1  0.59047210  0.39708441  0.08841831  1  0  0.853575  0  0.403702  0  0  0.808671  0  0.516797  0  0  0.819944  0  0.49735  0  0  0.529329  0.800341  0  0.530953  0
Li  Li15  1  0.60291668  0.40952724  0.41158084  1  0  0.853573  0  0.403706  0  0  0.808661  0  0.51682  0  0  0.819935  0  0.497373  0  0  0.529325  0.800328  0  0.530977  0
H  H16  1  0.10655601  0.35529775  0.92264075  1  0  0.003069  0  0.892557  0  0  0.017166  0  0.952236  0  0  0.018043  0  0.947561  0  0  0.134946  0.016203  0  0.95585  0
H  H17  1  0.64470236  0.89344572  0.57735885  1  0  0.003051  0  0.892604  0  0  0.017155  0  0.952272  0  0  0.018031  0  0.9476  0  0  0.134947  0.016197  0  0.95588  0
H  H18  1  0.89344474  0.64470170  0.07736040  1  0  0.003068  0  0.892563  0  0  0.017156  0  0.952253  0  0  0.018034  0  0.947575  0  0  0.134925  0.016171  0  0.95589  0
H  H19  1  0.35529841  0.10655492  0.42264018  1  0  0.003077  0  0.892562  0  0  0.017166  0  0.952251  0  0  0.018044  0  0.947573  0  0  0.134923  0.016181  0  0.955888  0
H  H20  1  0.01272405  0.65652731  0.73468708  1  0  -0.002055  0  0.902018  0  0  0.008877  0  0.969559  0  0  0.009628  0  0.964466  0  0  0.130269  0.008022  0  0.973365  0
H  H21  1  0.34347216  0.98727524  0.76531228  1  0  -0.002049  0  0.901997  0  0  0.008863  0  0.969562  0  0  0.009616  0  0.964464  0  0  0.130266  0.008009  0  0.97337  0
H  H22  1  0.98727672  0.34347333  0.26531194  1  0  -0.002105  0  0.902003  0  0  0.008824  0  0.969547  0  0  0.009577  0  0.96445  0  0  0.130242  0.007971  0  0.973355  0
H  H23  1  0.65652741  0.01272421  0.23468728  1  0  -0.002051  0  0.902022  0  0  0.008876  0  0.969568  0  0  0.009628  0  0.964473  0  0  0.130268  0.008022  0  0.973375  0
H  H24  1  0.12817609  0.40192849  0.46952044  1  0  -0.007362  0  0.919403  0  0  0.004909  0  0.987698  0  0  0.004928  0  0.983479  0  0  0.123865  0.004624  0  0.990848  0
H  H25  1  0.59807104  0.87182410  0.03047868  1  0  -0.007319  0  0.919509  0  0  0.004951  0  0.987795  0  0  0.004972  0  0.983574  0  0  0.123898  0.004665  0  0.990945  0
H  H26  1  0.87182464  0.59806978  0.53047912  1  0  -0.007346  0  0.919516  0  0  0.004922  0  0.987809  0  0  0.004944  0  0.983586  0  0  0.123883  0.004636  0  0.990959  0
H  H27  1  0.40192853  0.12817536  0.96952014  1  0  -0.007349  0  0.919383  0  0  0.004922  0  0.987676  0  0  0.004941  0  0.983456  0  0  0.123859  0.004636  0  0.990825  0
H  H28  1  0.62449602  0.22372507  0.81139816  1  0  -0.00119  0  0.897812  0  0  0.010401  0  0.964319  0  0  0.011058  0  0.959466  0  0  0.129211  0.00965  0  0.967947  0
H  H29  1  0.77627793  0.37550277  0.68860139  1  0  -0.001207  0  0.89773  0  0  0.010375  0  0.964254  0  0  0.011032  0  0.959401  0  0  0.129194  0.009623  0  0.967885  0
H  H30  1  0.37550359  0.77627675  0.18860161  1  0  -0.0012  0  0.897723  0  0  0.010387  0  0.964244  0  0  0.011045  0  0.959387  0  0  0.129201  0.009635  0  0.967874  0
H  H31  1  0.22372281  0.62449669  0.31139828  1  0  -0.001217  0  0.897715  0  0  0.010354  0  0.96425  0  0  0.011012  0  0.959395  0  0  0.12919  0.009603  0  0.967879  0
C  C32  1  0.06679175  0.25132949  0.86627858  1  0  0.655871  0  3.91917  0  0  0.587092  0  4.234075  0  0  0.618594  0  4.223552  0  0  0.190413  0.565849  0  4.2405  0
C  C33  1  0.74866986  0.93320858  0.63372158  1  0  0.655886  0  3.919148  0  0  0.587104  0  4.234055  0  0  0.618605  0  4.223532  0  0  0.190451  0.565858  0  4.240482  0
C  C34  1  0.93321018  0.74866997  0.13372267  1  0  0.655949  0  3.919117  0  0  0.587178  0  4.23401  0  0  0.618679  0  4.223487  0  0  0.190463  0.565951  0  4.240434  0
C  C35  1  0.25132852  0.06679088  0.36627864  1  0  0.655892  0  3.919215  0  0  0.587116  0  4.234113  0  0  0.618618  0  4.223592  0  0  0.190442  0.565891  0  4.240533  0
C  C36  1  0.09654981  0.68162711  0.80535942  1  0  0.654103  0  3.921607  0  0  0.587545  0  4.231339  0  0  0.618964  0  4.221523  0  0  0.192567  0.56638  0  4.237281  0
C  C37  1  0.31837253  0.90345070  0.69464080  1  0  0.65414  0  3.921459  0  0  0.587595  0  4.231182  0  0  0.619016  0  4.221364  0  0  0.192591  0.566427  0  4.237128  0
C  C38  1  0.90344743  0.31837471  0.19464016  1  0  0.654236  0  3.921529  0  0  0.587679  0  4.231253  0  0  0.619099  0  4.221438  0  0  0.192656  0.566514  0  4.2372  0
C  C39  1  0.68162590  0.09655112  0.30535887  1  0  0.654122  0  3.921599  0  0  0.587567  0  4.231327  0  0  0.618988  0  4.221512  0  0  0.192587  0.566403  0  4.237272  0
C  C40  1  0.14487367  0.35568078  0.54325899  1  0  0.649746  0  3.929464  0  0  0.581872  0  4.243163  0  0  0.61313  0  4.233821  0  0  0.189006  0.560787  0  4.248848  0
C  C41  1  0.64431746  0.85512711  0.95674185  1  0  0.64974  0  3.929556  0  0  0.581872  0  4.243246  0  0  0.613131  0  4.233903  0  0  0.189008  0.560788  0  4.248931  0
C  C42  1  0.85512946  0.64431986  0.45674319  1  0  0.649726  0  3.929552  0  0  0.581854  0  4.243254  0  0  0.613112  0  4.233912  0  0  0.188988  0.560769  0  4.248938  0
C  C43  1  0.35568215  0.14487471  0.04326013  1  0  0.649735  0  3.929525  0  0  0.58186  0  4.243229  0  0  0.613118  0  4.233889  0  0  0.189007  0.560776  0  4.248912  0
C  C44  1  0.58320348  0.30867335  0.87188440  1  0  0.651138  0  3.927028  0  0  0.581787  0  4.24517  0  0  0.613362  0  4.234441  0  0  0.188212  0.560466  0  4.251832  0
C  C45  1  0.69132387  0.41679880  0.62811496  1  0  0.65121  0  3.927195  0  0  0.581873  0  4.245308  0  0  0.613448  0  4.234578  0  0  0.18825  0.560551  0  4.251969  0
C  C46  1  0.41679961  0.69132492  0.12811462  1  0  0.651214  0  3.927222  0  0  0.581874  0  4.245336  0  0  0.613448  0  4.23461  0  0  0.188258  0.560554  0  4.251998  0
C  C47  1  0.30867572  0.58320184  0.37188692  1  0  0.651255  0  3.927231  0  0  0.581928  0  4.245333  0  0  0.613501  0  4.234606  0  0  0.18827  0.560606  0  4.251997  0
O  O48  1  0.96247875  0.16040089  0.88752089  1  0  -0.746251  0  2.02564  0  0  -0.697212  0  2.28053  0  0  -0.718278  0  2.265385  0  0  -0.42738  -0.682536  0  2.290588  0
O  O49  1  0.83960169  0.03752131  0.61247870  1  0  -0.746286  0  2.025602  0  0  -0.697251  0  2.280494  0  0  -0.718317  0  2.265349  0  0  -0.427427  -0.682575  0  2.290553  0
O  O50  1  0.03752202  0.83959975  0.11247813  1  0  -0.746318  0  2.025605  0  0  -0.697279  0  2.280491  0  0  -0.718347  0  2.265346  0  0  -0.427418  -0.6826  0  2.290537  0
O  O51  1  0.16040026  0.96247933  0.38752116  1  0  -0.746282  0  2.025676  0  0  -0.697242  0  2.280562  0  0  -0.718308  0  2.265418  0  0  -0.427399  -0.682562  0  2.290608  0
O  O52  1  0.76558600  0.87004588  0.71438183  1  0  -0.767107  0  2.020982  0  0  -0.72056  0  2.277825  0  0  -0.742113  0  2.26255  0  0  -0.438365  -0.705499  0  2.287981  0
O  O53  1  0.12995563  0.23441331  0.78561767  1  0  -0.767138  0  2.020991  0  0  -0.720591  0  2.277829  0  0  -0.742146  0  2.262553  0  0  -0.438362  -0.705527  0  2.287981  0
O  O54  1  0.23441241  0.12995476  0.28561775  1  0  -0.76715  0  2.021002  0  0  -0.720598  0  2.277837  0  0  -0.742154  0  2.262562  0  0  -0.438347  -0.705533  0  2.287981  0
O  O55  1  0.87004750  0.76558733  0.21438302  1  0  -0.767165  0  2.021005  0  0  -0.72061  0  2.277836  0  0  -0.742165  0  2.262561  0  0  -0.438355  -0.705544  0  2.287978  0
O  O56  1  0.74906509  0.95227835  0.94319453  1  0  -0.747833  0  2.02738  0  0  -0.698131  0  2.280548  0  0  -0.719764  0  2.266985  0  0  -0.424357  -0.683049  0  2.289497  0
O  O57  1  0.04772264  0.25093556  0.55680430  1  0  -0.747782  0  2.027331  0  0  -0.69808  0  2.280498  0  0  -0.719711  0  2.266934  0  0  -0.424322  -0.682996  0  2.289446  0
O  O58  1  0.25093566  0.04772110  0.05680440  1  0  -0.7478  0  2.027298  0  0  -0.698095  0  2.280461  0  0  -0.719729  0  2.266899  0  0  -0.424312  -0.683011  0  2.289409  0
O  O59  1  0.95227811  0.74906389  0.44319610  1  0  -0.747763  0  2.027391  0  0  -0.698062  0  2.280556  0  0  -0.719692  0  2.266993  0  0  -0.424314  -0.68298  0  2.289503  0
O  O60  1  0.06581402  0.79827306  0.86788842  1  0  -0.751147  0  1.977539  0  0  -0.700035  0  2.219103  0  0  -0.721057  0  2.204007  0  0  -0.430437  -0.685394  0  2.229159  0
O  O61  1  0.20172724  0.93418571  0.63211106  1  0  -0.751161  0  1.977526  0  0  -0.700051  0  2.219082  0  0  -0.721073  0  2.203985  0  0  -0.43044  -0.685409  0  2.229138  0
O  O62  1  0.93418673  0.20172640  0.13211051  1  0  -0.751225  0  1.977423  0  0  -0.700114  0  2.218993  0  0  -0.721137  0  2.203896  0  0  -0.430491  -0.68547  0  2.229051  0
O  O63  1  0.79827351  0.06581374  0.36788934  1  0  -0.751202  0  1.977454  0  0  -0.700093  0  2.219023  0  0  -0.721116  0  2.203926  0  0  -0.430472  -0.68545  0  2.229081  0
O  O64  1  0.46558881  0.39229240  0.84780280  1  0  -0.748872  0  2.017603  0  0  -0.69975  0  2.273609  0  0  -0.720572  0  2.257743  0  0  -0.420994  -0.685209  0  2.284187  0
O  O65  1  0.60770841  0.53440758  0.65219714  1  0  -0.748918  0  2.017861  0  0  -0.699801  0  2.27386  0  0  -0.720622  0  2.257994  0  0  -0.42104  -0.685261  0  2.284439  0
O  O66  1  0.53440844  0.60770942  0.15219678  1  0  -0.748948  0  2.017924  0  0  -0.699834  0  2.273922  0  0  -0.720651  0  2.258048  0  0  -0.421045  -0.685296  0  2.284508  0
O  O67  1  0.39229233  0.46559187  0.34780253  1  0  -0.748965  0  2.017837  0  0  -0.699846  0  2.273827  0  0  -0.720667  0  2.257957  0  0  -0.421056  -0.685306  0  2.284408  0
O  O68  1  0.26016574  0.41306440  0.60676060  1  0  -0.746533  0  1.97341  0  0  -0.694791  0  2.214522  0  0  -0.715983  0  2.199942  0  0  -0.420729  -0.679981  0  2.224236  0
O  O69  1  0.58693321  0.73983428  0.89323864  1  0  -0.746528  0  1.97339  0  0  -0.694793  0  2.214501  0  0  -0.715986  0  2.199921  0  0  -0.420731  -0.67998  0  2.224213  0
O  O70  1  0.73983264  0.58693505  0.39323887  1  0  -0.74654  0  1.973324  0  0  -0.6948  0  2.214439  0  0  -0.715995  0  2.19986  0  0  -0.420736  -0.679989  0  2.224153  0
O  O71  1  0.41306513  0.26016281  0.10675989  1  0  -0.746502  0  1.9735  0  0  -0.694757  0  2.214594  0  0  -0.715948  0  2.200014  0  0  -0.420731  -0.679953  0  2.224321  0
O  O72  1  0.21404935  0.59302278  0.81694440  1  0  -0.747737  0  2.049874  0  0  -0.698623  0  2.304526  0  0  -0.720748  0  2.291145  0  0  -0.424329  -0.683154  0  2.313291  0
O  O73  1  0.40697665  0.78594814  0.68305480  1  0  -0.747774  0  2.049741  0  0  -0.698667  0  2.304397  0  0  -0.720791  0  2.291012  0  0  -0.424359  -0.683197  0  2.313165  0
O  O74  1  0.78595256  0.40697549  0.18305526  1  0  -0.747754  0  2.049958  0  0  -0.69864  0  2.304603  0  0  -0.720764  0  2.291223  0  0  -0.424335  -0.68317  0  2.313368  0
O  O75  1  0.59302406  0.21404896  0.31694467  1  0  -0.747716  0  2.049953  0  0  -0.698603  0  2.304601  0  0  -0.720728  0  2.29122  0  0  -0.424311  -0.683133  0  2.313365  0
O  O76  1  0.34196895  0.68701238  0.04027570  1  0  -0.761339  0  2.013729  0  0  -0.713236  0  2.265906  0  0  -0.734522  0  2.250404  0  0  -0.430572  -0.698388  0  2.276237  0
O  O77  1  0.31298788  0.65803017  0.45972341  1  0  -0.761342  0  2.013805  0  0  -0.713239  0  2.265972  0  0  -0.734523  0  2.250468  0  0  -0.430566  -0.698394  0  2.276306  0
O  O78  1  0.65803303  0.31298945  0.95972500  1  0  -0.761336  0  2.013714  0  0  -0.713232  0  2.265897  0  0  -0.734516  0  2.250394  0  0  -0.430579  -0.698387  0  2.276229  0
O  O79  1  0.68701166  0.34196810  0.54027532  1  0  -0.761353  0  2.013728  0  0  -0.713249  0  2.265898  0  0  -0.734535  0  2.250394  0  0  -0.430567  -0.698402  0  2.276225  0
