# generated using pymatgen
data_SrH4(C2O3)2
_symmetry_space_group_name_H-M   'P 1'
_cell_length_a   6.40947053
_cell_length_b   6.40948138
_cell_length_c   7.57892993
_cell_angle_alpha   90.00004179
_cell_angle_beta   90.00013001
_cell_angle_gamma   103.24675523
_symmetry_Int_Tables_number   1
_chemical_formula_structural   SrH4(C2O3)2
_chemical_formula_sum   'Sr2 H8 C8 O12'
_cell_volume   303.06851129
_cell_formula_units_Z   2
loop_
 _symmetry_equiv_pos_site_id
 _symmetry_equiv_pos_as_xyz
  1  'x, y, z'
loop_
 _atom_site_type_symbol
 _atom_site_label
 _atom_site_symmetry_multiplicity
 _atom_site_fract_x
 _atom_site_fract_y
 _atom_site_fract_z
 _atom_site_occupancy
 _atom_site_pbe_bader_spin_density
 _atom_site_pbe_cm5_charge
 _atom_site_pbe_ddec_charge
 _atom_site_pbe_ddec_spin_density
 _atom_site_pbe_ddec_sum_bond_order
 _atom_site_pbe_magmom
Sr  Sr0  1  0.08840501  0.91159362  0.25000004  1  0  0.996223  1.437561  0  1.582299  0
Sr  Sr1  1  0.91159390  0.08840875  0.74999860  1  0  0.996221  1.437547  0  1.582316  0
H  H2  1  0.62533712  0.38676559  0.44904696  1  0  0.120622  0.07656  0  0.987894  0
H  H3  1  0.37466358  0.61323548  0.94904746  1  0  0.120622  0.076544  0  0.987898  0
H  H4  1  0.61323332  0.37466065  0.05095249  1  0  0.120619  0.076556  0  0.987898  0
H  H5  1  0.38676543  0.62533660  0.55095302  1  0  0.120623  0.076555  0  0.987907  0
H  H6  1  0.29479230  0.39393222  0.26181705  1  0  0.311989  0.354924  0  0.973755  0
H  H7  1  0.70520590  0.60606697  0.76181950  1  0  0.311954  0.35489  0  0.973806  0
H  H8  1  0.60606625  0.70520658  0.23818218  1  0  0.311971  0.354916  0  0.973753  0
H  H9  1  0.39393575  0.29479576  0.73818120  1  0  0.311973  0.354919  0  0.973742  0
C  C10  1  0.62201516  0.07409500  0.34971886  1  0  0.238763  0.609319  0  4.142636  0
C  C11  1  0.37798487  0.92590431  0.84972087  1  0  0.238736  0.609252  0  4.1427  0
C  C12  1  0.92590282  0.37798376  0.15028080  1  0  0.238785  0.609315  0  4.142617  0
C  C13  1  0.07409660  0.62201525  0.65027940  1  0  0.238777  0.609318  0  4.142597  0
C  C14  1  0.57304160  0.29656660  0.32661667  1  0  0.011639  0.047383  0  3.861929  0
C  C15  1  0.42696066  0.70343588  0.82661732  1  0  0.011624  0.047441  0  3.86187  0
C  C16  1  0.70343269  0.42695681  0.17338413  1  0  0.01161  0.047345  0  3.861948  0
C  C17  1  0.29656642  0.57304063  0.67338312  1  0  0.011642  0.047369  0  3.861913  0
O  O18  1  0.48590625  0.91062345  0.29426789  1  0  -0.341521  -0.585786  0  2.222975  0
O  O19  1  0.51409516  0.08937578  0.79426964  1  0  -0.341521  -0.585782  0  2.22302  0
O  O20  1  0.08937757  0.51409422  0.20573246  1  0  -0.341514  -0.585774  0  2.223008  0
O  O21  1  0.91062202  0.48590488  0.70572994  1  0  -0.341535  -0.585792  0  2.222983  0
O  O22  1  0.79929041  0.07034202  0.42305260  1  0  -0.395029  -0.664545  0  2.280392  0
O  O23  1  0.20071177  0.92965901  0.92305559  1  0  -0.395014  -0.664518  0  2.280386  0
O  O24  1  0.92965690  0.20070811  0.07694586  1  0  -0.395049  -0.664541  0  2.28034  0
O  O25  1  0.07034267  0.79929238  0.57694720  1  0  -0.395044  -0.664558  0  2.280366  0
O  O26  1  0.34927341  0.26685576  0.29974854  1  0  -0.444576  -0.556629  0  2.443128  0
O  O27  1  0.65072454  0.73314188  0.79974832  1  0  -0.444517  -0.556593  0  2.443151  0
O  O28  1  0.73314301  0.65072427  0.20025213  1  0  -0.444526  -0.556591  0  2.44309  0
O  O29  1  0.26685657  0.34927482  0.70025094  1  0  -0.444545  -0.556603  0  2.443095  0
