# generated using pymatgen
data_AlH7C12SNO5F
_symmetry_space_group_name_H-M   'P 1'
_cell_length_a   6.64552205
_cell_length_b   12.79569148
_cell_length_c   16.87913238
_cell_angle_alpha   85.38402097
_cell_angle_beta   83.34459102
_cell_angle_gamma   74.65676184
_symmetry_Int_Tables_number   1
_chemical_formula_structural   AlH7C12SNO5F
_chemical_formula_sum   'Al2 H14 C24 S2 N2 O10 F2'
_cell_volume   1372.95633792
_cell_formula_units_Z   2
loop_
 _symmetry_equiv_pos_site_id
 _symmetry_equiv_pos_as_xyz
  1  'x, y, z'
loop_
 _atom_site_type_symbol
 _atom_site_label
 _atom_site_symmetry_multiplicity
 _atom_site_fract_x
 _atom_site_fract_y
 _atom_site_fract_z
 _atom_site_occupancy
 _atom_site_pbe_bader_charge
 _atom_site_pbe_bader_spin_density
 _atom_site_pbe_cm5_charge
 _atom_site_pbe_ddec_charge
 _atom_site_pbe_ddec_spin_density
 _atom_site_pbe_ddec_sum_bond_order
 _atom_site_pbe_magmom
Al  Al0  1  0.49914230  0.50040025  0.49988960  1  2.502104  0  0.397904  1.636847  0  2.590956  0
Al  Al1  1  0.99905837  0.50046523  0.50003631  1  2.505536  0  0.398194  1.646613  0  2.57072  0
H  H2  1  0.20394543  0.62533677  0.44445047  1  0.643995  0  0.353451  0.433338  0  0.851662  0
H  H3  1  0.79416647  0.37562250  0.55565632  1  0.60866  0  0.353651  0.433251  0  0.85158  0
H  H4  1  0.93583592  0.42987574  0.73704345  1  0.09046  0  0.108813  0.113321  0  0.994955  0
H  H5  1  0.86302704  0.42890963  0.88636627  1  0.093891  0  0.106487  0.110081  0  1.015055  0
H  H6  1  0.32286605  0.60776837  0.89404790  1  0.080753  0  0.106168  0.111855  0  1.004035  0
H  H7  1  0.68189131  0.38995707  0.10593699  1  0.081302  0  0.106488  0.112235  0  1.002868  0
H  H8  1  0.13760297  0.57121607  0.11391582  1  0.101012  0  0.106752  0.110426  0  1.015277  0
H  H9  1  0.06255813  0.57122471  0.26314130  1  0.094456  0  0.109073  0.113642  0  0.995843  0
H  H10  1  0.49545733  0.66877005  0.78269550  1  0.040419  0  0.088942  0.122945  0  1.001932  0
H  H11  1  0.38275974  0.68605645  0.68997727  1  0.050539  0  0.093567  0.134472  0  0.992605  0
H  H12  1  0.58534692  0.57034297  0.70873865  1  0.072761  0  0.100741  0.150882  0  0.995562  0
H  H13  1  0.41550945  0.42864674  0.29016563  1  0.08865  0  0.100486  0.150734  0  0.994996  0
H  H14  1  0.61835930  0.31382563  0.31067938  1  0.050893  0  0.093806  0.134942  0  0.992988  0
H  H15  1  0.50906030  0.32884880  0.21735928  1  0.035564  0  0.089143  0.123167  0  1.002492  0
C  C16  1  0.65549599  0.69532961  0.50388829  1  1.666216  0  0.262357  0.669805  0  4.14103  0
C  C17  1  0.78831355  0.49258561  0.35637273  1  1.566063  0  0.264708  0.64038  0  4.09159  0
C  C18  1  0.34255005  0.30552140  0.49603461  1  1.635391  0  0.260783  0.668337  0  4.148003  0
C  C19  1  0.21050447  0.50792202  0.64359646  1  1.571516  0  0.265543  0.641473  0  4.093183  0
C  C20  1  0.17375752  0.51627053  0.73202438  1  -0.03821  0  -0.012403  -0.105551  0  3.897436  0
C  C21  1  0.02093910  0.46775068  0.77266384  1  -0.077822  0  -0.079918  -0.075353  0  4.00086  0
C  C22  1  0.97981057  0.46705269  0.85489089  1  0.023285  0  -0.088236  -0.152765  0  3.969802  0
C  C23  1  0.09244900  0.51768546  0.89837149  1  0.36374  0  0.086776  0.178702  0  4.065532  0
C  C24  1  0.24112364  0.56807649  0.85816869  1  -0.092056  0  -0.081873  -0.208617  0  3.908529  0
C  C25  1  0.28657442  0.56858666  0.77510756  1  0.058229  0  0.006776  0.179358  0  3.922191  0
C  C26  1  0.76230530  0.43028844  0.14189613  1  -0.087982  0  -0.0815  -0.207542  0  3.908217  0
C  C27  1  0.91063271  0.48096323  0.10181345  1  0.357405  0  0.086457  0.177668  0  4.066793  0
C  C28  1  0.02143149  0.53262738  0.14531480  1  0.016471  0  -0.087603  -0.15205  0  3.9702  0
C  C29  1  0.97898267  0.53249208  0.22750853  1  -0.08967  0  -0.080645  -0.07656  0  4.001807  0
C  C30  1  0.82656547  0.48360037  0.26801425  1  -0.036721  0  -0.012315  -0.104239  0  3.896815  0
C  C31  1  0.71549429  0.43035615  0.22490026  1  0.059203  0  0.006964  0.178808  0  3.923599  0
C  C32  1  0.58666158  0.11536138  0.51989352  1  0.569818  0  0.101496  0.254993  0  4.069302  0
C  C33  1  0.41122837  0.88549125  0.48000439  1  0.540141  0  0.101282  0.255372  0  4.069737  0
C  C34  1  0.40471209  0.18668660  0.49630900  1  -0.119695  0  -0.029458  -0.2507  0  3.966188  0
C  C35  1  0.59312883  0.81417705  0.50360677  1  -0.123404  0  -0.029629  -0.250893  0  3.96737  0
C  C36  1  0.40689381  0.99548463  0.48562283  1  -0.087416  0  -0.030346  -0.121591  0  4.120273  0
C  C37  1  0.59108635  0.00536525  0.51424826  1  -0.164744  0  -0.030412  -0.12123  0  4.120471  0
C  C38  1  0.44630902  0.62650548  0.73730554  1  -0.073775  0  -0.238561  -0.412831  0  3.960301  0
C  C39  1  0.55589217  0.37230325  0.26260534  1  -0.084939  0  -0.238953  -0.413768  0  3.962323  0
S  S40  1  0.23293319  0.11872124  0.46686604  1  0.319189  0  0.107701  0.189538  0  2.789209  0
S  S41  1  0.76488248  0.88211353  0.53310872  1  0.320912  0  0.107631  0.189448  0  2.790184  0
N  N42  1  0.06691251  0.52369991  0.98227567  1  -0.50395  0  -0.149798  -0.136794  0  3.275327  0
N  N43  1  0.93698146  0.47464553  0.01793495  1  -0.456879  0  -0.149335  -0.13682  0  3.276131  0
O  O44  1  0.51721440  0.64835224  0.49063636  1  -1.25493  0  -0.231869  -0.585514  0  2.34032  0
O  O45  1  0.93107253  0.51528728  0.39132811  1  -1.270068  0  -0.242491  -0.608955  0  2.354557  0
O  O46  1  0.15308970  0.35167231  0.48324204  1  -1.25064  0  -0.235662  -0.583061  0  2.314002  0
O  O47  1  0.38378636  0.52042167  0.60874705  1  -1.260647  0  -0.231315  -0.582751  0  2.374163  0
O  O48  1  0.48108429  0.35244525  0.50909727  1  -1.251503  0  -0.230947  -0.584922  0  2.341941  0
O  O49  1  0.06710415  0.48562350  0.60876905  1  -1.268896  0  -0.243299  -0.609736  0  2.35514  0
O  O50  1  0.84487230  0.64924505  0.51682979  1  -1.259207  0  -0.236099  -0.583692  0  2.310248  0
O  O51  1  0.61474017  0.48021438  0.39101491  1  -1.252803  0  -0.230999  -0.582161  0  2.371399  0
O  O52  1  0.23389814  0.55025474  0.46449928  1  -1.442647  0  -0.447925  -0.991904  0  2.197844  0
O  O53  1  0.76424307  0.45063777  0.53544470  1  -1.408517  0  -0.448339  -0.992055  0  2.19948  0
F  F54  1  0.74428679  0.14558670  0.54708456  1  -0.624738  0  -0.085895  -0.114923  0  1.39407  0
F  F55  1  0.25352182  0.85532918  0.45281713  1  -0.626717  0  -0.086318  -0.115654  0  1.392508  0
