# generated using pymatgen
data_Al2H17C22NO10
_symmetry_space_group_name_H-M   'P 1'
_cell_length_a   6.66543715
_cell_length_b   11.15562945
_cell_length_c   11.09226818
_cell_angle_alpha   82.21208685
_cell_angle_beta   73.46882617
_cell_angle_gamma   71.95722943
_symmetry_Int_Tables_number   1
_chemical_formula_structural   Al2H17C22NO10
_chemical_formula_sum   'Al2 H17 C22 N1 O10'
_cell_volume   750.79851324
_cell_formula_units_Z   1
loop_
 _symmetry_equiv_pos_site_id
 _symmetry_equiv_pos_as_xyz
  1  'x, y, z'
loop_
 _atom_site_type_symbol
 _atom_site_label
 _atom_site_symmetry_multiplicity
 _atom_site_fract_x
 _atom_site_fract_y
 _atom_site_fract_z
 _atom_site_occupancy
 _atom_site_pbe_bader_charge
 _atom_site_pbe_bader_spin_density
 _atom_site_pbe_cm5_charge
 _atom_site_pbe_ddec_charge
 _atom_site_pbe_ddec_spin_density
 _atom_site_pbe_ddec_sum_bond_order
 _atom_site_pbe_magmom
Al  Al0  1  0.48853231  0.50396523  0.50902770  1  2.50093  0  0.39485  1.637983  0  2.590887  0
Al  Al1  1  0.98950006  0.50423895  0.50296171  1  2.504374  0  0.39638  1.631409  0  2.591043  0
H  H2  1  0.28924734  0.35075278  0.56380563  1  0.598717  0  0.34963  0.421917  0  0.868285  0
H  H3  1  0.69327152  0.65573443  0.43867108  1  0.601198  0  0.345987  0.418849  0  0.880676  0
H  H4  1  0.09563159  0.56963510  0.11230794  1  0.124096  0  0.101132  0.107557  0  1.030382  0
H  H5  1  0.76065105  0.45896446  0.13697222  1  0.082666  0  0.111079  0.127091  0  0.997915  0
H  H6  1  0.23064661  0.57055559  0.87571046  1  0.093814  0  0.106261  0.107829  0  1.018567  0
H  H7  1  0.26016488  0.23410038  0.31761114  1  0.090517  0  0.103498  0.117714  0  1.033819  0
H  H8  1  0.45923131  0.76723522  0.32731984  1  0.095357  0  0.104355  0.108996  0  1.046223  0
H  H9  1  0.73520190  0.88964496  0.59930469  1  0.088588  0  0.111682  0.11794  0  0.984205  0
H  H10  1  0.62873371  0.12537695  0.58930258  1  0.127656  0  0.108077  0.109668  0  0.994602  0
H  H11  1  0.00172663  0.45634635  0.79866305  1  0.53282  0  0.309234  0.323282  0  0.972963  0
H  H12  1  0.04757609  0.42962401  0.94959129  1  0.450533  0  0.306323  0.300946  0  0.962989  0
H  H13  1  0.81331903  0.10861799  0.19500781  1  0.035616  0  0.09395  0.130305  0  0.994537  0
H  H14  1  0.58778506  0.23689670  0.17137949  1  0.034954  0  0.089039  0.126491  0  1.025075  0
H  H15  1  0.70180790  0.11046213  0.06797444  1  0.03673  0  0.092912  0.125875  0  0.991821  0
H  H16  1  0.79295285  0.88281542  0.07215240  1  0.032408  0  0.094523  0.128176  0  0.992546  0
H  H17  1  0.79232363  0.75443743  0.18634058  1  0.041821  0  0.094208  0.132799  0  1.003159  0
H  H18  1  0.91515828  0.87205803  0.19650849  1  0.044442  0  0.09435  0.131296  0  0.99421  0
C  C19  1  0.86704201  0.27697321  0.48496616  1  1.556575  0  0.274499  0.656685  0  4.068715  0
C  C20  1  0.63106818  0.50533304  0.73505334  1  1.543915  0  0.260305  0.647409  0  4.10017  0
C  C21  1  0.11962165  0.73169721  0.50479571  1  1.545759  0  0.272474  0.652474  0  4.085069  0
C  C22  1  0.35086778  0.50864489  0.27708712  1  1.568724  0  0.26157  0.626156  0  4.113408  0
C  C23  1  0.56825970  0.51061097  0.87336114  1  0.006636  0  -0.031302  -0.175474  0  3.934999  0
C  C24  1  0.42369016  0.51121987  0.13668521  1  -0.013258  0  -0.015848  -0.016176  0  4.030549  0
C  C25  1  0.72544622  0.48006983  0.94576834  1  0.463655  0  0.115885  0.314339  0  4.070889  0
C  C26  1  0.26910467  0.54383897  0.06486262  1  -0.066441  0  -0.11205  -0.161112  0  4.04446  0
C  C27  1  0.64574339  0.48203832  0.07838077  1  -0.030975  0  -0.094677  -0.221383  0  3.920701  0
C  C28  1  0.34417698  0.54401350  0.93506148  1  -0.085071  0  -0.090518  -0.082041  0  4.043657  0
C  C29  1  0.93977735  0.13744700  0.47331290  1  -0.020824  0  -0.008676  -0.087449  0  3.934786  0
C  C30  1  0.15239772  0.07061548  0.40204700  1  -0.032914  0  -0.002893  0.058166  0  3.98189  0
C  C31  1  0.79121015  0.07227611  0.53866239  1  -0.142873  0  -0.082042  -0.090615  0  4.00806  0
C  C32  1  0.30402716  0.13148171  0.32227465  1  -0.02825  0  -0.097954  -0.205009  0  3.954163  0
C  C33  1  0.50440594  0.06541600  0.24972973  1  -0.021864  0  -0.006962  0.121483  0  3.95797  0
C  C34  1  0.05949033  0.87166498  0.48381344  1  -0.005982  0  -0.007737  -0.08074  0  3.94029  0
C  C35  1  0.85047889  0.94009013  0.54429499  1  0.054501  0  -0.082752  -0.097738  0  4.00696  0
C  C36  1  0.21209187  0.93482653  0.40647592  1  -0.009223  0  -0.002604  0.060984  0  3.980682  0
C  C37  1  0.41662758  0.86951137  0.32899480  1  -0.021051  0  -0.099898  -0.211279  0  3.971766  0
C  C38  1  0.56194605  0.93066598  0.25262196  1  -0.050887  0  -0.007545  0.119582  0  3.962881  0
C  C39  1  0.65882730  0.13437189  0.16699066  1  -0.043742  0  -0.235771  -0.398028  0  3.969083  0
C  C40  1  0.77616153  0.85592919  0.17297775  1  -0.056476  0  -0.234382  -0.403274  0  3.971903  0
N  N41  1  0.94445052  0.44656498  0.89367846  1  -1.306231  0  -0.584404  -0.605182  0  3.360006  0
O  O42  1  0.66387458  0.33198339  0.49873512  1  -1.25682  0  -0.234359  -0.596793  0  2.347441  0
O  O43  1  0.83092103  0.49687653  0.67690173  1  -1.27179  0  -0.239204  -0.602007  0  2.379612  0
O  O44  1  0.97304208  0.67752965  0.51339430  1  -1.258181  0  -0.235567  -0.593282  0  2.337265  0
O  O45  1  0.49328778  0.50512202  0.33443240  1  -1.264591  0  -0.239017  -0.595157  0  2.38079  0
O  O46  1  0.31211443  0.67535272  0.51505298  1  -1.264864  0  -0.230729  -0.589581  0  2.373635  0
O  O47  1  0.15256963  0.51076631  0.32859339  1  -1.260297  0  -0.239277  -0.593  0  2.344891  0
O  O48  1  0.00839099  0.33205427  0.48516873  1  -1.260023  0  -0.232027  -0.591907  0  2.363128  0
O  O49  1  0.48363774  0.50712427  0.68163879  1  -1.268687  0  -0.244233  -0.600522  0  2.345672  0
O  O50  1  0.24422987  0.44246500  0.55918434  1  -1.406919  0  -0.447938  -0.979386  0  2.175132  0
O  O51  1  0.73227287  0.56460431  0.45293966  1  -1.408768  0  -0.451836  -0.986266  0  2.204265  0
