# generated using pymatgen
data_Zn8H37C70N8(O2F)13
_symmetry_space_group_name_H-M   'P 1'
_cell_length_a   18.33000917
_cell_length_b   18.29748517
_cell_length_c   18.32747205
_cell_angle_alpha   60.74844792
_cell_angle_beta   61.01746305
_cell_angle_gamma   60.86355224
_symmetry_Int_Tables_number   1
_chemical_formula_structural   Zn8H37C70N8(O2F)13
_chemical_formula_sum   'Zn8 H37 C70 N8 O26 F13'
_cell_volume   4432.35560037
_cell_formula_units_Z   1
loop_
 _symmetry_equiv_pos_site_id
 _symmetry_equiv_pos_as_xyz
  1  'x, y, z'
loop_
 _atom_site_type_symbol
 _atom_site_label
 _atom_site_symmetry_multiplicity
 _atom_site_fract_x
 _atom_site_fract_y
 _atom_site_fract_z
 _atom_site_occupancy
 _atom_site_pbe_bader_charge
 _atom_site_pbe_bader_spin_density
 _atom_site_pbe_cm5_charge
 _atom_site_pbe_ddec_charge
 _atom_site_pbe_ddec_spin_density
 _atom_site_pbe_ddec_sum_bond_order
 _atom_site_pbe_magmom
Zn  Zn0  1  0.54451234  0.05147980  0.53856094  1  1.327788  0  0.685805  0.977993  0  2.35202  0
Zn  Zn1  1  0.54748305  0.87201691  0.54225257  1  1.309205  0  0.673193  0.951692  0  2.389971  0
Zn  Zn2  1  0.54114134  0.04107092  0.37088367  1  1.30315  0  0.67253  0.95771  0  2.402116  0
Zn  Zn3  1  0.37067363  0.04185865  0.54768076  1  1.307759  0  0.670428  0.9558  0  2.369731  0
Zn  Zn4  1  0.95798815  0.45882534  0.94956173  1  1.323786  0  0.676235  0.965318  0  2.361152  0
Zn  Zn5  1  0.95462244  0.45815622  0.12903243  1  1.310194  0  0.676  0.965209  0  2.367387  0
Zn  Zn6  1  0.96356563  0.63019227  0.95519835  1  1.315821  0  0.680105  0.970163  0  2.379628  0
Zn  Zn7  1  0.12678441  0.45500576  0.95699110  1  1.293894  0  0.668138  0.94262  0  2.413018  0
H  H8  1  0.91598484  0.41034409  0.67617243  1  0.074262  0  0.117362  0.138063  0  0.970168  0
H  H9  1  0.04164958  0.86282504  0.82412430  1  0.076385  0  0.106801  0.071347  0  0.947377  0
H  H10  1  0.17969627  0.89536311  0.84130420  1  0.073879  0  0.115976  0.083389  0  0.937181  0
H  H11  1  0.70260687  0.91167088  0.18592526  1  0.129975  0  0.119912  0.149488  0  0.975088  0
H  H12  1  0.70559373  0.55214277  0.36288223  1  0.046042  0  0.109213  0.074056  0  0.966371  0
H  H13  1  0.83429115  0.82235519  0.76774037  1  0.106606  0  0.113899  0.143367  0  0.987468  0
H  H14  1  0.83317740  0.53676216  0.75479183  1  0.080594  0  0.09455  0.106319  0  1.007695  0
H  H15  1  0.45650574  0.31104430  0.64105242  1  0.066382  0  0.100325  0.114204  0  0.995072  0
H  H16  1  0.73677385  0.55165815  0.84784727  1  0.079828  0  0.099459  0.111124  0  0.976303  0
H  H17  1  0.74040085  0.63794088  0.65352486  1  0.058437  0  0.103317  0.121323  0  0.97299  0
H  H18  1  0.64417168  0.65250402  0.74687960  1  0.087018  0  0.101738  0.114523  0  0.97369  0
H  H19  1  0.07198183  0.38177715  0.65480803  1  0.088014  0  0.108118  0.114783  0  0.983817  0
H  H20  1  0.19088916  0.20731271  0.68861943  1  0.088944  0  0.103525  0.11904  0  1.016452  0
H  H21  1  0.03364854  0.21571142  0.92859749  1  0.092301  0  0.115063  0.140256  0  0.972291  0
H  H22  1  0.74060342  0.03667682  0.71679605  1  0.420118  0  0.297106  0.29788  0  0.949251  0
H  H23  1  0.74034902  0.13980641  0.64608104  1  0.435011  0  0.295035  0.287216  0  0.968245  0
H  H24  1  0.77477315  0.42279257  0.32127568  1  0.415158  0  0.281894  0.277835  0  0.991972  0
H  H25  1  0.67694410  0.43163905  0.32983838  1  0.387244  0  0.282563  0.267749  0  0.96834  0
H  H26  1  0.39461845  0.55490875  0.69044602  1  0.474019  0  0.311265  0.310039  0  0.944447  0
H  H27  1  0.29924600  0.52824036  0.77010721  1  0.481147  0  0.304555  0.319874  0  0.970111  0
H  H28  1  0.16035709  0.02287337  0.72219859  1  0.403245  0  0.286229  0.282068  0  0.96547  0
H  H29  1  0.11747160  0.98967091  0.68827706  1  0.389937  0  0.280805  0.266266  0  0.975011  0
H  H30  1  0.71711018  0.18717653  0.17167630  1  0.087764  0  0.114129  0.122457  0  0.981873  0
H  H31  1  0.87968291  0.50479643  0.37249790  1  0.42152  0  0.2836  0.278044  0  0.974527  0
H  H32  1  0.81388183  0.44433326  0.42972977  1  0.425141  0  0.289047  0.276488  0  0.958582  0
H  H33  1  0.59313431  0.60356999  0.47561708  1  0.415366  0  0.291618  0.289217  0  0.968097  0
H  H34  1  0.58706616  0.67885591  0.50724024  1  0.431977  0  0.286392  0.302399  0  0.97155  0
H  H35  1  0.65076230  0.28194172  0.65259579  1  0.408797  0  0.295943  0.28565  0  0.954241  0
H  H36  1  0.59762437  0.33393416  0.57842423  1  0.441616  0  0.292659  0.28599  0  0.965085  0
H  H37  1  0.28397698  0.30016554  0.88636682  1  0.484524  0  0.301745  0.317141  0  0.987156  0
H  H38  1  0.39038670  0.24702710  0.82366279  1  0.445533  0  0.302467  0.301698  0  0.971471  0
H  H39  1  0.81571903  0.27890622  0.07826466  1  0.136278  0  0.102337  0.111558  0  1.040023  0
H  H40  1  0.82319655  0.26908488  0.37209051  1  0.088814  0  0.115394  0.093703  0  0.941415  0
H  H41  1  0.40698185  0.18652957  0.18975634  1  0.162278  0  0.122907  0.152751  0  0.970883  0
H  H42  1  0.60420757  0.99757973  0.79433890  1  0.097611  0  0.105561  0.138631  0  0.99248  0
H  H43  1  0.02009996  0.29646031  0.36868191  1  0.07999  0  0.107416  0.07424  0  0.957467  0
H  H44  1  0.11353537  0.18657406  0.47133414  1  0.084059  0  0.106737  0.070704  0  0.953362  0
C  C45  1  0.36886394  0.85735789  0.63773365  1  1.577601  0  0.230655  0.635101  0  4.157385  0
C  C46  1  0.34560520  0.21332690  0.73635539  1  -0.036611  0  -0.003657  -0.023441  0  3.903958  0
C  C47  1  0.00944297  0.25935545  0.87248313  1  0.03081  0  -0.095723  -0.231354  0  3.978073  0
C  C48  1  0.63573220  0.14188929  0.35091898  1  1.521381  0  0.230294  0.605417  0  4.180231  0
C  C49  1  0.92360724  0.27483326  0.88287551  1  0.493504  0  0.08673  0.177811  0  4.095447  0
C  C50  1  0.88983757  0.32966836  0.81275530  1  0.433607  0  0.085157  0.167513  0  4.113682  0
C  C51  1  0.94283303  0.36865926  0.73068854  1  0.042602  0  -0.09807  -0.189826  0  4.052671  0
C  C52  1  0.02982913  0.35228441  0.71948505  1  0.025589  0  -0.089662  -0.121719  0  3.979839  0
C  C53  1  0.06387800  0.29837234  0.78990011  1  0.01272  0  -0.003513  0.10105  0  3.995841  0
C  C54  1  0.71502004  0.23501160  0.32849846  1  0.009214  0  -0.018857  -0.105036  0  3.940866  0
C  C55  1  0.69432665  0.19731911  0.29366072  1  0.061144  0  -0.001545  -0.017026  0  3.946863  0
C  C56  1  0.48934224  0.24215799  0.67469974  1  -0.018469  0  -0.106338  -0.226637  0  4.00852  0
C  C57  1  0.73188978  0.21490884  0.20177935  1  0.030121  0  -0.07145  -0.087807  0  3.92594  0
C  C58  1  0.78729365  0.26673042  0.14917319  1  -0.093987  0  -0.07114  -0.074886  0  3.928332  0
C  C59  1  0.80846792  0.30323601  0.18549708  1  0.059447  0  -0.009494  -0.058128  0  3.959543  0
C  C60  1  0.65149086  0.87311399  0.62318490  1  1.557741  0  0.230878  0.629252  0  4.173021  0
C  C61  1  0.77061008  0.28603225  0.27678770  1  -0.109718  0  -0.005207  0.014455  0  3.89531  0
C  C62  1  0.76247368  0.30468519  0.35425742  1  0.394815  0  0.007793  0.023496  0  3.913712  0
C  C63  1  0.69722577  0.24820061  0.41170150  1  1.118011  0  0.203702  0.442226  0  3.903605  0
C  C64  1  0.20888635  0.24045506  0.34300253  1  -0.064671  0  -0.009625  -0.024907  0  3.908762  0
C  C65  1  0.29958272  0.19751374  0.31096087  1  0.091418  0  0.002279  -0.010154  0  3.947726  0
C  C66  1  0.33647845  0.21674975  0.21919755  1  -0.030726  0  -0.07839  -0.209185  0  3.925852  0
C  C67  1  0.57666873  0.21667248  0.66861676  1  0.375965  0  0.066334  0.16427  0  4.085733  0
C  C68  1  0.28455999  0.27385659  0.16398322  1  0.421133  0  0.121302  0.293032  0  4.002724  0
C  C69  1  0.19281521  0.31659024  0.19487938  1  0.044513  0  -0.008617  -0.154998  0  3.921675  0
C  C70  1  0.15857907  0.29752178  0.28665312  1  0.054619  0  -0.002296  0.01583  0  3.917493  0
C  C71  1  0.07288177  0.31468138  0.36125890  1  0.55282  0  0.03142  0.111937  0  3.848423  0
C  C72  1  0.35668276  0.13533504  0.36831563  1  1.614781  0  0.23101  0.605993  0  4.172428  0
C  C73  1  0.12998430  0.24770876  0.42577131  1  0.553764  0  0.030504  0.114358  0  3.875401  0
C  C74  1  0.22861578  0.82327239  0.75051127  1  -0.005581  0  -0.026288  -0.038964  0  3.939585  0
C  C75  1  0.31368290  0.79828118  0.69082266  1  0.043113  0  -0.019475  -0.148793  0  4.015092  0
C  C76  1  0.34270208  0.71362198  0.68753767  1  0.462525  0  0.098222  0.157759  0  3.958188  0
C  C77  1  0.29365479  0.65364335  0.73885170  1  0.518175  0  0.108272  0.202417  0  4.096433  0
C  C78  1  0.61984819  0.12695876  0.71166290  1  0.404237  0  0.087536  0.233105  0  4.079268  0
C  C79  1  0.20733707  0.68186778  0.79823464  1  -0.035604  0  -0.024481  -0.164533  0  3.94808  0
C  C80  1  0.17856408  0.76734285  0.80041572  1  0.003924  0  -0.020669  -0.02365  0  3.995574  0
C  C81  1  0.10085014  0.83387097  0.84336324  1  0.553385  0  0.031399  0.139592  0  3.837829  0
C  C82  1  0.15996923  0.89547576  0.79331414  1  0.390573  0  0.010496  0.09876  0  3.903038  0
C  C83  1  0.71695479  0.70838462  0.34106202  1  -0.00479  0  -0.01837  -0.100967  0  3.925681  0
C  C84  1  0.63544341  0.85774886  0.36500678  1  1.525517  0  0.23085  0.606863  0  4.159935  0
C  C85  1  0.69146268  0.80085729  0.30800857  1  0.006488  0  -0.005423  -0.006409  0  3.970396  0
C  C86  1  0.71987520  0.83988188  0.21586350  1  0.002701  0  -0.08654  -0.22075  0  3.946088  0
C  C87  1  0.77075917  0.78778817  0.16136674  1  0.477042  0  0.116755  0.29064  0  4.014615  0
C  C88  1  0.79591117  0.69411843  0.19321702  1  0.056199  0  -0.013726  -0.167494  0  3.918917  0
C  C89  1  0.28723039  0.26221582  0.79679945  1  0.538781  0  0.120099  0.270787  0  4.015522  0
C  C90  1  0.76489436  0.65712218  0.28566848  1  0.02315  0  0.003281  0.048036  0  3.861689  0
C  C91  1  0.75547096  0.57046701  0.36168274  1  0.421277  0  0.016038  0.053074  0  3.88052  0
C  C92  1  0.70797782  0.62891083  0.42519093  1  0.928055  0  0.176933  0.401156  0  3.925901  0
C  C93  1  0.73124455  0.72445991  0.71184762  1  0.025007  0  0.00257  0.087451  0  3.883766  0
C  C94  1  0.71286487  0.81633756  0.67578176  1  0.064679  0  -0.017849  -0.186742  0  3.957342  0
C  C95  1  0.75428746  0.84755111  0.69759190  1  0.427668  0  0.105922  0.273445  0  4.037905  0
C  C96  1  0.36451296  0.14018706  0.63840985  1  1.568889  0  0.234688  0.61995  0  4.128207  0
C  C97  1  0.80525087  0.79334148  0.75322450  1  0.031253  0  -0.097815  -0.239509  0  3.990276  0
C  C98  1  0.81963753  0.70141655  0.79100788  1  -0.026502  0  -0.009293  -0.047057  0  3.992329  0
C  C99  1  0.78247300  0.66860635  0.76766699  1  -0.028844  0  -0.006109  0.049939  0  3.889526  0
C  C100  1  0.19355702  0.29511492  0.81398266  1  0.023018  0  -0.031828  -0.214308  0  3.887437  0
C  C101  1  0.77170854  0.58590136  0.78001563  1  -0.047268  0  -0.151108  -0.195329  0  3.874125  0
C  C102  1  0.71368707  0.64906788  0.71672716  1  -0.028718  0  -0.146953  -0.198519  0  3.860067  0
C  C103  1  0.13553184  0.37502704  0.13754349  1  1.584891  0  0.231294  0.630166  0  4.164104  0
C  C104  1  0.87171721  0.64353923  0.85282879  1  1.559967  0  0.229589  0.610619  0  4.168331  0
C  C105  1  0.86839696  0.35721629  0.12956563  1  1.547199  0  0.227582  0.607996  0  4.175973  0
C  C106  1  0.14946614  0.62678098  0.85444488  1  1.543759  0  0.226113  0.620463  0  4.14884  0
C  C107  1  0.85316505  0.63862476  0.13465694  1  1.573872  0  0.229172  0.62676  0  4.170504  0
C  C108  1  0.57281662  0.06700462  0.76114503  1  0.001494  0  -0.12384  -0.326766  0  4.025355  0
C  C109  1  0.13441153  0.35303746  0.86894669  1  1.490511  0  0.218857  0.611625  0  4.144289  0
C  C110  1  0.48588562  0.09556560  0.76554503  1  0.433421  0  0.078058  0.235636  0  4.099292  0
C  C111  1  0.15944327  0.27459520  0.77365582  1  -0.095519  0  0.001911  0.081169  0  3.98921  0
C  C112  1  0.44142526  0.18237487  0.72275459  1  0.052713  0  -0.040832  -0.057796  0  4.095833  0
C  C113  1  0.21710373  0.22490424  0.71761203  1  0.080707  0  -0.104728  -0.193711  0  4.002941  0
C  C114  1  0.30906717  0.19461641  0.69862101  1  -0.03411  0  -0.010193  -0.04614  0  3.97523  0
N  N115  1  0.70706075  0.10264102  0.70448298  1  -1.197173  0  -0.60581  -0.614871  0  3.276522  0
N  N116  1  0.72675524  0.39363832  0.35669836  1  -1.10987  0  -0.634045  -0.628048  0  3.24866  0
N  N117  1  0.33009844  0.57407469  0.72623314  1  -1.248204  0  -0.585856  -0.595943  0  3.369246  0
N  N118  1  0.12180286  0.98625434  0.74339400  1  -1.119793  0  -0.639817  -0.641801  0  3.21438  0
N  N119  1  0.83135043  0.49263897  0.37172057  1  -1.149382  0  -0.626084  -0.616301  0  3.268517  0
N  N120  1  0.62629137  0.62254638  0.49085785  1  -1.165364  0  -0.628981  -0.701633  0  3.258936  0
N  N121  1  0.62715166  0.27431801  0.61744333  1  -1.20185  0  -0.610073  -0.634305  0  3.345344  0
N  N122  1  0.32443120  0.27658457  0.83508993  1  -1.260325  0  -0.590394  -0.602842  0  3.377407  0
O  O123  1  0.49987162  0.00174717  0.49983809  1  -1.21703  0  -0.573095  -1.031472  0  2.544689  0
O  O124  1  0.06967965  0.66543399  0.89323001  1  -1.173223  0  -0.30594  -0.534688  0  2.352377  0
O  O125  1  0.86326240  0.55593052  0.17287644  1  -1.159478  0  -0.311642  -0.541496  0  2.358016  0
O  O126  1  0.32642184  0.94032017  0.61464620  1  -1.172364  0  -0.31096  -0.545006  0  2.330429  0
O  O127  1  0.16476967  0.35535560  0.91832025  1  -1.182704  0  -0.3244  -0.565467  0  2.367719  0
O  O128  1  0.88810201  0.67700398  0.05320528  1  -1.161891  0  -0.308411  -0.535268  0  2.364675  0
O  O129  1  0.05629851  0.39988871  0.86488280  1  -1.172264  0  -0.310554  -0.544647  0  2.370774  0
O  O130  1  0.89107728  0.37922106  0.04592053  1  -1.175191  0  -0.311391  -0.541803  0  2.33479  0
O  O131  1  0.18265394  0.54392676  0.86137766  1  -1.174976  0  -0.316844  -0.554552  0  2.32387  0
O  O132  1  0.05270526  0.39097370  0.17840706  1  -1.16456  0  -0.304767  -0.535951  0  2.316977  0
O  O133  1  0.90304176  0.68077513  0.86921362  1  -1.162326  0  -0.315175  -0.545285  0  2.328401  0
O  O134  1  0.62093021  0.95627891  0.60872159  1  -1.149675  0  -0.30612  -0.534786  0  2.354293  0
O  O135  1  0.61539874  0.12208133  0.43364810  1  -1.149849  0  -0.304126  -0.531219  0  2.364914  0
O  O136  1  0.63325765  0.83081695  0.59900313  1  -1.16605  0  -0.309714  -0.537019  0  2.342555  0
O  O137  1  0.43886184  0.10551472  0.32841374  1  -1.178893  0  -0.311248  -0.539899  0  2.338348  0
O  O138  1  0.60804410  0.81828702  0.44818466  1  -1.164699  0  -0.302783  -0.529459  0  2.327309  0
O  O139  1  0.32434110  0.10640284  0.62838678  1  -1.164317  0  -0.3163  -0.547935  0  2.332071  0
O  O140  1  0.61848872  0.94115425  0.32586307  1  -1.165573  0  -0.311441  -0.540881  0  2.343823  0
O  O141  1  0.44615010  0.13194277  0.60121707  1  -1.173735  0  -0.301768  -0.532258  0  2.383146  0
O  O142  1  0.31776955  0.11797774  0.45138450  1  -1.163409  0  -0.303848  -0.528081  0  2.312202  0
O  O143  1  0.45197704  0.82075817  0.62152099  1  -1.151807  0  -0.313637  -0.543705  0  2.339985  0
O  O144  1  0.61156774  0.11920297  0.31248402  1  -1.146056  0  -0.313063  -0.539938  0  2.327653  0
O  O145  1  0.99848858  0.50044037  0.99972737  1  -1.208077  0  -0.576124  -1.031349  0  2.556621  0
O  O146  1  0.17347648  0.40301665  0.05471860  1  -1.162008  0  -0.311926  -0.537767  0  2.349573  0
O  O147  1  0.87988502  0.56145370  0.88432037  1  -1.172943  0  -0.307473  -0.532762  0  2.32409  0
O  O148  1  0.89159873  0.37641268  0.17175217  1  -1.169658  0  -0.311459  -0.542538  0  2.349513  0
F  F149  1  0.80511374  0.34366976  0.82567284  1  -0.626758  0  -0.111113  -0.141989  0  1.3234  0
F  F150  1  0.79441238  0.83228955  0.07346824  1  -0.626846  0  -0.094642  -0.129782  0  1.352162  0
F  F151  1  0.76680097  0.60927094  0.46708034  1  -0.624855  0  -0.165569  -0.249849  0  1.198911  0
F  F152  1  0.74589957  0.93521207  0.66248645  1  -0.632775  0  -0.092658  -0.138884  0  1.385444  0
F  F153  1  0.87114841  0.23482725  0.96199493  1  -0.636242  0  -0.097513  -0.133574  0  1.359102  0
F  F154  1  0.72132882  0.17338102  0.47927901  1  -0.632537  0  -0.122023  -0.202613  0  1.304859  0
F  F155  1  0.61091891  0.29614395  0.44780568  1  -0.629728  0  -0.121314  -0.195589  0  1.282936  0
F  F156  1  0.32735949  0.28561586  0.07669523  1  -0.619446  0  -0.095056  -0.132326  0  1.343215  0
F  F157  1  0.03568103  0.40099317  0.36391995  1  -0.618843  0  -0.136843  -0.174201  0  1.282985  0
F  F158  1  0.12915075  0.28598349  0.47598786  1  -0.618818  0  -0.146863  -0.181223  0  1.270644  0
F  F159  1  0.42378684  0.68230474  0.63067019  1  -0.632832  0  -0.096443  -0.129789  0  1.370337  0
F  F160  1  0.07335958  0.80642472  0.93595306  1  -0.631224  0  -0.159352  -0.203282  0  1.239641  0
F  F161  1  0.44228344  0.03451699  0.81401697  1  -0.652178  0  -0.12903  -0.169914  0  1.302263  0
