# generated using pymatgen
data_CuH8C6N2Cl
_symmetry_space_group_name_H-M   'P 1'
_cell_length_a   6.54718825
_cell_length_b   9.02666591
_cell_length_c   12.46408912
_cell_angle_alpha   90.00111422
_cell_angle_beta   89.99952060
_cell_angle_gamma   89.99916200
_symmetry_Int_Tables_number   1
_chemical_formula_structural   CuH8C6N2Cl
_chemical_formula_sum   'Cu4 H32 C24 N8 Cl4'
_cell_volume   736.61870484
_cell_formula_units_Z   4
loop_
 _symmetry_equiv_pos_site_id
 _symmetry_equiv_pos_as_xyz
  1  'x, y, z'
loop_
 _atom_site_type_symbol
 _atom_site_label
 _atom_site_symmetry_multiplicity
 _atom_site_fract_x
 _atom_site_fract_y
 _atom_site_fract_z
 _atom_site_occupancy
 _atom_site_hle17_bader_spin_density
 _atom_site_hle17_ddec_charge
 _atom_site_hle17_ddec_spin_density
 _atom_site_hle17_ddec_sum_bond_order
 _atom_site_hle17_magmom
 _atom_site_hse06_10hf_bader_spin_density
 _atom_site_hse06_10hf_ddec_charge
 _atom_site_hse06_10hf_ddec_spin_density
 _atom_site_hse06_10hf_ddec_sum_bond_order
 _atom_site_hse06_10hf_magmom
 _atom_site_hse06_bader_spin_density
 _atom_site_hse06_ddec_charge
 _atom_site_hse06_ddec_spin_density
 _atom_site_hse06_ddec_sum_bond_order
 _atom_site_hse06_magmom
 _atom_site_pbe_bader_spin_density
 _atom_site_pbe_cm5_charge
 _atom_site_pbe_ddec_charge
 _atom_site_pbe_ddec_spin_density
 _atom_site_pbe_ddec_sum_bond_order
 _atom_site_pbe_magmom
Cu  Cu0  1  0.62820583  0.60344274  0.50208775  1  0  0.478389  0  1.950844  0  0  0.376966  0  2.422754  0  0  0.36203  0  2.391351  0  0  0.48661  0.390778  0  2.439362  0
Cu  Cu1  1  0.87180568  0.39656526  0.00208033  1  0  0.478359  0  1.950976  0  0  0.376873  0  2.42301  0  0  0.362027  0  2.391536  0  0  0.486577  0.390692  0  2.439605  0
Cu  Cu2  1  0.37179774  0.10343955  0.99791723  1  0  0.478388  0  1.950917  0  0  0.376982  0  2.42282  0  0  0.362046  0  2.391424  0  0  0.486624  0.390796  0  2.439411  0
Cu  Cu3  1  0.12819352  0.89655153  0.49791731  1  0  0.478442  0  1.950801  0  0  0.376998  0  2.422769  0  0  0.362132  0  2.391346  0  0  0.486645  0.390815  0  2.439387  0
H  H4  1  0.55246642  0.31640107  0.85099455  1  0  0.092897  0  0.988376  0  0  0.092138  0  1.068133  0  0  0.097514  0  1.063104  0  0  0.100872  0.088106  0  1.071996  0
H  H5  1  0.94753171  0.68363879  0.35098547  1  0  0.092782  0  0.988192  0  0  0.09205  0  1.067996  0  0  0.097424  0  1.062976  0  0  0.100812  0.088018  0  1.071854  0
H  H6  1  0.44752806  0.81638266  0.64900023  1  0  0.092803  0  0.988341  0  0  0.092057  0  1.068122  0  0  0.097435  0  1.063093  0  0  0.100827  0.088024  0  1.071979  0
H  H7  1  0.05249339  0.18361866  0.14901677  1  0  0.092873  0  0.988112  0  0  0.092112  0  1.067933  0  0  0.097489  0  1.062904  0  0  0.100804  0.08808  0  1.071795  0
H  H8  1  0.07099270  0.58045261  0.83072336  1  0  0.090319  0  0.945763  0  0  0.099133  0  1.008665  0  0  0.102496  0  1.006432  0  0  0.115284  0.096631  0  1.010532  0
H  H9  1  0.42906633  0.41951176  0.33074018  1  0  0.09032  0  0.945726  0  0  0.099153  0  1.008643  0  0  0.10253  0  1.006383  0  0  0.115335  0.096655  0  1.010504  0
H  H10  1  0.92901677  0.08047583  0.66926977  1  0  0.090349  0  0.945747  0  0  0.09926  0  1.008542  0  0  0.102596  0  1.006338  0  0  0.115339  0.096772  0  1.010394  0
H  H11  1  0.57096975  0.91949019  0.16926129  1  0  0.090215  0  0.94571  0  0  0.099145  0  1.008551  0  0  0.102552  0  1.006259  0  0  0.115381  0.096649  0  1.010412  0
H  H12  1  0.97166913  0.65485327  0.64288076  1  0  0.091621  0  0.98588  0  0  0.092457  0  1.060734  0  0  0.096857  0  1.056965  0  0  0.102903  0.089128  0  1.063734  0
H  H13  1  0.52837094  0.34512195  0.14288432  1  0  0.091541  0  0.985811  0  0  0.092396  0  1.060695  0  0  0.096799  0  1.056927  0  0  0.102872  0.089071  0  1.06369  0
H  H14  1  0.02834068  0.15487541  0.85711756  1  0  0.091578  0  0.985846  0  0  0.092416  0  1.060761  0  0  0.096817  0  1.056993  0  0  0.102833  0.08909  0  1.063757  0
H  H15  1  0.47164190  0.84508642  0.35711277  1  0  0.091621  0  0.985805  0  0  0.092464  0  1.060701  0  0  0.096868  0  1.056931  0  0  0.102917  0.089135  0  1.063696  0
H  H16  1  0.32989499  0.42213565  0.59985873  1  0  0.091452  0  0.975745  0  0  0.106604  0  1.03965  0  0  0.109068  0  1.038545  0  0  0.08462  0.104653  0  1.040714  0
H  H17  1  0.17009149  0.57789972  0.09985185  1  0  0.091544  0  0.975617  0  0  0.106578  0  1.039629  0  0  0.109055  0  1.03851  0  0  0.084673  0.10463  0  1.040688  0
H  H18  1  0.67010567  0.92213370  0.90013443  1  0  0.091479  0  0.975508  0  0  0.106579  0  1.039475  0  0  0.109039  0  1.038368  0  0  0.084633  0.104654  0  1.040515  0
H  H19  1  0.82990757  0.07785993  0.40013034  1  0  0.09146  0  0.97567  0  0  0.106533  0  1.039623  0  0  0.108997  0  1.038513  0  0  0.084627  0.104605  0  1.040667  0
H  H20  1  0.33232714  0.28902280  0.70491667  1  0  0.076924  0  0.952712  0  0  0.093232  0  1.01419  0  0  0.092929  0  1.016583  0  0  0.089582  0.093425  0  1.01255  0
H  H21  1  0.16764524  0.71102911  0.20490955  1  0  0.076838  0  0.952715  0  0  0.093102  0  1.014239  0  0  0.092795  0  1.016637  0  0  0.089544  0.093297  0  1.012597  0
H  H22  1  0.66764294  0.78899652  0.79508317  1  0  0.076865  0  0.95273  0  0  0.093123  0  1.014292  0  0  0.092815  0  1.016683  0  0  0.089525  0.093315  0  1.012652  0
H  H23  1  0.83236455  0.21098831  0.29507800  1  0  0.076756  0  0.952874  0  0  0.09305  0  1.014333  0  0  0.09274  0  1.016726  0  0  0.089474  0.093243  0  1.012694  0
H  H24  1  0.39067220  0.15947569  0.52954344  1  0  0.091769  0  0.99236  0  0  0.106214  0  1.068105  0  0  0.108504  0  1.06745  0  0  0.080058  0.104682  0  1.068571  0
H  H25  1  0.10929313  0.84054614  0.02952951  1  0  0.091746  0  0.992331  0  0  0.106204  0  1.068111  0  0  0.108495  0  1.067459  0  0  0.080032  0.104659  0  1.068592  0
H  H26  1  0.60930221  0.65949449  0.97045645  1  0  0.091807  0  0.992563  0  0  0.106283  0  1.068213  0  0  0.108568  0  1.067577  0  0  0.080035  0.104752  0  1.068681  0
H  H27  1  0.89067262  0.34052596  0.47046682  1  0  0.091744  0  0.992491  0  0  0.106196  0  1.068228  0  0  0.108487  0  1.067579  0  0  0.080036  0.104655  0  1.068703  0
H  H28  1  0.61864959  0.15039918  0.60467604  1  0  0.092019  0  0.963904  0  0  0.112414  0  1.026875  0  0  0.113139  0  1.028576  0  0  0.077761  0.11186  0  1.025908  0
H  H29  1  0.88131576  0.84959721  0.10464784  1  0  0.092048  0  0.964091  0  0  0.112482  0  1.027001  0  0  0.11321  0  1.028702  0  0  0.077796  0.111925  0  1.026035  0
H  H30  1  0.38130243  0.65042587  0.89534481  1  0  0.091995  0  0.963961  0  0  0.112383  0  1.026904  0  0  0.11313  0  1.028584  0  0  0.077759  0.111824  0  1.025938  0
H  H31  1  0.11866474  0.34956905  0.39536845  1  0  0.092088  0  0.963945  0  0  0.112479  0  1.026921  0  0  0.113231  0  1.028595  0  0  0.077816  0.111918  0  1.025954  0
H  H32  1  0.59488315  0.28150239  0.49922649  1  0  0.086822  0  0.985744  0  0  0.107416  0  1.052815  0  0  0.109619  0  1.051669  0  0  0.081084  0.105863  0  1.053735  0
H  H33  1  0.90509769  0.71849495  0.99921241  1  0  0.086879  0  0.985681  0  0  0.107397  0  1.052862  0  0  0.109624  0  1.05169  0  0  0.081186  0.105854  0  1.053772  0
H  H34  1  0.40511956  0.78153941  0.00078245  1  0  0.086981  0  0.98557  0  0  0.107467  0  1.052765  0  0  0.109688  0  1.05161  0  0  0.081147  0.105899  0  1.053704  0
H  H35  1  0.09484128  0.21846896  0.50079572  1  0  0.086928  0  0.98568  0  0  0.107506  0  1.052764  0  0  0.109689  0  1.051653  0  0  0.081125  0.105935  0  1.053704  0
C  C36  1  0.59737146  0.42306336  0.69749987  1  0  0.223316  0  3.671418  0  0  0.231884  0  3.908382  0  0  0.237667  0  3.924609  0  0  0.119587  0.227774  0  3.897684  0
C  C37  1  0.90262566  0.57695835  0.19748459  1  0  0.22281  0  3.672304  0  0  0.231568  0  3.908997  0  0  0.237344  0  3.925239  0  0  0.11948  0.227459  0  3.898303  0
C  C38  1  0.40261846  0.92305384  0.80250067  1  0  0.223235  0  3.67128  0  0  0.231646  0  3.908473  0  0  0.237425  0  3.924697  0  0  0.119602  0.227533  0  3.897782  0
C  C39  1  0.09740553  0.07694125  0.30250708  1  0  0.223286  0  3.671565  0  0  0.231594  0  3.908807  0  0  0.237366  0  3.925038  0  0  0.119542  0.227487  0  3.898118  0
C  C40  1  0.64812377  0.39029774  0.80341723  1  0  0.022134  0  3.635295  0  0  -0.009733  0  3.881869  0  0  -0.007618  0  3.892811  0  0  0.037962  -0.011729  0  3.875465  0
C  C41  1  0.85186383  0.60971592  0.30340942  1  0  0.022626  0  3.634497  0  0  -0.009436  0  3.881132  0  0  -0.007319  0  3.892068  0  0  0.03803  -0.011443  0  3.874726  0
C  C42  1  0.35184969  0.89028696  0.69658105  1  0  0.022264  0  3.6351  0  0  -0.009609  0  3.88177  0  0  -0.007493  0  3.892718  0  0  0.037982  -0.011611  0  3.875357  0
C  C43  1  0.14817466  0.10970621  0.19659574  1  0  0.022027  0  3.635129  0  0  -0.009879  0  3.881879  0  0  -0.007758  0  3.892822  0  0  0.037905  -0.011877  0  3.875473  0
C  C44  1  0.93230415  0.53860650  0.79307875  1  0  0.055903  0  3.682789  0  0  0.027144  0  3.934888  0  0  0.028949  0  3.947358  0  0  0.03569  0.025263  0  3.927963  0
C  C45  1  0.56774611  0.46136668  0.29309095  1  0  0.055851  0  3.683133  0  0  0.026991  0  3.935349  0  0  0.028797  0  3.947788  0  0  0.035656  0.025099  0  3.928416  0
C  C46  1  0.06770465  0.03863102  0.70691222  1  0  0.055801  0  3.682878  0  0  0.027009  0  3.935001  0  0  0.028842  0  3.947481  0  0  0.035632  0.02511  0  3.928066  0
C  C47  1  0.43230744  0.96135389  0.20691670  1  0  0.055967  0  3.682612  0  0  0.027033  0  3.934896  0  0  0.028823  0  3.947326  0  0  0.035499  0.025147  0  3.927972  0
C  C48  1  0.87924684  0.57766207  0.68940356  1  0  0.075209  0  3.677066  0  0  0.048678  0  3.928302  0  0  0.053701  0  3.938632  0  0  0.036013  0.044776  0  3.922951  0
C  C49  1  0.62079001  0.42232965  0.18941365  1  0  0.075408  0  3.67682  0  0  0.048857  0  3.927993  0  0  0.053866  0  3.938342  0  0  0.036039  0.044956  0  3.922645  0
C  C50  1  0.12076125  0.07767849  0.81058830  1  0  0.07521  0  3.677281  0  0  0.048565  0  3.92869  0  0  0.053581  0  3.93902  0  0  0.036024  0.044662  0  3.923343  0
C  C51  1  0.37924591  0.92230782  0.31058829  1  0  0.075264  0  3.677267  0  0  0.048652  0  3.928641  0  0  0.053662  0  3.938998  0  0  0.036091  0.044756  0  3.92329  0
C  C52  1  0.42673724  0.34252398  0.64326844  1  0  -0.161745  0  3.73692  0  0  -0.200444  0  3.984269  0  0  -0.202461  0  3.99637  0  0  -0.170897  -0.198585  0  3.975591  0
C  C53  1  0.07325215  0.65749880  0.14326437  1  0  -0.161507  0  3.73664  0  0  -0.200047  0  3.983777  0  0  -0.202073  0  3.995876  0  0  -0.170811  -0.198185  0  3.975093  0
C  C54  1  0.57324353  0.84252157  0.85672027  1  0  -0.161704  0  3.736758  0  0  -0.200234  0  3.98404  0  0  -0.20223  0  3.996121  0  0  -0.170914  -0.19839  0  3.975342  0
C  C55  1  0.92675611  0.15747467  0.35672870  1  0  -0.161634  0  3.736706  0  0  -0.200053  0  3.98386  0  0  -0.202048  0  3.995928  0  0  -0.170844  -0.198209  0  3.975164  0
C  C56  1  0.51249809  0.22687740  0.56486765  1  0  -0.267875  0  3.67984  0  0  -0.341214  0  3.921942  0  0  -0.344993  0  3.932999  0  0  -0.24984  -0.339018  0  3.91491  0
C  C57  1  0.98746586  0.77313506  0.06484752  1  0  -0.267956  0  3.679522  0  0  -0.34134  0  3.921628  0  0  -0.345146  0  3.932669  0  0  -0.249972  -0.339138  0  3.914608  0
C  C58  1  0.48748164  0.72689671  0.93514670  1  0  -0.268084  0  3.679687  0  0  -0.341312  0  3.921776  0  0  -0.345138  0  3.932792  0  0  -0.249859  -0.339103  0  3.914772  0
C  C59  1  0.01249456  0.27310653  0.43516083  1  0  -0.268026  0  3.679663  0  0  -0.341406  0  3.921707  0  0  -0.345211  0  3.932745  0  0  -0.249917  -0.339187  0  3.914707  0
N  N60  1  0.70955273  0.52319915  0.64065244  1  0  -0.299703  0  3.318098  0  0  -0.235718  0  3.612185  0  0  -0.237144  0  3.614224  0  0  -0.356637  -0.23589  0  3.610752  0
N  N61  1  0.79046290  0.47681100  0.14064621  1  0  -0.299721  0  3.318481  0  0  -0.235717  0  3.612463  0  0  -0.237158  0  3.614546  0  0  -0.356628  -0.235894  0  3.61103  0
N  N62  1  0.29043709  0.02320860  0.85934879  1  0  -0.299596  0  3.317816  0  0  -0.235544  0  3.61201  0  0  -0.236969  0  3.614056  0  0  -0.356605  -0.235715  0  3.610569  0
N  N63  1  0.20956991  0.97679140  0.35934877  1  0  -0.299583  0  3.318056  0  0  -0.235462  0  3.612231  0  0  -0.236898  0  3.614311  0  0  -0.35652  -0.235646  0  3.610809  0
N  N64  1  0.81361447  0.44756115  0.85276712  1  0  -0.243176  0  3.406049  0  0  -0.175615  0  3.702643  0  0  -0.174295  0  3.705993  0  0  -0.361353  -0.177223  0  3.70041  0
N  N65  1  0.68640351  0.55243835  0.35277352  1  0  -0.243377  0  3.405931  0  0  -0.1757  0  3.702507  0  0  -0.174366  0  3.705821  0  0  -0.361358  -0.177281  0  3.70026  0
N  N66  1  0.18638169  0.94755643  0.64722547  1  0  -0.243175  0  3.406019  0  0  -0.175569  0  3.702603  0  0  -0.17425  0  3.705944  0  0  -0.361317  -0.177154  0  3.700363  0
N  N67  1  0.31363213  0.05243097  0.14722930  1  0  -0.243155  0  3.405624  0  0  -0.175452  0  3.702184  0  0  -0.174139  0  3.705528  0  0  -0.361275  -0.177056  0  3.699946  0
Cl  Cl68  1  0.76885908  0.85292149  0.51400940  1  0  -0.596233  0  1.166613  0  0  -0.531492  0  1.506824  0  0  -0.545936  0  1.48177  0  0  -0.309289  -0.520446  0  1.521925  0
Cl  Cl69  1  0.73113254  0.14709887  0.01400720  1  0  -0.596248  0  1.166637  0  0  -0.5315  0  1.506827  0  0  -0.545947  0  1.481775  0  0  -0.309291  -0.520449  0  1.521914  0
Cl  Cl70  1  0.23114401  0.35291911  0.98600110  1  0  -0.596234  0  1.166631  0  0  -0.531476  0  1.506826  0  0  -0.545921  0  1.481771  0  0  -0.309274  -0.520423  0  1.521906  0
Cl  Cl71  1  0.26885493  0.64706515  0.48598493  1  0  -0.596219  0  1.166492  0  0  -0.531506  0  1.506718  0  0  -0.545944  0  1.481665  0  0  -0.309279  -0.520458  0  1.52181  0
