# generated using pymatgen
data_ZnH16C20(N2O3)2
_symmetry_space_group_name_H-M   'P 1'
_cell_length_a   5.01494117
_cell_length_b   12.30588593
_cell_length_c   15.33646858
_cell_angle_alpha   81.81646652
_cell_angle_beta   89.97696980
_cell_angle_gamma   78.27135963
_symmetry_Int_Tables_number   1
_chemical_formula_structural   ZnH16C20(N2O3)2
_chemical_formula_sum   'Zn2 H32 C40 N8 O12'
_cell_volume   916.86899288
_cell_formula_units_Z   2
loop_
 _symmetry_equiv_pos_site_id
 _symmetry_equiv_pos_as_xyz
  1  'x, y, z'
loop_
 _atom_site_type_symbol
 _atom_site_label
 _atom_site_symmetry_multiplicity
 _atom_site_fract_x
 _atom_site_fract_y
 _atom_site_fract_z
 _atom_site_occupancy
 _atom_site_pbe_bader_charge
 _atom_site_pbe_bader_spin_density
 _atom_site_pbe_cm5_charge
 _atom_site_pbe_ddec_charge
 _atom_site_pbe_ddec_spin_density
 _atom_site_pbe_ddec_sum_bond_order
 _atom_site_pbe_magmom
Zn  Zn0  1  0.97977169  0.99979758  0.25016800  1  1.251134  0  0.70338  0.768133  0  2.322469  0
Zn  Zn1  1  0.02023666  0.00020018  0.74983505  1  1.250976  0  0.703374  0.768073  0  2.3226  0
H  H2  1  0.70280960  0.37482245  0.56841716  1  0.082455  0  0.105474  0.10477  0  1.017584  0
H  H3  1  0.07831582  0.62527895  0.93149245  1  0.08511  0  0.105528  0.104933  0  1.016615  0
H  H4  1  0.29720170  0.62518538  0.43158408  1  0.08277  0  0.105488  0.104788  0  1.01779  0
H  H5  1  0.92168907  0.37471378  0.06850009  1  0.084923  0  0.105516  0.104962  0  1.016603  0
H  H6  1  0.01461131  0.54276317  0.33654096  1  0.135958  0  0.109996  0.122053  0  1.034275  0
H  H7  1  0.55627408  0.45700379  0.16346968  1  0.135242  0  0.109666  0.121894  0  1.033185  0
H  H8  1  0.98539684  0.45724298  0.66346113  1  0.135917  0  0.110001  0.122062  0  1.034286  0
H  H9  1  0.44373627  0.54299397  0.83652229  1  0.135218  0  0.109669  0.121925  0  1.033184  0
H  H10  1  0.64687434  0.08723496  0.46411074  1  0.105979  0  0.11191  0.133793  0  1.020026  0
H  H11  1  0.73318624  0.91243808  0.03580028  1  0.098708  0  0.111794  0.133943  0  1.020073  0
H  H12  1  0.35312322  0.91278042  0.53589160  1  0.105964  0  0.11192  0.133792  0  1.02005  0
H  H13  1  0.26681067  0.08755465  0.96420204  1  0.098629  0  0.1118  0.133949  0  1.020126  0
H  H14  1  0.24900826  0.37316737  0.27832759  1  0.150058  0  0.113235  0.14014  0  1.051513  0
H  H15  1  0.62208983  0.62652780  0.22196744  1  0.193103  0  0.113219  0.139929  0  1.052027  0
H  H16  1  0.75099066  0.62684130  0.72166770  1  0.150142  0  0.113274  0.140235  0  1.051479  0
H  H17  1  0.37787686  0.37346156  0.77802288  1  0.193224  0  0.113239  0.139854  0  1.052138  0
H  H18  1  0.35248599  0.97466470  0.40027126  1  0.145973  0  0.111646  0.078662  0  1.064219  0
H  H19  1  0.32628966  0.02488140  0.09974147  1  0.152805  0  0.111651  0.079013  0  1.063339  0
H  H20  1  0.64752572  0.02534229  0.59973334  1  0.146024  0  0.11159  0.078619  0  1.064363  0
H  H21  1  0.67371869  0.97511636  0.90026289  1  0.152815  0  0.111714  0.079155  0  1.063434  0
H  H22  1  0.98060635  0.24876138  0.22315376  1  0.100587  0  0.118339  0.089962  0  0.998162  0
H  H23  1  0.22934362  0.75078509  0.27724183  1  0.107328  0  0.118311  0.0902  0  0.998128  0
H  H24  1  0.01939549  0.75124141  0.77684611  1  0.10061  0  0.11835  0.089953  0  0.998224  0
H  H25  1  0.77063346  0.24920344  0.72275380  1  0.106342  0  0.118334  0.090193  0  0.99811  0
H  H26  1  0.75279406  0.77856968  0.42524982  1  0.066406  0  0.105371  0.021979  0  0.984314  0
H  H27  1  0.53201056  0.22065317  0.07487070  1  0.068347  0  0.10511  0.021887  0  0.984134  0
H  H28  1  0.24720390  0.22142892  0.57475183  1  0.066511  0  0.105373  0.021903  0  0.984257  0
H  H29  1  0.46796872  0.77934291  0.92513385  1  0.068449  0  0.105132  0.021919  0  0.984071  0
H  H30  1  0.74356009  0.25620415  0.47322720  1  0.525841  0  0.297344  0.271711  0  1.019005  0
H  H31  1  0.99911038  0.74364559  0.02672822  1  0.530782  0  0.29726  0.271182  0  1.019686  0
H  H32  1  0.25642728  0.74380367  0.52677600  1  0.525858  0  0.297292  0.271629  0  1.019152  0
H  H33  1  0.00086692  0.25635048  0.97326263  1  0.530575  0  0.297299  0.271244  0  1.019688  0
C  C34  1  0.67954890  0.40498727  0.38551320  1  1.382441  0  0.245148  0.474363  0  4.114863  0
C  C35  1  0.08407311  0.59486248  0.11446257  1  1.382117  0  0.244743  0.471845  0  4.114627  0
C  C36  1  0.32046996  0.59502140  0.61448861  1  1.382509  0  0.245268  0.474463  0  4.114682  0
C  C37  1  0.91593450  0.40513276  0.88553425  1  1.382364  0  0.244694  0.471788  0  4.114992  0
C  C38  1  0.47163240  0.24046522  0.37784121  1  0.356903  0  0.123765  0.302558  0  3.997143  0
C  C39  1  0.71157740  0.75921759  0.12220844  1  0.397079  0  0.123474  0.30116  0  3.99662  0
C  C40  1  0.52836767  0.75954512  0.62215910  1  0.356933  0  0.123722  0.302602  0  3.997229  0
C  C41  1  0.28841038  0.24077345  0.87778625  1  0.395737  0  0.123547  0.301249  0  3.996495  0
C  C42  1  0.83622012  0.42823302  0.53823272  1  -0.032027  0  -0.088221  -0.110443  0  3.989052  0
C  C43  1  0.26480662  0.57180598  0.96171652  1  -0.094537  0  -0.0872  -0.108562  0  3.986689  0
C  C44  1  0.16379002  0.57177313  0.46176481  1  -0.03208  0  -0.088314  -0.110623  0  3.989373  0
C  C45  1  0.73519502  0.42818926  0.03827899  1  -0.09414  0  -0.087253  -0.108761  0  3.986785  0
C  C46  1  0.84429554  0.45224880  0.44613389  1  -0.090672  0  -0.013258  -0.031023  0  3.981413  0
C  C47  1  0.29623622  0.54771671  0.05383113  1  -0.01101  0  -0.014132  -0.031747  0  3.984331  0
C  C48  1  0.15571293  0.54776071  0.55386586  1  -0.09028  0  -0.013254  -0.031007  0  3.981277  0
C  C49  1  0.70377287  0.45228357  0.94616446  1  -0.010879  0  -0.014148  -0.031602  0  3.984243  0
C  C50  1  0.00787588  0.52511892  0.40810841  1  -0.007643  0  -0.080953  -0.094252  0  3.938656  0
C  C51  1  0.53226855  0.47473355  0.09187857  1  -0.030778  0  -0.081481  -0.095534  0  3.939122  0
C  C52  1  0.99214150  0.47488471  0.59189201  1  -0.007881  0  -0.080988  -0.094351  0  3.938636  0
C  C53  1  0.46773708  0.52526169  0.90811434  1  -0.030485  0  -0.081527  -0.095685  0  3.939049  0
C  C54  1  0.49803341  0.12608418  0.41143551  1  -0.010902  0  -0.093979  -0.236665  0  3.928672  0
C  C55  1  0.62338929  0.87355822  0.08856884  1  -0.039094  0  -0.094209  -0.237622  0  3.930216  0
C  C56  1  0.50196917  0.87392113  0.58856341  1  -0.010953  0  -0.093949  -0.236641  0  3.928791  0
C  C57  1  0.37660719  0.12643534  0.91143404  1  -0.039183  0  -0.094217  -0.237602  0  3.929948  0
C  C58  1  0.28087650  0.28578548  0.30803719  1  0.04097  0  -0.090662  -0.230352  0  3.900224  0
C  C59  1  0.56642144  0.71386444  0.19215939  1  0.017063  0  -0.090536  -0.229272  0  3.89829  0
C  C60  1  0.71912409  0.71421983  0.69196108  1  0.040978  0  -0.090679  -0.230549  0  3.90021  0
C  C61  1  0.43356592  0.28612744  0.80783846  1  0.018511  0  -0.090621  -0.229292  0  3.898519  0
C  C62  1  0.33847332  0.06311146  0.37614746  1  0.455171  0  0.03896  0.107869  0  3.976289  0
C  C63  1  0.40088142  0.93644636  0.12390219  1  0.439603  0  0.039528  0.107904  0  3.972606  0
C  C64  1  0.66152633  0.93689972  0.62385341  1  0.454874  0  0.039055  0.107896  0  3.976141  0
C  C65  1  0.59913018  0.06354888  0.87610115  1  0.439766  0  0.03947  0.107696  0  3.972678  0
C  C66  1  0.13055721  0.21585669  0.27665904  1  0.442384  0  0.046859  0.119987  0  3.946492  0
C  C67  1  0.34623286  0.78369935  0.22360802  1  0.464435  0  0.046942  0.119836  0  3.944166  0
C  C68  1  0.86945367  0.78415197  0.72333755  1  0.442545  0  0.046834  0.120058  0  3.946686  0
C  C69  1  0.65375177  0.21629002  0.77638752  1  0.465031  0  0.04688  0.119793  0  3.944008  0
C  C70  1  0.88285274  0.83579681  0.39460787  1  1.557963  0  0.138047  0.471979  0  4.259622  0
C  C71  1  0.71949107  0.16376516  0.10557759  1  1.564353  0  0.137912  0.472615  0  4.25898  0
C  C72  1  0.11714123  0.16420179  0.60539900  1  1.557873  0  0.138146  0.47234  0  4.259524  0
C  C73  1  0.28050091  0.83623343  0.89442537  1  1.562435  0  0.137925  0.472581  0  4.258616  0
N  N74  1  0.15622170  0.10621695  0.30915142  1  -1.253919  0  -0.34518  -0.261197  0  3.592298  0
N  N75  1  0.26200554  0.89329492  0.19103733  1  -1.281001  0  -0.345245  -0.260886  0  3.589094  0
N  N76  1  0.84379484  0.89378836  0.69084751  1  -1.254057  0  -0.345219  -0.261235  0  3.592466  0
N  N77  1  0.73799976  0.10669697  0.80896509  1  -1.280926  0  -0.34517  -0.260671  0  3.588871  0
N  N78  1  0.63030899  0.30048983  0.41775602  1  -1.272596  0  -0.39234  -0.385921  0  3.566651  0
N  N79  1  0.93035817  0.69932224  0.08225784  1  -1.291069  0  -0.391773  -0.383184  0  3.563816  0
N  N80  1  0.36968426  0.69952219  0.58224540  1  -1.27257  0  -0.392396  -0.385935  0  3.566555  0
N  N81  1  0.06963160  0.30066881  0.91773750  1  -1.291004  0  -0.39184  -0.383268  0  3.563898  0
O  O82  1  0.78713792  0.89365046  0.32110798  1  -1.177639  0  -0.325536  -0.500806  0  2.41738  0
O  O83  1  0.68156136  0.10579156  0.17904604  1  -1.178923  0  -0.325306  -0.500537  0  2.416391  0
O  O84  1  0.21287126  0.10634562  0.67889395  1  -1.177593  0  -0.325478  -0.50087  0  2.417519  0
O  O85  1  0.31843692  0.89421040  0.82095783  1  -1.178678  0  -0.325355  -0.500544  0  2.416342  0
O  O86  1  0.10310482  0.83791574  0.43250399  1  -1.196534  0  -0.320903  -0.527096  0  2.268862  0
O  O87  1  0.94201646  0.16213230  0.06779419  1  -1.205007  0  -0.320979  -0.528039  0  2.268305  0
O  O88  1  0.89687456  0.16209209  0.56751161  1  -1.196547  0  -0.321057  -0.527338  0  2.268853  0
O  O89  1  0.05796324  0.83786294  0.93220524  1  -1.203308  0  -0.320947  -0.528008  0  2.268104  0
O  O90  1  0.59891345  0.45632540  0.31197724  1  -1.132345  0  -0.266616  -0.446214  0  2.177155  0
O  O91  1  0.05451814  0.54343196  0.18796586  1  -1.131061  0  -0.265973  -0.444722  0  2.177252  0
O  O92  1  0.40111286  0.54368830  0.68801682  1  -1.132399  0  -0.266672  -0.446212  0  2.177336  0
O  O93  1  0.94550060  0.45656496  0.81203664  1  -1.131085  0  -0.265951  -0.444756  0  2.177463  0
