# generated using pymatgen
data_CoH19C26N3O5
_symmetry_space_group_name_H-M   'P 1'
_cell_length_a   8.71944540
_cell_length_b   8.74240866
_cell_length_c   15.49995244
_cell_angle_alpha   99.45019862
_cell_angle_beta   89.86749489
_cell_angle_gamma   112.11419769
_symmetry_Int_Tables_number   1
_chemical_formula_structural   CoH19C26N3O5
_chemical_formula_sum   'Co2 H38 C52 N6 O10'
_cell_volume   1077.47889938
_cell_formula_units_Z   2
loop_
 _symmetry_equiv_pos_site_id
 _symmetry_equiv_pos_as_xyz
  1  'x, y, z'
loop_
 _atom_site_type_symbol
 _atom_site_label
 _atom_site_symmetry_multiplicity
 _atom_site_fract_x
 _atom_site_fract_y
 _atom_site_fract_z
 _atom_site_occupancy
 _atom_site_hle17_ddec_charge
 _atom_site_hle17_ddec_spin_density
 _atom_site_hle17_ddec_sum_bond_order
 _atom_site_hle17_magmom
 _atom_site_hse06_10hf_ddec_charge
 _atom_site_hse06_10hf_ddec_spin_density
 _atom_site_hse06_10hf_ddec_sum_bond_order
 _atom_site_hse06_10hf_magmom
 _atom_site_hse06_ddec_charge
 _atom_site_hse06_ddec_spin_density
 _atom_site_hse06_ddec_sum_bond_order
 _atom_site_hse06_magmom
 _atom_site_pbe_cm5_charge
 _atom_site_pbe_ddec_charge
 _atom_site_pbe_ddec_spin_density
 _atom_site_pbe_ddec_sum_bond_order
 _atom_site_pbe_magmom
Co  Co0  1  0.33606229  0.87363615  0.62549579  1  1.021639  -2.855396  2.052464  -2.563  0.977756  -2.844096  2.49588  -2.618  1.054595  -2.884384  2.417278  -2.697  0.683578  0.913104  -2.808227  2.56244  -2.544
Co  Co1  1  0.66393618  0.12636457  0.37450369  1  1.021665  -2.855399  2.052516  -2.563  0.977815  -2.844093  2.495933  -2.618  1.054643  -2.88438  2.417342  -2.697  0.683614  0.913167  -2.808232  2.562488  -2.544
H  H2  1  0.77646438  0.43864170  0.65512836  1  0.326853  -0.000171  0.925434  0.0  0.301982  -0.000218  0.993363  0.0  0.311601  -0.000139  0.985532  0.0  0.309315  0.295323  -0.000304  0.998641  0.0
H  H3  1  0.22353133  0.56134891  0.34487338  1  0.326886  -0.000171  0.925466  0.0  0.301958  -0.000218  0.99348  0.0  0.311564  -0.00014  0.985662  0.0  0.309343  0.2953  -0.000304  0.998756  0.0
H  H4  1  0.23763759  0.96368926  0.44660630  1  0.085805  -0.000241  0.955913  -0.002  0.09136  -7.7e-05  1.023793  -0.001  0.094636  5.7e-05  1.02021  -0.001  0.118032  0.088627  -0.000237  1.026833  -0.001
H  H5  1  0.76235524  0.03631769  0.55340024  1  0.085776  -0.00024  0.95587  -0.002  0.091335  -7.8e-05  1.023768  -0.001  0.094607  5.7e-05  1.020192  -0.001  0.118082  0.088603  -0.000237  1.026808  -0.001
H  H6  1  0.98159237  0.86485860  0.34658713  1  0.114169  -8e-05  0.933612  0.0  0.125913  -0.000301  0.989006  0.0  0.129141  -0.000205  0.98823  0.0  0.112426  0.123423  -0.000401  0.989954  0.0
H  H7  1  0.01840226  0.13514709  0.65341864  1  0.114044  -8e-05  0.933714  0.0  0.125748  -0.000301  0.989158  0.0  0.12899  -0.000205  0.988366  0.0  0.112363  0.12326  -0.000401  0.990107  0.0
H  H8  1  0.72497603  0.63492291  0.38277243  1  0.099187  -0.000129  0.939461  -0.001  0.113342  0.000195  0.991588  0.0  0.116178  0.000154  0.98945  0.0  0.110704  0.110809  0.000262  0.994036  0.0
H  H9  1  0.27502144  0.36507525  0.61722938  1  0.099156  -0.000129  0.939461  -0.001  0.113359  0.000195  0.991531  0.0  0.116195  0.000154  0.989388  0.0  0.110689  0.110827  0.000262  0.993982  0.0
H  H10  1  0.73185453  0.52130591  0.51937812  1  0.122405  3e-06  0.942703  0.0  0.134049  -0.000219  0.998651  0.0  0.138198  -0.0001  0.996264  0.0  0.114916  0.130663  -0.000362  1.000875  0.0
H  H11  1  0.26814247  0.47869101  0.48062293  1  0.122379  2e-06  0.942623  0.0  0.134006  -0.000219  0.998598  0.0  0.138182  -0.0001  0.996175  0.0  0.114895  0.130618  -0.000362  1.000822  0.0
H  H12  1  0.80121007  0.31333504  0.81229148  1  0.111525  -0.000176  0.960869  0.0  0.120325  -0.000139  1.022351  0.0  0.122434  -9e-05  1.022676  0.0  0.104006  0.118744  -0.000195  1.022269  0.0
H  H13  1  0.19879130  0.68666432  0.18771174  1  0.111466  -0.000176  0.960949  0.0  0.120311  -0.000139  1.022379  0.0  0.122421  -9e-05  1.022702  0.0  0.103997  0.118728  -0.000195  1.022295  0.0
H  H14  1  0.99868989  0.37359998  0.94128622  1  0.086563  0.000103  0.968659  0.0  0.097687  1.4e-05  1.029764  0.0  0.099574  1.2e-05  1.030451  0.0  0.096594  0.096379  2e-05  1.029291  0.0
H  H15  1  0.00131227  0.62640439  0.05871877  1  0.086605  0.000103  0.968604  0.0  0.09768  1.4e-05  1.029756  0.0  0.09957  1.2e-05  1.030434  0.0  0.096593  0.09637  2e-05  1.029289  0.0
H  H16  1  0.27724915  0.59684946  0.95283893  1  0.083878  -5e-06  0.975367  0.0  0.0963  1.4e-05  1.033487  0.0  0.098058  1e-05  1.034273  0.0  0.095611  0.095022  2.1e-05  1.033097  0.0
H  H17  1  0.72275547  0.40315238  0.04716453  1  0.083834  -5e-06  0.975429  0.0  0.096267  1.4e-05  1.033532  0.0  0.098025  1e-05  1.034316  0.0  0.09558  0.094989  2.1e-05  1.033141  0.0
H  H18  1  0.37862180  0.76104852  0.83161285  1  0.112255  7.1e-05  0.965059  0.0  0.12041  2.5e-05  1.029191  0.0  0.122954  6e-05  1.028689  0.0  0.103332  0.118515  -1.7e-05  1.029653  0.0
H  H19  1  0.62137959  0.23895086  0.16838908  1  0.11227  7.1e-05  0.965079  0.0  0.120406  2.5e-05  1.029231  0.0  0.12295  6e-05  1.028728  0.0  0.103313  0.118509  -1.7e-05  1.029693  0.0
H  H20  1  0.31269294  0.09048741  0.81112396  1  0.098082  0.000324  0.956951  0.0  0.105201  0.00028  1.023612  0.0  0.108319  0.000277  1.021287  0.0  0.103938  0.102974  0.000251  1.025221  0.0
H  H21  1  0.68730621  0.90951207  0.18887347  1  0.098015  0.000323  0.957012  0.0  0.105134  0.00028  1.023678  0.0  0.108251  0.000277  1.021357  0.0  0.10391  0.102906  0.000251  1.025286  0.0
H  H22  1  0.32810931  0.21260937  0.96685423  1  0.081542  3e-06  1.007471  0.0  0.09156  1.4e-05  1.071991  0.0  0.093641  1.1e-05  1.072514  0.0  0.093737  0.090054  2.2e-05  1.07179  0.0
H  H23  1  0.67189441  0.78739007  0.03314254  1  0.081551  3e-06  1.007531  0.0  0.091542  1.4e-05  1.072071  0.0  0.09364  1.1e-05  1.072576  0.0  0.093747  0.09004  2.2e-05  1.07186  0.0
H  H24  1  0.66401638  0.69006852  0.91176315  1  0.082125  -4e-06  1.008127  0.0  0.091307  -9e-06  1.07339  0.0  0.092814  -1e-06  1.075178  0.0  0.094771  0.090266  -1.9e-05  1.072215  0.0
H  H25  1  0.33599257  0.30992961  0.08823350  1  0.082168  -4e-06  1.008058  0.0  0.091339  -9e-06  1.073341  0.0  0.092847  -1e-06  1.075125  0.0  0.094756  0.090299  -1.9e-05  1.072166  0.0
H  H26  1  0.64440007  0.56674434  0.75732629  1  0.095928  5.9e-05  0.965909  0.0  0.101082  2.4e-05  1.036737  0.0  0.10402  2.1e-05  1.035246  0.0  0.101453  0.098958  2.8e-05  1.03783  0.0
H  H27  1  0.35560642  0.43325633  0.24267061  1  0.095937  5.8e-05  0.965894  0.0  0.101101  2.4e-05  1.036683  0.0  0.104043  2.1e-05  1.035195  0.0  0.101452  0.098978  2.8e-05  1.037776  0.0
H  H28  1  0.61373019  0.05076476  0.88117347  1  0.096941  -0.000101  0.954256  0.0  0.106736  -4.3e-05  1.016251  0.0  0.110064  -1.2e-05  1.014402  0.0  0.102033  0.104321  -7.4e-05  1.017642  0.0
H  H29  1  0.38626747  0.94923978  0.11882315  1  0.097003  -0.000101  0.954275  0.0  0.106751  -4.3e-05  1.016307  0.0  0.11008  -1.2e-05  1.014459  0.0  0.102057  0.104335  -7.4e-05  1.017697  0.0
H  H30  1  0.78093415  0.09924874  0.01775820  1  0.085907  0.0  0.981072  0.0  0.097633  -1.3e-05  1.041651  0.0  0.100401  -9e-06  1.040795  0.0  0.09804  0.09568  -1.7e-05  1.042326  0.0
H  H31  1  0.21906459  0.90076458  0.98224121  1  0.085964  1e-06  0.98106  0.0  0.09765  -1.3e-05  1.041684  0.0  0.100421  -9e-06  1.040821  0.0  0.098048  0.095697  -1.7e-05  1.042361  0.0
H  H32  1  0.09498694  0.87802242  0.87479375  1  0.083329  -3.6e-05  0.994437  0.0  0.093999  -2.6e-05  1.057895  0.0  0.09629  -1.4e-05  1.058085  0.0  0.097104  0.092351  -4e-05  1.057914  0.0
H  H33  1  0.90500972  0.12197957  0.12520586  1  0.083322  -3.6e-05  0.994536  0.0  0.094014  -2.6e-05  1.057984  0.0  0.096309  -1.4e-05  1.058168  0.0  0.097101  0.092364  -4e-05  1.058003  0.0
H  H34  1  0.93144561  0.84136425  0.73872871  1  0.097559  6.5e-05  0.976955  0.0  0.102854  9.4e-05  1.046412  0.0  0.106185  8.8e-05  1.044184  0.0  0.101423  0.100498  0.000103  1.047961  0.0
H  H35  1  0.06854777  0.15863520  0.26127387  1  0.097605  6.5e-05  0.97688  0.0  0.102874  9.4e-05  1.046371  0.0  0.106212  8.8e-05  1.044122  0.0  0.101437  0.100517  0.000103  1.047922  0.0
H  H36  1  0.45659852  0.75969482  0.47426212  1  0.436165  -0.000497  0.866513  -0.001  0.40323  -0.00062  0.932611  -0.001  0.415769  -0.000241  0.91486  -0.001  0.289723  0.394241  -0.00099  0.945158  -0.002
H  H37  1  0.54340129  0.24030340  0.52573519  1  0.436037  -0.000497  0.866693  -0.001  0.403234  -0.000619  0.932614  -0.001  0.415774  -0.00024  0.914859  -0.001  0.289737  0.394244  -0.00099  0.945166  -0.002
H  H38  1  0.56733204  0.79363774  0.57307668  1  0.423152  0.00015  0.888998  0.0  0.391434  -0.000522  0.953619  -0.001  0.404466  -0.000324  0.935196  -0.001  0.285304  0.38214  -0.000716  0.966569  -0.001
H  H39  1  0.43266679  0.20635796  0.42692038  1  0.423204  0.00015  0.888951  0.0  0.391584  -0.000522  0.953419  -0.001  0.404613  -0.000324  0.935  -0.001  0.285385  0.382291  -0.000716  0.966369  -0.001
C  C40  1  0.12352341  0.86605795  0.46050965  1  0.14209  0.024054  3.6792  0.016  0.112787  0.009388  3.94054  0.006  0.121258  0.009048  3.955442  0.006  0.051339  0.10634  0.010434  3.931416  0.006
C  C41  1  0.87647353  0.13394775  0.53949419  1  0.142209  0.02404  3.679123  0.016  0.11289  0.009389  3.940482  0.006  0.121363  0.009049  3.955387  0.006  0.05134  0.106441  0.010435  3.931361  0.006
C  C42  1  0.98058471  0.80980890  0.40477638  1  -0.095671  -0.010328  3.684953  -0.014  -0.11414  -0.003716  3.942211  -0.005  -0.118493  -0.003801  3.959083  -0.005  -0.076751  -0.111796  -0.003491  3.932597  -0.006
C  C43  1  0.01940717  0.19019559  0.59522733  1  -0.095521  -0.010319  3.685032  -0.014  -0.11395  -0.003716  3.942306  -0.005  -0.118316  -0.003801  3.959177  -0.005  -0.076727  -0.111608  -0.003491  3.932697  -0.006
C  C44  1  0.83802960  0.68327006  0.42530159  1  0.008495  0.027347  3.687188  0.017  -0.010223  0.011426  3.940103  0.006  -0.004152  0.009433  3.953284  0.005  -0.064608  -0.015863  0.015355  3.933615  0.009
C  C45  1  0.16196804  0.31672556  0.57470128  1  0.008444  0.027337  3.687187  0.017  -0.01032  0.011429  3.940089  0.006  -0.004247  0.009435  3.953284  0.005  -0.064594  -0.015964  0.01536  3.933606  0.009
C  C46  1  0.84140088  0.61901610  0.50134197  1  -0.105204  -0.008832  3.663513  -0.013  -0.129125  -0.002886  3.914078  -0.004  -0.133287  -0.002856  3.92946  -0.004  -0.073518  -0.126481  -0.00309  3.905616  -0.005
C  C47  1  0.15859665  0.38097328  0.49865707  1  -0.105083  -0.008825  3.663379  -0.013  -0.129003  -0.002886  3.913957  -0.004  -0.133183  -0.002856  3.929326  -0.004  -0.073441  -0.126358  -0.003091  3.905493  -0.005
C  C48  1  0.98906355  0.68292676  0.55398703  1  0.135274  0.022627  3.804241  0.015  0.138178  0.009804  4.052125  0.006  0.143381  0.008481  4.070817  0.006  0.116056  0.133347  0.012795  4.040347  0.008
C  C49  1  0.01093457  0.31707011  0.44601596  1  0.135201  0.022614  3.80441  0.015  0.138132  0.009804  4.052229  0.006  0.143335  0.008481  4.070929  0.006  0.115944  0.133301  0.012795  4.040447  0.008
C  C50  1  0.01201971  0.62991718  0.63510244  1  0.323616  0.000141  3.778893  -0.002  0.285756  -0.001246  4.058491  -0.003  0.303487  -0.000949  4.071078  -0.003  0.230697  0.273976  -0.00111  4.04924  -0.004
C  C51  1  0.98797926  0.37007592  0.36489954  1  0.323691  0.000144  3.778921  -0.002  0.285886  -0.001246  4.058419  -0.003  0.303601  -0.000949  4.071018  -0.003  0.230861  0.274112  -0.001111  4.049161  -0.004
C  C52  1  0.97997925  0.50781396  0.75152877  1  0.157074  -0.003073  3.783919  -0.005  0.148277  -0.00193  4.027142  -0.003  0.151023  -0.001321  4.050888  -0.002  0.097285  0.146449  -0.002584  4.011393  -0.004
C  C53  1  0.02002316  0.49217914  0.24847062  1  0.157032  -0.003078  3.783819  -0.005  0.148148  -0.00193  4.027167  -0.003  0.150878  -0.001321  4.050929  -0.002  0.097229  0.146322  -0.002584  4.011416  -0.004
C  C54  1  0.92491359  0.41091240  0.81697181  1  -0.151602  0.001502  3.751853  0.001  -0.168703  2.5e-05  4.001031  0.0  -0.172002  3.8e-05  4.023142  0.0  -0.09495  -0.166357  -8e-06  3.986027  0.0
C  C55  1  0.07508911  0.58908445  0.18302988  1  -0.151525  0.001515  3.751736  0.001  -0.168627  2.5e-05  4.000919  0.0  -0.171926  3.8e-05  4.023032  0.0  -0.094922  -0.16628  -8e-06  3.985912  0.0
C  C56  1  0.03604437  0.44612466  0.88864606  1  -0.063815  -0.00157  3.773174  -0.002  -0.078668  -0.000326  4.024148  -0.001  -0.08115  -8e-05  4.047378  0.0  -0.09459  -0.076861  -0.000645  4.008285  -0.001
C  C57  1  0.96395749  0.55387597  0.11135664  1  -0.063956  -0.001577  3.773181  -0.002  -0.078789  -0.000326  4.024197  -0.001  -0.081269  -8e-05  4.047426  0.0  -0.094683  -0.076983  -0.000645  4.008332  -0.001
C  C58  1  0.19627029  0.57275820  0.89468961  1  -0.075498  0.00413  3.793375  0.003  -0.090794  0.00095  4.04633  0.001  -0.09298  0.000702  4.069643  0.0  -0.097964  -0.089451  0.001346  4.030608  0.001
C  C59  1  0.80373025  0.42724495  0.10531398  1  -0.075353  0.004144  3.793441  0.003  -0.090644  0.00095  4.046358  0.001  -0.09283  0.000703  4.069668  0.0  -0.09784  -0.089302  0.001346  4.030637  0.001
C  C60  1  0.25370436  0.66578012  0.82829883  1  -0.148349  -0.00257  3.736342  -0.004  -0.167239  -0.000607  3.985169  -0.001  -0.170948  -0.000248  4.005766  -0.001  -0.094977  -0.164478  -0.001098  3.971336  -0.002
C  C61  1  0.74629245  0.33421930  0.17170375  1  -0.148446  -0.002577  3.736211  -0.004  -0.167326  -0.000607  3.98503  -0.001  -0.171037  -0.000249  4.005632  -0.001  -0.09501  -0.164564  -0.001098  3.971197  -0.002
C  C62  1  0.14315367  0.63196819  0.75574112  1  0.15482  0.00229  3.812143  0.0  0.157936  -0.001515  4.058968  -0.003  0.162358  -0.001339  4.08305  -0.002  0.091142  0.154383  -0.001597  4.042449  -0.003
C  C63  1  0.85684560  0.36802867  0.24426186  1  0.154981  0.002299  3.811961  0.0  0.158151  -0.001514  4.058749  -0.003  0.162575  -0.001339  4.082834  -0.003  0.091225  0.154598  -0.001597  4.04223  -0.003
C  C64  1  0.46818404  0.23990724  0.67993945  1  0.665268  0.001619  3.868791  -0.001  0.613537  -0.003195  4.171778  -0.005  0.652407  -0.002333  4.161825  -0.005  0.221173  0.585376  -0.004134  4.177516  -0.006
C  C65  1  0.53182247  0.76009347  0.32005551  1  0.665254  0.001622  3.868639  -0.001  0.613454  -0.003193  4.171728  -0.005  0.652328  -0.00233  4.161769  -0.005  0.221103  0.585292  -0.004131  4.177462  -0.006
C  C66  1  0.47788361  0.31906743  0.77350274  1  -0.084646  -0.001794  3.774  -0.003  -0.062741  -0.00094  4.008573  -0.002  -0.071933  -0.0003  4.030483  -0.001  -0.022188  -0.056954  -0.001695  3.994681  -0.003
C  C67  1  0.52212160  0.68092695  0.22649420  1  -0.084488  -0.001799  3.77399  -0.003  -0.062566  -0.000942  4.008573  -0.002  -0.071761  -0.000302  4.030485  -0.001  -0.022114  -0.056777  -0.001695  3.994673  -0.003
C  C68  1  0.38911154  0.22204529  0.83414417  1  -0.047638  -0.000611  3.735794  -0.001  -0.070926  -0.000427  3.9827  -0.001  -0.069061  -0.000298  4.001903  0.0  -0.080336  -0.07229  -0.000624  3.97013  -0.001
C  C69  1  0.61089725  0.77795539  0.16585079  1  -0.047553  -0.000606  3.735715  -0.001  -0.070829  -0.000427  3.982603  -0.001  -0.068961  -0.000297  4.001807  0.0  -0.080335  -0.072194  -0.000623  3.97003  -0.001
C  C70  1  0.39919829  0.29205960  0.92201967  1  -0.115965  0.000577  3.729891  0.0  -0.132622  0.000223  3.974478  0.0  -0.137143  0.000357  3.995743  0.0  -0.091723  -0.129597  0.00012  3.960259  0.0
C  C71  1  0.60080611  0.70793860  0.07797569  1  -0.116035  0.000567  3.730078  0.0  -0.13266  0.000223  3.974729  0.0  -0.137195  0.000357  3.995986  0.0  -0.091716  -0.129636  0.000119  3.960508  0.0
C  C72  1  0.49729704  0.46228300  0.95326732  1  0.05186  -0.000823  3.763821  -0.001  0.066195  -0.000643  3.994033  -0.001  0.068378  -0.000503  4.014822  -0.001  -0.003494  0.064665  -0.000824  3.97998  -0.001
C  C73  1  0.50271763  0.53771509  0.04672803  1  0.05194  -0.000818  3.763688  -0.001  0.066183  -0.000643  3.993975  -0.001  0.068367  -0.000503  4.014767  -0.001  -0.003413  0.064648  -0.000824  3.979925  -0.001
C  C74  1  0.58653239  0.55799118  0.89164092  1  -0.107727  3.8e-05  3.719781  0.0  -0.125359  5e-05  3.967353  0.0  -0.129801  0.000245  3.989408  0.0  -0.088601  -0.122338  -0.000119  3.952421  0.0
C  C75  1  0.41347884  0.44200691  0.10835637  1  -0.107733  3e-05  3.719542  0.0  -0.125345  5e-05  3.967157  0.0  -0.129787  0.000245  3.989211  0.0  -0.088561  -0.122322  -0.000119  3.95222  0.0
C  C76  1  0.57643293  0.48839691  0.80353368  1  -0.063667  -0.000569  3.74491  -0.001  -0.089174  -0.000832  3.998902  -0.001  -0.088131  -0.000648  4.019423  -0.001  -0.084137  -0.089749  -0.001093  3.985115  -0.001
C  C77  1  0.42357620  0.51159871  0.19646209  1  -0.063809  -0.000563  3.74514  -0.001  -0.08932  -0.000831  3.999125  -0.001  -0.088281  -0.000647  4.019652  -0.001  -0.084212  -0.089897  -0.001092  3.985337  -0.001
C  C78  1  0.65450328  0.89897624  0.71733048  1  0.633063  0.007312  3.90651  0.005  0.590124  0.001348  4.196928  0.0  0.626231  0.000902  4.189426  0.0  0.206115  0.564917  0.002402  4.200696  0.001
C  C79  1  0.34549376  0.10102074  0.28266671  1  0.63297  0.007312  3.906462  0.005  0.59005  0.001348  4.196857  0.0  0.626157  0.000902  4.189359  0.0  0.206135  0.564844  0.002402  4.20062  0.001
C  C80  1  0.75992511  0.93949424  0.80080188  1  -0.069264  -0.003351  3.75815  -0.005  -0.048249  -0.001759  3.990566  -0.003  -0.056413  -0.0014  4.012502  -0.002  -0.019483  -0.043283  -0.00196  3.976432  -0.003
C  C81  1  0.24006830  0.06050525  0.19919813  1  -0.069271  -0.003357  3.758303  -0.005  -0.048231  -0.00176  3.990658  -0.003  -0.056396  -0.001401  4.012595  -0.002  -0.01952  -0.043264  -0.00196  3.976518  -0.003
C  C82  1  0.72017306  0.01374280  0.88039196  1  -0.072085  0.002262  3.748819  0.001  -0.092307  0.000523  3.994337  0.0  -0.090998  0.000434  4.012219  0.0  -0.084672  -0.093149  0.000757  3.982589  0.0
C  C83  1  0.27982344  0.98626172  0.11960724  1  -0.072126  0.002273  3.749045  0.001  -0.092302  0.000523  3.994541  0.0  -0.090994  0.000435  4.012424  0.0  -0.084692  -0.093144  0.000757  3.982789  0.0
C  C84  1  0.81512793  0.03982284  0.95753588  1  -0.124468  -0.000385  3.743543  -0.001  -0.139075  -0.0  3.988151  0.0  -0.14219  -5.8e-05  4.006591  0.0  -0.091176  -0.137012  0.000165  3.975773  0.0
C  C85  1  0.18487312  0.96018160  0.04246525  1  -0.124504  -0.000392  3.743652  -0.001  -0.139092  -0.0  3.988251  0.0  -0.142204  -5.8e-05  4.006694  0.0  -0.091183  -0.137028  0.000165  3.975871  0.0
C  C86  1  0.95149188  0.98995113  0.95877163  1  0.051182  0.002255  3.757033  0.001  0.064817  0.000772  3.988653  0.0  0.066581  0.000523  4.010133  0.0  -0.004618  0.063602  0.001424  3.974157  0.001
C  C87  1  0.04850672  0.01005589  0.04122782  1  0.051176  0.002268  3.757035  0.001  0.064816  0.000772  3.988659  0.0  0.066563  0.000523  4.010166  0.0  -0.004589  0.063596  0.001424  3.974163  0.001
C  C88  1  0.99141798  0.91895738  0.87794025  1  -0.10526  -0.000666  3.72306  -0.001  -0.122863  -0.000167  3.969271  0.0  -0.126697  -0.000154  3.990239  0.0  -0.087569  -0.120329  -0.000152  3.955221  0.0
C  C89  1  0.00857949  0.08104965  0.12205855  1  -0.105124  -0.000673  3.723066  -0.001  -0.122749  -0.000167  3.969256  0.0  -0.12658  -0.000154  3.990226  0.0  -0.087526  -0.120214  -0.000152  3.955203  0.0
C  C90  1  0.89890191  0.89605370  0.80070285  1  -0.060415  0.001893  3.73085  0.001  -0.083303  0.000322  3.979949  0.0  -0.08194  0.000227  3.998594  0.0  -0.083219  -0.08408  0.000625  3.967474  0.0
C  C91  1  0.10108969  0.10394706  0.19929793  1  -0.060511  0.001905  3.730865  0.001  -0.083396  0.000322  3.979977  0.0  -0.08203  0.000227  3.998625  0.0  -0.083214  -0.084174  0.000626  3.967499  0.0
N  N92  1  0.12914038  0.80388058  0.53348327  1  -0.34337  -0.035199  3.273666  -0.074  -0.300766  -0.02428  3.553398  -0.05  -0.321794  -0.02053  3.567459  -0.044  -0.317202  -0.285126  -0.027402  3.543833  -0.054
N  N93  1  0.87085349  0.19612014  0.46651879  1  -0.343429  -0.035193  3.273706  -0.074  -0.300837  -0.024279  3.553427  -0.05  -0.321861  -0.02053  3.567482  -0.044  -0.317201  -0.285199  -0.027401  3.543863  -0.054
N  N94  1  0.15923100  0.70511609  0.68162021  1  -0.477513  -0.041594  3.236187  -0.064  -0.447462  -0.031834  3.5536  -0.042  -0.476808  -0.024402  3.563801  -0.031  -0.358255  -0.424292  -0.039038  3.545267  -0.052
N  N95  1  0.84076778  0.29487952  0.31838200  1  -0.477585  -0.041598  3.236288  -0.064  -0.44758  -0.031835  3.553708  -0.042  -0.47692  -0.024403  3.563907  -0.031  -0.358307  -0.424414  -0.039039  3.545375  -0.052
N  N96  1  0.90154340  0.51095372  0.67473805  1  -0.372415  -0.001325  3.358313  -0.001  -0.312457  -0.001858  3.593554  -0.002  -0.330902  -0.001277  3.60604  -0.002  -0.365992  -0.300338  -0.002315  3.585209  -0.003
N  N97  1  0.09845798  0.48904565  0.32526453  1  -0.372449  -0.001326  3.358286  -0.002  -0.312463  -0.001858  3.593604  -0.002  -0.330886  -0.001277  3.606099  -0.002  -0.366058  -0.300349  -0.002316  3.585261  -0.003
O  O98  1  0.34484166  0.10229139  0.65306660  1  -0.634247  -0.044796  2.135951  -0.075  -0.601985  -0.036888  2.434955  -0.056  -0.642386  -0.026518  2.420287  -0.04  -0.323111  -0.567124  -0.048659  2.442117  -0.074
O  O99  1  0.65515598  0.89771313  0.34693196  1  -0.634256  -0.044801  2.135975  -0.075  -0.602001  -0.036893  2.43505  -0.056  -0.6424  -0.026524  2.420373  -0.04  -0.323101  -0.567143  -0.048665  2.442211  -0.074
O  O100  1  0.57861205  0.31184690  0.62958088  1  -0.620874  -0.005416  2.004096  -0.01  -0.561367  -0.004504  2.224675  -0.008  -0.587405  -0.002889  2.212997  -0.006  -0.303403  -0.542902  -0.006536  2.232391  -0.012
O  O101  1  0.42139299  0.68815002  0.37041500  1  -0.620982  -0.005418  2.003886  -0.01  -0.561347  -0.004504  2.22449  -0.008  -0.587388  -0.002889  2.212818  -0.006  -0.303398  -0.542885  -0.006536  2.232204  -0.012
O  O102  1  0.52726195  0.93920647  0.72135795  1  -0.641174  -0.032906  2.073369  -0.063  -0.597344  -0.027109  2.337739  -0.045  -0.631525  -0.02206  2.323612  -0.037  -0.321344  -0.570163  -0.032476  2.3463  -0.054
O  O103  1  0.47274058  0.06080179  0.27863968  1  -0.641143  -0.032906  2.073242  -0.063  -0.597331  -0.027109  2.337613  -0.045  -0.631508  -0.02206  2.323488  -0.037  -0.321412  -0.570152  -0.032476  2.346171  -0.054
O  O104  1  0.69646152  0.82518050  0.64912625  1  -0.617209  0.001438  1.958926  0.0  -0.566218  9.3e-05  2.176781  -0.001  -0.591522  0.000504  2.167689  0.0  -0.319348  -0.54824  -0.000337  2.182508  -0.002
O  O105  1  0.30353616  0.17481518  0.35087275  1  -0.617183  0.001437  1.958957  0.0  -0.566238  9.3e-05  2.176771  -0.001  -0.591545  0.000505  2.167684  0.0  -0.319349  -0.54826  -0.000337  2.182495  -0.002
O  O106  1  0.46361440  0.78963006  0.54020906  1  -0.869709  -0.047617  1.994764  -0.079  -0.828686  -0.042641  2.233456  -0.065  -0.864813  -0.032102  2.190621  -0.049  -0.582666  -0.796912  -0.053541  2.261902  -0.08
O  O107  1  0.53638133  0.21036947  0.45978708  1  -0.869685  -0.047619  1.99497  -0.079  -0.828845  -0.042644  2.233404  -0.065  -0.864969  -0.032105  2.190562  -0.049  -0.582769  -0.79707  -0.053544  2.261847  -0.08
