# generated using pymatgen
data_CdH10C18S(NO2)2
_symmetry_space_group_name_H-M   'P 1'
_cell_length_a   7.45685195
_cell_length_b   9.93776164
_cell_length_c   21.72679894
_cell_angle_alpha   89.99985782
_cell_angle_beta   90.00025988
_cell_angle_gamma   103.80467295
_symmetry_Int_Tables_number   1
_chemical_formula_structural   CdH10C18S(NO2)2
_chemical_formula_sum   'Cd4 H40 C72 S4 N8 O16'
_cell_volume   1563.54514272
_cell_formula_units_Z   4
loop_
 _symmetry_equiv_pos_site_id
 _symmetry_equiv_pos_as_xyz
  1  'x, y, z'
loop_
 _atom_site_type_symbol
 _atom_site_label
 _atom_site_symmetry_multiplicity
 _atom_site_fract_x
 _atom_site_fract_y
 _atom_site_fract_z
 _atom_site_occupancy
 _atom_site_hle17_bader_spin_density
 _atom_site_hle17_ddec_charge
 _atom_site_hle17_ddec_spin_density
 _atom_site_hle17_ddec_sum_bond_order
 _atom_site_hle17_magmom
 _atom_site_hse06_10hf_bader_spin_density
 _atom_site_hse06_10hf_ddec_charge
 _atom_site_hse06_10hf_ddec_spin_density
 _atom_site_hse06_10hf_ddec_sum_bond_order
 _atom_site_hse06_10hf_magmom
 _atom_site_hse06_bader_spin_density
 _atom_site_hse06_ddec_charge
 _atom_site_hse06_ddec_spin_density
 _atom_site_hse06_ddec_sum_bond_order
 _atom_site_hse06_magmom
 _atom_site_pbe_bader_spin_density
 _atom_site_pbe_cm5_charge
 _atom_site_pbe_ddec_charge
 _atom_site_pbe_ddec_spin_density
 _atom_site_pbe_ddec_sum_bond_order
 _atom_site_pbe_magmom
Cd  Cd0  1  0.80876499  0.96857999  0.55665689  1  0  1.125591  0  1.654328  0  0  0.933016  0  2.08436  0  0  0.99183  0  2.031835  0  0  0.789113  0.89113  0  2.120814  0
Cd  Cd1  1  0.19123767  0.53142262  0.05665523  1  0  1.125523  0  1.654431  0  0  0.932933  0  2.084465  0  0  0.991747  0  2.03194  0  0  0.789057  0.891041  0  2.120913  0
Cd  Cd2  1  0.19123351  0.03141896  0.44334341  1  0  1.125554  0  1.654341  0  0  0.932983  0  2.084345  0  0  0.991796  0  2.031822  0  0  0.789103  0.891096  0  2.120799  0
Cd  Cd3  1  0.80876210  0.46857215  0.94334416  1  0  1.12552  0  1.654407  0  0  0.932934  0  2.084439  0  0  0.991751  0  2.031911  0  0  0.789042  0.891043  0  2.120886  0
H  H4  1  0.47361761  0.13063689  0.59021520  1  0  0.094389  0  0.959294  0  0  0.101672  0  1.023588  0  0  0.105143  0  1.019861  0  0  0.116123  0.099034  0  1.026459  0
H  H5  1  0.52638867  0.36937079  0.09021784  1  0  0.09437  0  0.959281  0  0  0.101655  0  1.023584  0  0  0.105123  0  1.019864  0  0  0.116135  0.099014  0  1.026459  0
H  H6  1  0.52638693  0.86936407  0.40978510  1  0  0.094435  0  0.959373  0  0  0.101723  0  1.023648  0  0  0.105192  0  1.019927  0  0  0.11617  0.099085  0  1.026516  0
H  H7  1  0.47362198  0.63063634  0.90978568  1  0  0.09439  0  0.959413  0  0  0.101701  0  1.023665  0  0  0.10517  0  1.019943  0  0  0.116158  0.099059  0  1.026531  0
H  H8  1  0.32440474  0.19940727  0.68406595  1  0  0.107103  0  0.96302  0  0  0.117941  0  1.021915  0  0  0.120782  0  1.021333  0  0  0.106973  0.115926  0  1.022369  0
H  H9  1  0.67560061  0.30060221  0.18406938  1  0  0.107152  0  0.963033  0  0  0.117941  0  1.02198  0  0  0.120781  0  1.021401  0  0  0.106962  0.115923  0  1.022437  0
H  H10  1  0.67559131  0.80058443  0.31593527  1  0  0.107111  0  0.962956  0  0  0.117936  0  1.021872  0  0  0.120777  0  1.021291  0  0  0.106981  0.115922  0  1.022321  0
H  H11  1  0.32440813  0.69941118  0.81593460  1  0  0.107106  0  0.96299  0  0  0.117924  0  1.02191  0  0  0.120765  0  1.021329  0  0  0.106975  0.115912  0  1.022367  0
H  H12  1  0.44799957  0.15052828  0.78955470  1  0  0.103999  0  0.965695  0  0  0.113365  0  1.030222  0  0  0.117113  0  1.026236  0  0  0.105831  0.110543  0  1.033296  0
H  H13  1  0.55199684  0.34947473  0.28955741  1  0  0.103943  0  0.965732  0  0  0.113311  0  1.030269  0  0  0.117074  0  1.026238  0  0  0.105801  0.110496  0  1.033339  0
H  H14  1  0.55199647  0.84946341  0.21044560  1  0  0.103974  0  0.96568  0  0  0.113333  0  1.030225  0  0  0.117087  0  1.026221  0  0  0.105816  0.110544  0  1.033257  0
H  H15  1  0.44800045  0.65053255  0.71044657  1  0  0.103976  0  0.965707  0  0  0.113323  0  1.030263  0  0  0.117078  0  1.02626  0  0  0.105828  0.110522  0  1.033312  0
H  H16  1  0.11944332  0.80816008  0.80145547  1  0  0.107731  0  0.969588  0  0  0.115328  0  1.036932  0  0  0.119294  0  1.032504  0  0  0.105274  0.112452  0  1.040096  0
H  H17  1  0.88055799  0.69183763  0.30145569  1  0  0.107722  0  0.969523  0  0  0.115305  0  1.036889  0  0  0.119269  0  1.032467  0  0  0.105269  0.112423  0  1.040051  0
H  H18  1  0.88055133  0.19182747  0.19854253  1  0  0.107685  0  0.969647  0  0  0.115295  0  1.036968  0  0  0.11926  0  1.032544  0  0  0.105239  0.112417  0  1.040139  0
H  H19  1  0.11945034  0.30817057  0.69854323  1  0  0.107711  0  0.969574  0  0  0.115307  0  1.036915  0  0  0.119269  0  1.032498  0  0  0.105257  0.112435  0  1.040074  0
H  H20  1  0.25940727  0.75108414  0.70059171  1  0  0.102639  0  0.975422  0  0  0.113841  0  1.034524  0  0  0.116689  0  1.033769  0  0  0.106027  0.111798  0  1.035164  0
H  H21  1  0.74059466  0.74891908  0.20059071  1  0  0.102693  0  0.975323  0  0  0.113833  0  1.034486  0  0  0.116681  0  1.033728  0  0  0.106035  0.111782  0  1.035141  0
H  H22  1  0.74058610  0.24890759  0.29940629  1  0  0.102717  0  0.97538  0  0  0.113895  0  1.034505  0  0  0.116741  0  1.033749  0  0  0.106052  0.111849  0  1.035147  0
H  H23  1  0.25941703  0.25109116  0.79940775  1  0  0.102655  0  0.975434  0  0  0.113849  0  1.034536  0  0  0.116695  0  1.033783  0  0  0.106041  0.111807  0  1.03517  0
H  H24  1  0.13124842  0.81662110  0.60187062  1  0  0.087732  0  0.938554  0  0  0.09496  0  1.003932  0  0  0.097652  0  1.001148  0  0  0.117041  0.092854  0  1.006055  0
H  H25  1  0.86875382  0.68338658  0.10187037  1  0  0.08776  0  0.938586  0  0  0.09499  0  1.003967  0  0  0.097683  0  1.001182  0  0  0.11704  0.092887  0  1.006088  0
H  H26  1  0.86875007  0.18337785  0.39812784  1  0  0.087786  0  0.938551  0  0  0.095013  0  1.003928  0  0  0.097705  0  1.001144  0  0  0.117065  0.092908  0  1.006053  0
H  H27  1  0.13125008  0.31661647  0.89812809  1  0  0.08778  0  0.938564  0  0  0.09499  0  1.003965  0  0  0.097682  0  1.00118  0  0  0.117041  0.092887  0  1.006083  0
H  H28  1  0.65425395  0.04903932  0.84964064  1  0  0.107272  0  0.97406  0  0  0.115327  0  1.041173  0  0  0.118339  0  1.039653  0  0  0.101887  0.113044  0  1.042426  0
H  H29  1  0.34575044  0.45096134  0.34964058  1  0  0.107154  0  0.974045  0  0  0.115252  0  1.041157  0  0  0.118256  0  1.039661  0  0  0.101857  0.112986  0  1.042361  0
H  H30  1  0.34575151  0.95095643  0.15036012  1  0  0.107213  0  0.974012  0  0  0.115291  0  1.041161  0  0  0.118301  0  1.039645  0  0  0.101846  0.113022  0  1.04237  0
H  H31  1  0.65424405  0.54903766  0.65036064  1  0  0.10724  0  0.974044  0  0  0.115299  0  1.041188  0  0  0.118311  0  1.039669  0  0  0.101851  0.113017  0  1.04243  0
H  H32  1  0.90452210  0.91815383  0.85428621  1  0  0.100338  0  0.973513  0  0  0.10848  0  1.041567  0  0  0.110942  0  1.041032  0  0  0.100027  0.106554  0  1.042161  0
H  H33  1  0.09547579  0.58184377  0.35428340  1  0  0.100403  0  0.97356  0  0  0.108506  0  1.041647  0  0  0.110967  0  1.041115  0  0  0.100055  0.106582  0  1.042239  0
H  H34  1  0.09548168  0.08184090  0.14571639  1  0  0.100414  0  0.973559  0  0  0.108517  0  1.041634  0  0  0.110978  0  1.0411  0  0  0.100049  0.106591  0  1.04222  0
H  H35  1  0.90451736  0.41815525  0.64571460  1  0  0.100415  0  0.973464  0  0  0.108516  0  1.041564  0  0  0.110979  0  1.041027  0  0  0.10006  0.10659  0  1.04216  0
H  H36  1  0.33572680  0.64112650  0.42906035  1  0  0.107958  0  0.957101  0  0  0.116779  0  1.023708  0  0  0.119606  0  1.022554  0  0  0.105441  0.114883  0  1.02443  0
H  H37  1  0.66426896  0.85887401  0.92906006  1  0  0.107923  0  0.957132  0  0  0.116769  0  1.023709  0  0  0.11958  0  1.022579  0  0  0.10544  0.114878  0  1.024428  0
H  H38  1  0.66426664  0.35886939  0.57093903  1  0  0.107887  0  0.957116  0  0  0.116746  0  1.0237  0  0  0.119542  0  1.022587  0  0  0.105446  0.114852  0  1.024422  0
H  H39  1  0.33572546  0.14112083  0.07093886  1  0  0.107927  0  0.957157  0  0  0.116746  0  1.023764  0  0  0.119573  0  1.022613  0  0  0.105395  0.114854  0  1.024483  0
H  H40  1  0.11529987  0.38639139  0.42655649  1  0  0.106577  0  0.957681  0  0  0.11504  0  1.026048  0  0  0.117877  0  1.024782  0  0  0.104766  0.113036  0  1.027014  0
H  H41  1  0.88469370  0.11361019  0.92655502  1  0  0.106566  0  0.957746  0  0  0.115014  0  1.026127  0  0  0.117849  0  1.024863  0  0  0.104746  0.113032  0  1.027072  0
H  H42  1  0.88469526  0.61360552  0.57344427  1  0  0.10656  0  0.957706  0  0  0.115015  0  1.026088  0  0  0.117851  0  1.024823  0  0  0.104736  0.113028  0  1.027037  0
H  H43  1  0.11529439  0.88638576  0.07344159  1  0  0.106553  0  0.957779  0  0  0.115035  0  1.026122  0  0  0.117872  0  1.024858  0  0  0.104723  0.113029  0  1.02709  0
C  C44  1  0.51994257  0.10950233  0.63623860  1  0  0.139516  0  3.681719  0  0  0.107918  0  3.936204  0  0  0.11564  0  3.952663  0  0  0.05669  0.102992  0  3.924655  0
C  C45  1  0.48006288  0.39050521  0.13623884  1  0  0.139629  0  3.681552  0  0  0.107989  0  3.936075  0  0  0.115707  0  3.952537  0  0  0.056665  0.103058  0  3.924526  0
C  C46  1  0.48006232  0.89049967  0.36376262  1  0  0.139353  0  3.681885  0  0  0.10775  0  3.93638  0  0  0.11547  0  3.952839  0  0  0.056625  0.102819  0  3.924836  0
C  C47  1  0.51994137  0.60949887  0.86376285  1  0  0.139532  0  3.68182  0  0  0.10791  0  3.936292  0  0  0.115631  0  3.952753  0  0  0.056683  0.10299  0  3.924734  0
C  C48  1  0.43772687  0.14877770  0.68946310  1  0  -0.114214  0  3.737227  0  0  -0.128428  0  3.993057  0  0  -0.135178  0  4.015228  0  0  -0.08467  -0.124061  0  3.977696  0
C  C49  1  0.56227784  0.35122969  0.18946536  1  0  -0.11427  0  3.737207  0  0  -0.128429  0  3.993078  0  0  -0.135181  0  4.015255  0  0  -0.084594  -0.124057  0  3.977714  0
C  C50  1  0.56227564  0.85122120  0.31053766  1  0  -0.114089  0  3.737278  0  0  -0.128279  0  3.993101  0  0  -0.135028  0  4.01527  0  0  -0.084645  -0.123909  0  3.977742  0
C  C51  1  0.43772444  0.64877650  0.81053816  1  0  -0.114096  0  3.737309  0  0  -0.128277  0  3.993139  0  0  -0.135027  0  4.015311  0  0  -0.084608  -0.12392  0  3.977795  0
C  C52  1  0.50258123  0.12081103  0.74641772  1  0  -0.046901  0  3.682015  0  0  -0.073569  0  3.930582  0  0  -0.071263  0  3.948194  0  0  -0.063288  -0.074722  0  3.91895  0
C  C53  1  0.49741870  0.37919207  0.24641938  1  0  -0.046828  0  3.68208  0  0  -0.073561  0  3.93062  0  0  -0.071249  0  3.94824  0  0  -0.063276  -0.07472  0  3.918977  0
C  C54  1  0.49742156  0.87918475  0.25358397  1  0  -0.046988  0  3.68209  0  0  -0.073691  0  3.930676  0  0  -0.071384  0  3.948292  0  0  -0.063301  -0.074867  0  3.91902  0
C  C55  1  0.50257683  0.62081003  0.75358369  1  0  -0.046971  0  3.682126  0  0  -0.07366  0  3.930731  0  0  -0.071353  0  3.948348  0  0  -0.063336  -0.074833  0  3.919097  0
C  C56  1  0.64665600  0.05123693  0.75017775  1  0  0.030628  0  3.782953  0  0  0.050264  0  4.009047  0  0  0.047629  0  4.033634  0  0  0.000253  0.051691  0  3.993173  0
C  C57  1  0.35334060  0.44876413  0.25017817  1  0  0.030492  0  3.783143  0  0  0.050274  0  4.009061  0  0  0.047636  0  4.033652  0  0  0.000226  0.051692  0  3.993199  0
C  C58  1  0.35334714  0.94875989  0.24982255  1  0  0.030581  0  3.782874  0  0  0.050319  0  4.008901  0  0  0.047684  0  4.033493  0  0  0.000207  0.05174  0  3.993042  0
C  C59  1  0.64665423  0.55123591  0.74982352  1  0  0.030642  0  3.782881  0  0  0.050332  0  4.008966  0  0  0.047696  0  4.033557  0  0  0.000278  0.05176  0  3.993095  0
C  C60  1  0.72166037  0.01482954  0.69419536  1  0  0.143521  0  3.722448  0  0  0.134133  0  3.957791  0  0  0.138978  0  3.97902  0  0  0.121986  0.130817  0  3.943838  0
C  C61  1  0.27833863  0.48517270  0.19419607  1  0  0.143653  0  3.722437  0  0  0.134248  0  3.957688  0  0  0.139097  0  3.978916  0  0  0.122007  0.130934  0  3.943734  0
C  C62  1  0.27834283  0.98517143  0.30580540  1  0  0.143586  0  3.722377  0  0  0.134139  0  3.957712  0  0  0.138983  0  3.978942  0  0  0.122015  0.130826  0  3.943761  0
C  C63  1  0.72165888  0.51482730  0.80580516  1  0  0.143673  0  3.722279  0  0  0.134233  0  3.957683  0  0  0.139078  0  3.97891  0  0  0.12202  0.130908  0  3.943736  0
C  C64  1  0.86843527  0.94232229  0.69693487  1  0  0.144571  0  3.715743  0  0  0.13874  0  3.947958  0  0  0.143715  0  3.969279  0  0  0.122885  0.135276  0  3.93405  0
C  C65  1  0.13156726  0.55767885  0.19693307  1  0  0.144553  0  3.715748  0  0  0.13869  0  3.948014  0  0  0.143656  0  3.969343  0  0  0.122873  0.135226  0  3.934112  0
C  C66  1  0.13156990  0.05767658  0.30306635  1  0  0.144465  0  3.715798  0  0  0.138701  0  3.947911  0  0  0.143676  0  3.969232  0  0  0.122901  0.135237  0  3.934004  0
C  C67  1  0.86843594  0.44232212  0.80306585  1  0  0.144529  0  3.715705  0  0  0.138674  0  3.947964  0  0  0.143648  0  3.969285  0  0  0.1229  0.135213  0  3.934056  0
C  C68  1  0.93159490  0.90857960  0.75537613  1  0  0.032172  0  3.778304  0  0  0.049686  0  4.006298  0  0  0.047052  0  4.03099  0  0  0.001784  0.050794  0  3.990679  0
C  C69  1  0.06840427  0.59142140  0.25537465  1  0  0.032108  0  3.778348  0  0  0.049583  0  4.006389  0  0  0.046951  0  4.031082  0  0  0.001771  0.050684  0  3.990787  0
C  C70  1  0.06840528  0.09142037  0.24462417  1  0  0.032196  0  3.778298  0  0  0.049736  0  4.006198  0  0  0.0471  0  4.030891  0  0  0.001789  0.050842  0  3.990588  0
C  C71  1  0.93159830  0.40858166  0.74462427  1  0  0.03212  0  3.778364  0  0  0.049677  0  4.006293  0  0  0.047041  0  4.030986  0  0  0.001755  0.050784  0  3.990678  0
C  C72  1  0.07385615  0.83676819  0.75666050  1  0  -0.048291  0  3.67362  0  0  -0.074464  0  3.92374  0  0  -0.071914  0  3.940888  0  0  -0.065429  -0.075796  0  3.912573  0
C  C73  1  0.92615000  0.66322961  0.25665946  1  0  -0.048255  0  3.673608  0  0  -0.074394  0  3.923706  0  0  -0.071845  0  3.940856  0  0  -0.065438  -0.075719  0  3.912536  0
C  C74  1  0.92614791  0.16322342  0.24333842  1  0  -0.048243  0  3.673852  0  0  -0.074443  0  3.923966  0  0  -0.071893  0  3.941117  0  0  -0.065414  -0.075778  0  3.912801  0
C  C75  1  0.07385594  0.33677549  0.74333900  1  0  -0.048251  0  3.673672  0  0  -0.074437  0  3.923797  0  0  -0.071889  0  3.940945  0  0  -0.065417  -0.075777  0  3.912636  0
C  C76  1  0.14787528  0.80404339  0.70200918  1  0  -0.115308  0  3.747524  0  0  -0.130338  0  4.003596  0  0  -0.137312  0  4.025994  0  0  -0.085227  -0.125865  0  3.988284  0
C  C77  1  0.85212765  0.69595878  0.20200752  1  0  -0.11528  0  3.747526  0  0  -0.130252  0  4.00359  0  0  -0.137224  0  4.025989  0  0  -0.085196  -0.125779  0  3.988268  0
C  C78  1  0.85212448  0.19595139  0.29798882  1  0  -0.115315  0  3.747479  0  0  -0.130326  0  4.003548  0  0  -0.137297  0  4.025948  0  0  -0.085209  -0.125843  0  3.988223  0
C  C79  1  0.14787793  0.30404529  0.79799002  1  0  -0.115293  0  3.747565  0  0  -0.1303  0  4.003609  0  0  -0.137269  0  4.026  0  0  -0.08523  -0.125821  0  3.988292  0
C  C80  1  0.07770056  0.84107614  0.64619969  1  0  0.142341  0  3.696466  0  0  0.109021  0  3.954256  0  0  0.117274  0  3.971189  0  0  0.05705  0.103813  0  3.942243  0
C  C81  1  0.92229915  0.65893040  0.14619864  1  0  0.142197  0  3.696698  0  0  0.108869  0  3.954465  0  0  0.117119  0  3.971399  0  0  0.057003  0.103656  0  3.942452  0
C  C82  1  0.92229927  0.15892280  0.35379970  1  0  0.142199  0  3.696514  0  0  0.108877  0  3.954309  0  0  0.117128  0  3.971242  0  0  0.057007  0.103664  0  3.942298  0
C  C83  1  0.07770208  0.34107268  0.85380028  1  0  0.142186  0  3.696585  0  0  0.10887  0  3.954376  0  0  0.11712  0  3.97131  0  0  0.057021  0.103655  0  3.942367  0
C  C84  1  0.71513839  0.01684557  0.80815278  1  0  -0.104282  0  3.736781  0  0  -0.126565  0  3.987764  0  0  -0.130041  0  4.011495  0  0  -0.087053  -0.124064  0  3.971312  0
C  C85  1  0.28486188  0.48315631  0.30815119  1  0  -0.104099  0  3.736846  0  0  -0.126473  0  3.987751  0  0  -0.129957  0  4.011496  0  0  -0.087004  -0.123964  0  3.971297  0
C  C86  1  0.28486643  0.98315227  0.19184891  1  0  -0.104123  0  3.736689  0  0  -0.126506  0  3.987684  0  0  -0.129983  0  4.011417  0  0  -0.086993  -0.124003  0  3.971245  0
C  C87  1  0.71513366  0.51684580  0.69184865  1  0  -0.104251  0  3.736663  0  0  -0.126584  0  3.98767  0  0  -0.130061  0  4.011402  0  0  -0.08704  -0.124076  0  3.971211  0
C  C88  1  0.85192600  0.94699680  0.81062947  1  0  -0.105174  0  3.747244  0  0  -0.128138  0  4.00148  0  0  -0.132028  0  4.026086  0  0  -0.086719  -0.125147  0  3.984424  0
C  C89  1  0.14807407  0.55300090  0.31062770  1  0  -0.105242  0  3.74738  0  0  -0.128162  0  4.001644  0  0  -0.132049  0  4.026246  0  0  -0.086754  -0.125179  0  3.984605  0
C  C90  1  0.14807812  0.05299896  0.18937129  1  0  -0.105293  0  3.747249  0  0  -0.128212  0  4.001489  0  0  -0.132103  0  4.026096  0  0  -0.086752  -0.125222  0  3.984434  0
C  C91  1  0.85192379  0.44700014  0.68937168  1  0  -0.105247  0  3.747171  0  0  -0.128167  0  4.001401  0  0  -0.132057  0  4.026006  0  0  -0.086752  -0.125181  0  3.984351  0
C  C92  1  0.49828482  0.73851386  0.54874120  1  0  0.631503  0  3.995606  0  0  0.586754  0  4.284719  0  0  0.620848  0  4.278818  0  0  0.182488  0.563503  0  4.288016  0
C  C93  1  0.50172507  0.76148661  0.04874254  1  0  0.631498  0  3.99582  0  0  0.586751  0  4.28489  0  0  0.620843  0  4.278999  0  0  0.182546  0.563495  0  4.288193  0
C  C94  1  0.50170903  0.26148722  0.45125680  1  0  0.631368  0  3.995798  0  0  0.586615  0  4.284881  0  0  0.620704  0  4.278986  0  0  0.182396  0.563365  0  4.288181  0
C  C95  1  0.49827877  0.23851228  0.95125868  1  0  0.631551  0  3.995634  0  0  0.586744  0  4.284764  0  0  0.620835  0  4.278871  0  0  0.182535  0.563495  0  4.288056  0
C  C96  1  0.35951934  0.61464568  0.52754889  1  0  -0.132339  0  3.721071  0  0  -0.114476  0  3.983842  0  0  -0.120559  0  4.003845  0  0  -0.023664  -0.110467  0  3.970488  0
C  C97  1  0.64048433  0.88535701  0.02754894  1  0  -0.132395  0  3.721181  0  0  -0.114494  0  3.983895  0  0  -0.120569  0  4.003884  0  0  -0.023661  -0.110484  0  3.970544  0
C  C98  1  0.64047289  0.38535854  0.47245049  1  0  -0.132229  0  3.721105  0  0  -0.114308  0  3.983792  0  0  -0.12037  0  4.003762  0  0  -0.02359  -0.110303  0  3.970443  0
C  C99  1  0.35951515  0.11464089  0.97244998  1  0  -0.132443  0  3.721218  0  0  -0.114465  0  3.983868  0  0  -0.120531  0  4.003846  0  0  -0.023666  -0.110459  0  3.970525  0
C  C100  1  0.29569852  0.57456993  0.46893645  1  0  -0.083226  0  3.739883  0  0  -0.113822  0  4.006551  0  0  -0.113916  0  4.025687  0  0  -0.098511  -0.113552  0  3.99337  0
C  C101  1  0.70429937  0.92543147  0.96893523  1  0  -0.083151  0  3.739873  0  0  -0.113761  0  4.006489  0  0  -0.113845  0  4.025636  0  0  -0.098494  -0.113493  0  3.993319  0
C  C102  1  0.70429463  0.42542908  0.53106247  1  0  -0.083153  0  3.739782  0  0  -0.11379  0  4.0064  0  0  -0.113869  0  4.025551  0  0  -0.098523  -0.113519  0  3.993225  0
C  C103  1  0.29569575  0.07456544  0.03106323  1  0  -0.083185  0  3.73995  0  0  -0.113803  0  4.006563  0  0  -0.113904  0  4.025702  0  0  -0.09847  -0.113535  0  3.993385  0
C  C104  1  0.18032717  0.43916849  0.46755427  1  0  -0.071802  0  3.731978  0  0  -0.104119  0  3.998439  0  0  -0.103435  0  4.01759  0  0  -0.097284  -0.10437  0  3.985352  0
C  C105  1  0.81966987  0.06083397  0.96755184  1  0  -0.071899  0  3.732177  0  0  -0.104178  0  3.998711  0  0  -0.103494  0  4.017865  0  0  -0.097331  -0.104453  0  3.98563  0
C  C106  1  0.81966865  0.56083049  0.53244695  1  0  -0.071853  0  3.732074  0  0  -0.104182  0  3.998542  0  0  -0.103499  0  4.017687  0  0  -0.097295  -0.104444  0  3.985437  0
C  C107  1  0.18032328  0.93916505  0.03244524  1  0  -0.07187  0  3.732064  0  0  -0.104234  0  3.998583  0  0  -0.103547  0  4.017724  0  0  -0.097255  -0.104479  0  3.985493  0
C  C108  1  0.15783959  0.37810457  0.52520705  1  0  -0.145369  0  3.740123  0  0  -0.12411  0  4.000392  0  0  -0.131286  0  4.020965  0  0  -0.026539  -0.119261  0  3.986634  0
C  C109  1  0.84216253  0.12189712  0.02520499  1  0  -0.145266  0  3.740107  0  0  -0.124133  0  4.000503  0  0  -0.131316  0  4.021086  0  0  -0.026511  -0.119285  0  3.986755  0
C  C110  1  0.84215630  0.62189858  0.47479417  1  0  -0.145445  0  3.74028  0  0  -0.124125  0  4.000471  0  0  -0.131297  0  4.021038  0  0  -0.026532  -0.119277  0  3.98672  0
C  C111  1  0.15783161  0.87810084  0.97479254  1  0  -0.145227  0  3.74013  0  0  -0.123958  0  4.000324  0  0  -0.131134  0  4.0209  0  0  -0.0265  -0.119109  0  3.986568  0
C  C112  1  0.05315826  0.23970654  0.54474283  1  0  0.646112  0  3.961992  0  0  0.597944  0  4.250941  0  0  0.632698  0  4.243915  0  0  0.189027  0.574087  0  4.25516  0
C  C113  1  0.94684774  0.26029400  0.04474170  1  0  0.646144  0  3.962112  0  0  0.598047  0  4.250994  0  0  0.632805  0  4.243964  0  0  0.189059  0.574201  0  4.2552  0
C  C114  1  0.94683827  0.76029451  0.45525839  1  0  0.646209  0  3.962053  0  0  0.598037  0  4.250977  0  0  0.632792  0  4.243949  0  0  0.189019  0.574186  0  4.25519  0
C  C115  1  0.05314942  0.73970497  0.95525676  1  0  0.646037  0  3.962036  0  0  0.59792  0  4.250892  0  0  0.632675  0  4.243864  0  0  0.188997  0.574073  0  4.255099  0
S  S116  1  0.27628892  0.48719775  0.58087659  1  0  0.149339  0  2.653285  0  0  0.150335  0  2.977458  0  0  0.150368  0  2.985724  0  0  0.100915  0.150238  0  2.97182  0
S  S117  1  0.72371685  0.01280476  0.08087584  1  0  0.149347  0  2.653251  0  0  0.150371  0  2.977458  0  0  0.150401  0  2.985725  0  0  0.100909  0.150277  0  2.971821  0
S  S118  1  0.72370134  0.51280858  0.41912371  1  0  0.149307  0  2.653367  0  0  0.150264  0  2.977499  0  0  0.150288  0  2.985757  0  0  0.100872  0.150168  0  2.97186  0
S  S119  1  0.27628031  0.98719421  0.91912170  1  0  0.14938  0  2.65316  0  0  0.150328  0  2.977307  0  0  0.150354  0  2.985565  0  0  0.100904  0.150236  0  2.971674  0
N  N120  1  0.65808560  0.04613991  0.63882588  1  0  -0.339759  0  3.271127  0  0  -0.267603  0  3.531063  0  0  -0.286797  0  3.549073  0  0  -0.320309  -0.254448  0  3.518579  0
N  N121  1  0.34191784  0.45386557  0.13882489  1  0  -0.339884  0  3.271078  0  0  -0.267676  0  3.530985  0  0  -0.286868  0  3.548993  0  0  -0.320312  -0.254517  0  3.518492  0
N  N122  1  0.34192161  0.95386101  0.36117534  1  0  -0.339713  0  3.271073  0  0  -0.267549  0  3.531012  0  0  -0.286741  0  3.549023  0  0  -0.320323  -0.254398  0  3.518536  0
N  N123  1  0.65808641  0.54613852  0.86117495  1  0  -0.339933  0  3.271121  0  0  -0.26774  0  3.531069  0  0  -0.286933  0  3.549077  0  0  -0.320391  -0.25458  0  3.518576  0
N  N124  1  0.94205818  0.90674471  0.64403577  1  0  -0.3416  0  3.285857  0  0  -0.267594  0  3.546414  0  0  -0.287422  0  3.564238  0  0  -0.324005  -0.253924  0  3.533942  0
N  N125  1  0.05794446  0.59325868  0.14403518  1  0  -0.341539  0  3.285867  0  0  -0.267515  0  3.546418  0  0  -0.287338  0  3.564244  0  0  -0.323985  -0.253842  0  3.533939  0
N  N126  1  0.05794333  0.09325525  0.35596315  1  0  -0.34151  0  3.285948  0  0  -0.267526  0  3.54648  0  0  -0.287353  0  3.564304  0  0  -0.324  -0.253857  0  3.534008  0
N  N127  1  0.94205706  0.40674128  0.85596374  1  0  -0.341499  0  3.285921  0  0  -0.267479  0  3.546478  0  0  -0.287305  0  3.564303  0  0  -0.323981  -0.253811  0  3.534008  0
O  O128  1  0.54445957  0.74412296  0.60466848  1  0  -0.626624  0  1.932329  0  0  -0.583657  0  2.165064  0  0  -0.607518  0  2.15848  0  0  -0.331386  -0.566695  0  2.168924  0
O  O129  1  0.45555797  0.75587829  0.10466975  1  0  -0.626567  0  1.932538  0  0  -0.583597  0  2.165291  0  0  -0.60746  0  2.158714  0  0  -0.331326  -0.566634  0  2.169152  0
O  O130  1  0.45553371  0.25588437  0.39532998  1  0  -0.626573  0  1.932359  0  0  -0.583613  0  2.165092  0  0  -0.607476  0  2.158513  0  0  -0.331308  -0.56665  0  2.168949  0
O  O131  1  0.54445058  0.24412262  0.89533101  1  0  -0.626663  0  1.932337  0  0  -0.583678  0  2.165114  0  0  -0.607542  0  2.158538  0  0  -0.331391  -0.566711  0  2.168966  0
O  O132  1  0.56865455  0.83082368  0.50776278  1  0  -0.644947  0  1.966102  0  0  -0.573156  0  2.207891  0  0  -0.604374  0  2.19716  0  0  -0.336985  -0.551216  0  2.215137  0
O  O133  1  0.43135087  0.66917698  0.00776457  1  0  -0.644927  0  1.966032  0  0  -0.573189  0  2.207881  0  0  -0.6044  0  2.197136  0  0  -0.337054  -0.551247  0  2.215127  0
O  O134  1  0.43134830  0.16917626  0.49223430  1  0  -0.644899  0  1.966227  0  0  -0.573114  0  2.208014  0  0  -0.604325  0  2.197272  0  0  -0.336977  -0.551174  0  2.21526  0
O  O135  1  0.56864559  0.33081992  0.99223757  1  0  -0.644866  0  1.965997  0  0  -0.573104  0  2.207852  0  0  -0.604312  0  2.1971  0  0  -0.336993  -0.551163  0  2.215094  0
O  O136  1  0.03667157  0.21313068  0.60119385  1  0  -0.60597  0  1.939612  0  0  -0.561797  0  2.170121  0  0  -0.585001  0  2.162703  0  0  -0.318622  -0.545425  0  2.174669  0
O  O137  1  0.96333836  0.28686756  0.10119318  1  0  -0.606028  0  1.939708  0  0  -0.561851  0  2.170151  0  0  -0.585055  0  2.162729  0  0  -0.318648  -0.545478  0  2.174691  0
O  O138  1  0.96332699  0.78687243  0.39880737  1  0  -0.606035  0  1.939638  0  0  -0.561856  0  2.170142  0  0  -0.58506  0  2.162723  0  0  -0.318624  -0.545481  0  2.174684  0
O  O139  1  0.03666077  0.71312930  0.89880528  1  0  -0.605933  0  1.939515  0  0  -0.561789  0  2.169998  0  0  -0.584993  0  2.16258  0  0  -0.318567  -0.545419  0  2.174541  0
O  O140  1  0.98108702  0.15033530  0.50182662  1  0  -0.685193  0  2.009882  0  0  -0.598665  0  2.265675  0  0  -0.63138  0  2.251993  0  0  -0.34187  -0.575417  0  2.27458  0
O  O141  1  0.01891751  0.34966643  0.00182520  1  0  -0.685206  0  2.010006  0  0  -0.598673  0  2.265759  0  0  -0.63139  0  2.252076  0  0  -0.341857  -0.575431  0  2.274664  0
O  O142  1  0.01891118  0.84966678  0.49817552  1  0  -0.685173  0  2.00985  0  0  -0.598677  0  2.265677  0  0  -0.631392  0  2.251997  0  0  -0.34187  -0.575433  0  2.274583  0
O  O143  1  0.98108099  0.65033252  0.99817372  1  0  -0.685188  0  2.009941  0  0  -0.598661  0  2.265696  0  0  -0.631379  0  2.252017  0  0  -0.341879  -0.575417  0  2.274597  0
