# generated using pymatgen
data_ZnH15C21SN3O4
_symmetry_space_group_name_H-M   'P 1'
_cell_length_a   5.11275911
_cell_length_b   12.27787629
_cell_length_c   15.26081647
_cell_angle_alpha   90.00009292
_cell_angle_beta   89.99989264
_cell_angle_gamma   95.16551531
_symmetry_Int_Tables_number   1
_chemical_formula_structural   ZnH15C21SN3O4
_chemical_formula_sum   'Zn2 H30 C42 S2 N6 O8'
_cell_volume   954.08922647
_cell_formula_units_Z   2
loop_
 _symmetry_equiv_pos_site_id
 _symmetry_equiv_pos_as_xyz
  1  'x, y, z'
loop_
 _atom_site_type_symbol
 _atom_site_label
 _atom_site_symmetry_multiplicity
 _atom_site_fract_x
 _atom_site_fract_y
 _atom_site_fract_z
 _atom_site_occupancy
 _atom_site_hle17_bader_spin_density
 _atom_site_hle17_ddec_charge
 _atom_site_hle17_ddec_spin_density
 _atom_site_hle17_ddec_sum_bond_order
 _atom_site_hle17_magmom
 _atom_site_hse06_10hf_bader_spin_density
 _atom_site_hse06_10hf_ddec_charge
 _atom_site_hse06_10hf_ddec_spin_density
 _atom_site_hse06_10hf_ddec_sum_bond_order
 _atom_site_hse06_10hf_magmom
 _atom_site_hse06_bader_spin_density
 _atom_site_hse06_ddec_charge
 _atom_site_hse06_ddec_spin_density
 _atom_site_hse06_ddec_sum_bond_order
 _atom_site_hse06_magmom
 _atom_site_pbe_bader_spin_density
 _atom_site_pbe_cm5_charge
 _atom_site_pbe_ddec_charge
 _atom_site_pbe_ddec_spin_density
 _atom_site_pbe_ddec_sum_bond_order
 _atom_site_pbe_magmom
Zn  Zn0  1  0.76470739  0.74445155  0.05094989  1  0  1.038825  0  1.872576  0  0  0.846788  0  2.351161  0  0  0.892537  0  2.29549  0  0  0.703597  0.815021  0  2.389483  0
Zn  Zn1  1  0.23529988  0.25554479  0.55094447  1  0  1.038723  0  1.872565  0  0  0.846628  0  2.35114  0  0  0.892389  0  2.295462  0  0  0.70358  0.814862  0  2.389467  0
H  H2  1  0.05859144  0.53104453  0.02203330  1  0  0.092885  0  0.980693  0  0  0.097698  0  1.049174  0  0  0.100808  0  1.046372  0  0  0.117303  0.095325  0  1.05128  0
H  H3  1  0.94140432  0.46896000  0.52203389  1  0  0.092732  0  0.980867  0  0  0.09769  0  1.049198  0  0  0.1008  0  1.046397  0  0  0.117283  0.095289  0  1.051337  0
H  H4  1  0.14771672  0.36559329  0.11274324  1  0  0.09737  0  0.96336  0  0  0.108104  0  1.022405  0  0  0.110583  0  1.023295  0  0  0.103229  0.10631  0  1.021963  0
H  H5  1  0.85227323  0.63440647  0.61275067  1  0  0.097286  0  0.963336  0  0  0.108011  0  1.022423  0  0  0.110493  0  1.023307  0  0  0.103178  0.10622  0  1.021977  0
H  H6  1  0.88390767  0.32868407  0.25259342  1  0  0.121124  0  0.947176  0  0  0.129871  0  1.004336  0  0  0.133262  0  1.001173  0  0  0.116909  0.127241  0  1.006836  0
H  H7  1  0.11610360  0.67131170  0.75259653  1  0  0.121139  0  0.947206  0  0  0.129896  0  1.004346  0  0  0.133288  0  1.001185  0  0  0.116917  0.127265  0  1.006845  0
H  H8  1  0.54119545  0.44865790  0.29020689  1  0  0.12961  0  0.929621  0  0  0.141174  0  0.983531  0  0  0.144676  0  0.982132  0  0  0.119617  0.138601  0  0.984706  0
H  H9  1  0.45882664  0.55134362  0.79020120  1  0  0.129715  0  0.929499  0  0  0.141265  0  0.98342  0  0  0.144763  0  0.982031  0  0  0.11965  0.138695  0  0.984581  0
H  H10  1  0.21034391  0.55805923  0.29661231  1  0  0.119302  0  0.955094  0  0  0.131783  0  1.011576  0  0  0.134755  0  1.010761  0  0  0.115118  0.129612  0  1.012341  0
H  H11  1  0.78963710  0.44193425  0.79661225  1  0  0.119325  0  0.955028  0  0  0.131784  0  1.011566  0  0  0.134755  0  1.010747  0  0  0.115094  0.129616  0  1.012327  0
H  H12  1  0.14548523  0.90516126  0.26603231  1  0  0.112269  0  0.953753  0  0  0.124418  0  1.010151  0  0  0.127737  0  1.008845  0  0  0.113339  0.122012  0  1.011287  0
H  H13  1  0.85450366  0.09483134  0.76603367  1  0  0.112312  0  0.953617  0  0  0.124433  0  1.010041  0  0  0.127753  0  1.008734  0  0  0.113337  0.12203  0  1.011182  0
H  H14  1  0.41858464  0.05071141  0.24149164  1  0  0.12499  0  0.925702  0  0  0.13782  0  0.976129  0  0  0.141382  0  0.974683  0  0  0.119068  0.135229  0  0.977362  0
H  H15  1  0.58140385  0.94928688  0.74149505  1  0  0.125005  0  0.925677  0  0  0.137853  0  0.976093  0  0  0.141416  0  0.974646  0  0  0.119068  0.135258  0  0.977335  0
H  H16  1  0.68753384  0.20708988  0.17764390  1  0  0.09185  0  0.971466  0  0  0.104992  0  1.027673  0  0  0.10704  0  1.026487  0  0  0.108524  0.103401  0  1.028705  0
H  H17  1  0.31245323  0.79290833  0.67764583  1  0  0.091847  0  0.971543  0  0  0.104976  0  1.027759  0  0  0.107025  0  1.026572  0  0  0.10851  0.103379  0  1.028793  0
H  H18  1  0.00225598  0.17490096  0.05434388  1  0  0.095742  0  0.982273  0  0  0.104103  0  1.046852  0  0  0.106414  0  1.04804  0  0  0.102028  0.102455  0  1.046182  0
H  H19  1  0.99774931  0.82509539  0.55434239  1  0  0.095699  0  0.982339  0  0  0.104065  0  1.046905  0  0  0.106374  0  1.048095  0  0  0.102034  0.102416  0  1.046231  0
H  H20  1  0.01877594  0.98189695  0.99898727  1  0  0.094708  0  0.926359  0  0  0.101741  0  0.989526  0  0  0.10472  0  0.986768  0  0  0.122249  0.099436  0  0.991711  0
H  H21  1  0.98125579  0.01809498  0.49897448  1  0  0.094775  0  0.926339  0  0  0.10179  0  0.98952  0  0  0.104771  0  0.986762  0  0  0.122299  0.099484  0  0.991705  0
H  H22  1  0.87039558  0.89834454  0.35329031  1  0  0.094012  0  0.953355  0  0  0.108823  0  1.007559  0  0  0.111491  0  1.006208  0  0  0.105337  0.106804  0  1.00872  0
H  H23  1  0.12958982  0.10166128  0.85328665  1  0  0.093987  0  0.953459  0  0  0.108798  0  1.007677  0  0  0.111458  0  1.006326  0  0  0.105376  0.106807  0  1.008809  0
H  H24  1  0.51028815  0.88554527  0.45840858  1  0  0.089966  0  0.95623  0  0  0.102719  0  1.011433  0  0  0.104828  0  1.011878  0  0  0.1005  0.101145  0  1.011297  0
H  H25  1  0.48971768  0.11445980  0.95839500  1  0  0.089908  0  0.956288  0  0  0.102716  0  1.011442  0  0  0.104826  0  1.011886  0  0  0.100573  0.101148  0  1.011308  0
H  H26  1  0.34020685  0.70433596  0.52058600  1  0  0.076169  0  0.991376  0  0  0.084321  0  1.06177  0  0  0.085918  0  1.062883  0  0  0.092844  0.083192  0  1.060938  0
H  H27  1  0.65980104  0.29567015  0.02056980  1  0  0.07623  0  0.991559  0  0  0.084384  0  1.06191  0  0  0.085968  0  1.063047  0  0  0.09289  0.08328  0  1.061036  0
H  H28  1  0.54883258  0.53634221  0.47629398  1  0  0.104308  0  0.942658  0  0  0.114959  0  0.999751  0  0  0.11737  0  0.999438  0  0  0.107137  0.113165  0  1.000112  0
H  H29  1  0.45116586  0.46366536  0.97629012  1  0  0.104232  0  0.942636  0  0  0.11488  0  0.999749  0  0  0.117304  0  0.999406  0  0  0.107065  0.113081  0  1.000128  0
H  H30  1  0.91799229  0.54800620  0.37688641  1  0  0.108799  0  0.985635  0  0  0.119187  0  1.04753  0  0  0.122105  0  1.045657  0  0  0.105325  0.116981  0  1.049043  0
H  H31  1  0.08198960  0.45199393  0.87688789  1  0  0.108899  0  0.985644  0  0  0.119259  0  1.047572  0  0  0.122177  0  1.045693  0  0  0.105351  0.117051  0  1.04908  0
C  C32  1  0.95137862  0.50880177  0.08229205  1  0  0.134189  0  3.685417  0  0  0.102251  0  3.939472  0  0  0.108975  0  3.956643  0  0  0.049899  0.09792  0  3.927925  0
C  C33  1  0.04861979  0.49119956  0.58229163  1  0  0.134237  0  3.685554  0  0  0.102182  0  3.939589  0  0  0.108907  0  3.956764  0  0  0.049919  0.097873  0  3.928051  0
C  C34  1  0.99546710  0.41713519  0.13249177  1  0  -0.131577  0  3.734999  0  0  -0.142926  0  3.988273  0  0  -0.149994  0  4.009909  0  0  -0.087096  -0.138383  0  3.973668  0
C  C35  1  0.00453207  0.58286292  0.63249478  1  0  -0.131311  0  3.73504  0  0  -0.142653  0  3.9883  0  0  -0.149721  0  4.009939  0  0  -0.087012  -0.138111  0  3.973682  0
C  C36  1  0.84749050  0.39535385  0.20826689  1  0  -0.004499  0  3.697272  0  0  -0.022385  0  3.946398  0  0  -0.018499  0  3.962452  0  0  -0.063152  -0.02472  0  3.93561  0
C  C37  1  0.15251644  0.60464679  0.70826726  1  0  -0.004578  0  3.697416  0  0  -0.022465  0  3.946517  0  0  -0.018582  0  3.962575  0  0  -0.063192  -0.024794  0  3.93572  0
C  C38  1  0.65548710  0.46443926  0.23057115  1  0  -0.130286  0  3.674326  0  0  -0.149198  0  3.922508  0  0  -0.155614  0  3.942433  0  0  -0.071164  -0.145099  0  3.909188  0
C  C39  1  0.34452551  0.53556139  0.73056612  1  0  -0.130442  0  3.674228  0  0  -0.149397  0  3.922414  0  0  -0.155816  0  3.942338  0  0  -0.071232  -0.145296  0  3.909091  0
C  C40  1  0.63033431  0.55711760  0.17916768  1  0  0.164391  0  3.764588  0  0  0.160324  0  4.007538  0  0  0.166013  0  4.0287  0  0  0.11974  0.156649  0  3.993004  0
C  C41  1  0.36967424  0.44288054  0.67916251  1  0  0.164321  0  3.764473  0  0  0.160407  0  4.007246  0  0  0.1661  0  4.028409  0  0  0.11975  0.156724  0  3.992719  0
C  C42  1  0.46902354  0.64612503  0.20524043  1  0  0.203845  0  3.776243  0  0  0.197003  0  4.022081  0  0  0.204854  0  4.041073  0  0  0.12861  0.191695  0  4.00921  0
C  C43  1  0.53097954  0.35386744  0.70523572  1  0  0.203787  0  3.776535  0  0  0.196874  0  4.02242  0  0  0.204723  0  4.041415  0  0  0.128594  0.191579  0  4.009545  0
C  C44  1  0.26730173  0.63712221  0.26693047  1  0  -0.169262  0  3.634639  0  0  -0.196946  0  3.884369  0  0  -0.204498  0  3.905214  0  0  -0.071123  -0.192119  0  3.870488  0
C  C45  1  0.73267874  0.36287615  0.76692572  1  0  -0.169317  0  3.634646  0  0  -0.197033  0  3.884454  0  0  -0.204582  0  3.905296  0  0  -0.071144  -0.192203  0  3.870565  0
C  C46  1  0.14111436  0.73030939  0.29003548  1  0  0.12597  0  3.727855  0  0  0.134449  0  3.966806  0  0  0.141075  0  3.98696  0  0  0.018883  0.13003  0  3.953203  0
C  C47  1  0.85887783  0.26968978  0.79003514  1  0  0.125918  0  3.727633  0  0  0.134434  0  3.9666  0  0  0.141057  0  3.986757  0  0  0.018834  0.130014  0  3.952998  0
C  C48  1  0.23174230  0.82986846  0.25015629  1  0  -0.170213  0  3.633779  0  0  -0.199362  0  3.887035  0  0  -0.206873  0  3.905117  0  0  -0.072363  -0.194488  0  3.875074  0
C  C49  1  0.76824259  0.17013149  0.75015320  1  0  -0.170311  0  3.633388  0  0  -0.199421  0  3.886577  0  0  -0.206934  0  3.904662  0  0  -0.072345  -0.194552  0  3.874626  0
C  C50  1  0.43769781  0.83301390  0.19032067  1  0  0.215908  0  3.782514  0  0  0.209097  0  4.028445  0  0  0.217967  0  4.045837  0  0  0.130709  0.20304  0  4.016724  0
C  C51  1  0.56229168  0.16698677  0.69031370  1  0  0.215812  0  3.782731  0  0  0.209052  0  4.028583  0  0  0.217924  0  4.045976  0  0  0.130756  0.203005  0  4.016868  0
C  C52  1  0.56982318  0.93378276  0.15165503  1  0  0.174193  0  3.757516  0  0  0.168622  0  3.999076  0  0  0.174134  0  4.019951  0  0  0.12386  0.165004  0  3.984967  0
C  C53  1  0.43017211  0.06621620  0.65165123  1  0  0.174187  0  3.757649  0  0  0.168549  0  3.999238  0  0  0.17406  0  4.020116  0  0  0.123849  0.16493  0  3.985132  0
C  C54  1  0.54560935  0.03787169  0.18586812  1  0  -0.127632  0  3.680012  0  0  -0.145765  0  3.923695  0  0  -0.152443  0  3.944362  0  0  -0.070091  -0.141478  0  3.909845  0
C  C55  1  0.45437941  0.96212571  0.68586895  1  0  -0.127609  0  3.679772  0  0  -0.145768  0  3.923475  0  0  -0.152448  0  3.944145  0  0  -0.070088  -0.141479  0  3.909624  0
C  C56  1  0.70115025  0.12593386  0.15056075  1  0  0.012455  0  3.713086  0  0  -0.006131  0  3.958154  0  0  -0.002454  0  3.976321  0  0  -0.060778  -0.008295  0  3.945792  0
C  C57  1  0.29883861  0.87406267  0.65056149  1  0  0.012372  0  3.713061  0  0  -0.006197  0  3.958118  0  0  -0.002521  0  3.976285  0  0  -0.060833  -0.00835  0  3.945746  0
C  C58  1  0.87547679  0.10821441  0.08288608  1  0  -0.131877  0  3.743271  0  0  -0.143547  0  3.994948  0  0  -0.150453  0  4.016791  0  0  -0.084056  -0.139104  0  3.980186  0
C  C59  1  0.12452164  0.89177873  0.58288429  1  0  -0.131712  0  3.743455  0  0  -0.143387  0  3.995102  0  0  -0.150292  0  4.016948  0  0  -0.083961  -0.138942  0  3.980323  0
C  C60  1  0.88655869  0.00188889  0.05161703  1  0  0.139335  0  3.694012  0  0  0.107779  0  3.946754  0  0  0.114448  0  3.963799  0  0  0.057076  0.103504  0  3.935253  0
C  C61  1  0.11345953  0.99810414  0.55161213  1  0  0.13915  0  3.694303  0  0  0.107594  0  3.947  0  0  0.11426  0  3.964051  0  0  0.05691  0.103326  0  3.935492  0
C  C62  1  0.92578640  0.72425234  0.35504957  1  0  0.027429  0  3.769762  0  0  0.045522  0  4.001176  0  0  0.043239  0  4.025388  0  0  -0.012132  0.046913  0  3.98459  0
C  C63  1  0.07419997  0.27574939  0.85504751  1  0  0.027723  0  3.769611  0  0  0.045751  0  4.001077  0  0  0.04347  0  4.025286  0  0  -0.012017  0.047143  0  3.984498  0
C  C64  1  0.80541422  0.81819452  0.38012434  1  0  -0.101341  0  3.723064  0  0  -0.123608  0  3.970757  0  0  -0.125353  0  3.992006  0  0  -0.085585  -0.122161  0  3.95614  0
C  C65  1  0.19456980  0.18180643  0.88011881  1  0  -0.101513  0  3.723104  0  0  -0.123759  0  3.970864  0  0  -0.125494  0  3.992102  0  0  -0.085678  -0.122335  0  3.956253  0
C  C66  1  0.59925580  0.81143640  0.44002221  1  0  -0.079386  0  3.795101  0  0  -0.089855  0  4.043626  0  0  -0.092783  0  4.06608  0  0  -0.094207  -0.087844  0  4.02818  0
C  C67  1  0.40074451  0.18856948  0.94001532  1  0  -0.079243  0  3.795054  0  0  -0.089793  0  4.043657  0  0  -0.092717  0  4.066105  0  0  -0.094311  -0.087792  0  4.028232  0
C  C68  1  0.50535729  0.71040887  0.47532694  1  0  -0.072187  0  3.776531  0  0  -0.088897  0  4.027505  0  0  -0.090047  0  4.049261  0  0  -0.092433  -0.087756  0  4.012354  0
C  C69  1  0.49465721  0.28959209  0.97531953  1  0  -0.072215  0  3.776484  0  0  -0.088898  0  4.027482  0  0  -0.090055  0  4.049243  0  0  -0.092376  -0.087763  0  4.012327  0
C  C70  1  0.62201714  0.61648358  0.45102540  1  0  -0.07068  0  3.75636  0  0  -0.079782  0  4.004612  0  0  -0.082566  0  4.026077  0  0  -0.089897  -0.077905  0  3.989994  0
C  C71  1  0.37797782  0.38351660  0.95101816  1  0  -0.070574  0  3.756268  0  0  -0.079679  0  4.004497  0  0  -0.08246  0  4.025972  0  0  -0.089814  -0.077812  0  3.989879  0
C  C72  1  0.83268905  0.62364436  0.39285286  1  0  -0.106185  0  3.713651  0  0  -0.130359  0  3.962762  0  0  -0.132474  0  3.984516  0  0  -0.084866  -0.128669  0  3.947843  0
C  C73  1  0.16729035  0.37636235  0.89284764  1  0  -0.106443  0  3.713677  0  0  -0.130583  0  3.962801  0  0  -0.132699  0  3.984558  0  0  -0.084984  -0.128881  0  3.947874  0
S  S74  1  0.25123634  0.73848599  0.93205813  1  0  1.567411  0  5.837277  0  0  1.457123  0  6.368028  0  0  1.513177  0  6.332604  0  0  0.539562  1.417923  0  6.391268  0
S  S75  1  0.74877186  0.26151986  0.43205364  1  0  1.566959  0  5.838327  0  0  1.456706  0  6.369071  0  0  1.512762  0  6.333652  0  0  0.539346  1.417493  0  6.392323  0
N  N76  1  0.77688667  0.57816808  0.10624432  1  0  -0.346694  0  3.226416  0  0  -0.277292  0  3.491801  0  0  -0.294398  0  3.50667  0  0  -0.311552  -0.265882  0  3.481831  0
N  N77  1  0.22311173  0.42183409  0.60624112  1  0  -0.3467  0  3.226508  0  0  -0.277323  0  3.491871  0  0  -0.294441  0  3.506755  0  0  -0.311568  -0.265912  0  3.481893  0
N  N78  1  0.54693624  0.74213749  0.16767238  1  0  -0.392454  0  3.319423  0  0  -0.327687  0  3.588934  0  0  -0.346163  0  3.602494  0  0  -0.325575  -0.315235  0  3.579892  0
N  N79  1  0.45307593  0.25785898  0.66766886  1  0  -0.392057  0  3.31983  0  0  -0.327278  0  3.589307  0  0  -0.345756  0  3.602873  0  0  -0.325483  -0.314851  0  3.580289  0
N  N80  1  0.73722764  0.91719942  0.08543508  1  0  -0.334433  0  3.231387  0  0  -0.264726  0  3.493044  0  0  -0.281616  0  3.508256  0  0  -0.307617  -0.25345  0  3.482852  0
N  N81  1  0.26278697  0.08279612  0.58543135  1  0  -0.334392  0  3.231609  0  0  -0.264595  0  3.493163  0  0  -0.281486  0  3.508381  0  0  -0.307513  -0.253323  0  3.482974  0
O  O82  1  0.53904578  0.72420964  0.94763064  1  0  -0.756173  0  2.03466  0  0  -0.684006  0  2.330783  0  0  -0.70821  0  2.304307  0  0  -0.386391  -0.66652  0  2.348252  0
O  O83  1  0.46097578  0.27579536  0.44762560  1  0  -0.756041  0  2.034874  0  0  -0.683882  0  2.330992  0  0  -0.708085  0  2.304516  0  0  -0.386322  -0.666385  0  2.348452  0
O  O84  1  0.22657050  0.82490409  0.86711541  1  0  -0.72481  0  1.824797  0  0  -0.685484  0  2.050142  0  0  -0.70575  0  2.033268  0  0  -0.393217  -0.670763  0  2.061185  0
O  O85  1  0.77344250  0.17511147  0.36710423  1  0  -0.724813  0  1.825078  0  0  -0.685464  0  2.050394  0  0  -0.705733  0  2.033519  0  0  -0.393236  -0.670739  0  2.061447  0
O  O86  1  0.14148003  0.77185809  0.02086643  1  0  -0.776132  0  2.011841  0  0  -0.702858  0  2.309864  0  0  -0.727902  0  2.288112  0  0  -0.385805  -0.684669  0  2.324058  0
O  O87  1  0.85852477  0.22813494  0.52085881  1  0  -0.776014  0  2.012059  0  0  -0.702658  0  2.310005  0  0  -0.727698  0  2.288234  0  0  -0.385744  -0.684465  0  2.324198  0
O  O88  1  0.11772987  0.63193635  0.90585043  1  0  -0.731269  0  1.908704  0  0  -0.679864  0  2.150285  0  0  -0.701419  0  2.133812  0  0  -0.371381  -0.664092  0  2.160995  0
O  O89  1  0.88228518  0.36807271  0.40585786  1  0  -0.730957  0  1.908896  0  0  -0.679741  0  2.15059  0  0  -0.701297  0  2.134119  0  0  -0.371295  -0.663957  0  2.161297  0
