# generated using pymatgen
data_CoH12C16(N5O)2
_symmetry_space_group_name_H-M   'P 1'
_cell_length_a   6.11230289
_cell_length_b   7.31296251
_cell_length_c   11.77281113
_cell_angle_alpha   108.21785896
_cell_angle_beta   87.84994499
_cell_angle_gamma   94.05247051
_symmetry_Int_Tables_number   1
_chemical_formula_structural   CoH12C16(N5O)2
_chemical_formula_sum   'Co1 H12 C16 N10 O2'
_cell_volume   498.53992159
_cell_formula_units_Z   1
loop_
 _symmetry_equiv_pos_site_id
 _symmetry_equiv_pos_as_xyz
  1  'x, y, z'
loop_
 _atom_site_type_symbol
 _atom_site_label
 _atom_site_symmetry_multiplicity
 _atom_site_fract_x
 _atom_site_fract_y
 _atom_site_fract_z
 _atom_site_occupancy
 _atom_site_hle17_ddec_charge
 _atom_site_hle17_ddec_spin_density
 _atom_site_hle17_ddec_sum_bond_order
 _atom_site_hle17_magmom
 _atom_site_hse06_10hf_ddec_charge
 _atom_site_hse06_10hf_ddec_spin_density
 _atom_site_hse06_10hf_ddec_sum_bond_order
 _atom_site_hse06_10hf_magmom
 _atom_site_hse06_ddec_charge
 _atom_site_hse06_ddec_spin_density
 _atom_site_hse06_ddec_sum_bond_order
 _atom_site_hse06_magmom
 _atom_site_pbe_cm5_charge
 _atom_site_pbe_ddec_charge
 _atom_site_pbe_ddec_spin_density
 _atom_site_pbe_ddec_sum_bond_order
 _atom_site_pbe_magmom
Co  Co0  1  0.00001228  0.99999759  0.00000271  1  0.766275  -1.102894  2.717263  -0.999  0.761791  -1.016447  3.154289  -0.941  0.812075  -1.018014  3.089272  -0.952  0.758106  0.734434  -1.005556  3.193062  -0.921
H  H1  1  0.11851717  0.72885526  0.39983606  1  0.335893  -1e-06  0.877558  0.0  0.326018  3e-06  0.927313  0.0  0.332815  -1e-06  0.922412  0.0  0.317287  0.321181  3e-06  0.930865  0.0
H  H2  1  0.88147222  0.27115902  0.60016932  1  0.335962  -1e-06  0.877499  0.0  0.326075  3e-06  0.92726  0.0  0.332871  -1e-06  0.922358  0.0  0.317311  0.321236  3e-06  0.930819  0.0
H  H3  1  0.34543629  0.67581043  0.30428425  1  0.33446  0.000137  0.921015  0.0  0.312279  0.000117  0.991586  0.0  0.320152  8.4e-05  0.985251  0.0  0.300694  0.306741  0.000119  0.995955  0.0
H  H4  1  0.65454882  0.32418633  0.69570944  1  0.334471  0.000136  0.921015  0.0  0.3123  0.000117  0.991573  0.0  0.320171  8.5e-05  0.985241  0.0  0.300695  0.306762  0.000119  0.995937  0.0
H  H5  1  0.82802102  0.80647918  0.76247129  1  0.084616  0.000171  0.981789  0.0  0.090935  0.000118  1.047686  0.0  0.092216  8.7e-05  1.046479  0.0  0.119986  0.089992  0.000134  1.048714  0.0
H  H6  1  0.17198828  0.19353775  0.23753365  1  0.084539  0.000174  0.981803  0.0  0.09084  0.000118  1.047737  0.0  0.092121  8.7e-05  1.046529  0.0  0.119962  0.089898  0.000134  1.048767  0.0
H  H7  1  0.96477733  0.71499596  0.55474809  1  0.116547  0.000283  0.965668  0.0  0.124093  1.7e-05  1.02999  0.0  0.127497  2.5e-05  1.028303  0.0  0.110703  0.12178  1.1e-05  1.031159  0.0
H  H8  1  0.03520812  0.28502690  0.44525463  1  0.116554  0.000283  0.965729  0.0  0.124058  1.7e-05  1.030086  0.0  0.127461  2.5e-05  1.028402  0.0  0.110732  0.121749  1.1e-05  1.031249  0.0
H  H9  1  0.60959417  0.93347444  0.69297790  1  0.106644  0.000347  0.973089  0.0  0.111579  7.9e-05  1.041962  0.0  0.114353  6.2e-05  1.041286  0.0  0.108724  0.109706  7.7e-05  1.042479  0.0
H  H10  1  0.39040716  0.06652221  0.30701826  1  0.106634  0.000352  0.973071  0.0  0.11154  7.9e-05  1.041979  0.0  0.114312  6.2e-05  1.041304  0.0  0.108702  0.109671  7.7e-05  1.042502  0.0
H  H11  1  0.44062856  0.01609845  0.89942571  1  0.100583  0.000185  0.968861  0.0  0.101944  6e-05  1.040965  0.0  0.103321  6.6e-05  1.039466  0.0  0.122392  0.100784  3.3e-05  1.042454  0.0
H  H12  1  0.55939282  0.98388505  0.10056966  1  0.100643  0.000184  0.968773  0.0  0.101986  6e-05  1.040898  0.0  0.103365  6.6e-05  1.039398  0.0  0.122397  0.100826  3.3e-05  1.042388  0.0
C  C13  1  0.23403479  0.70691991  0.07694548  1  0.497663  0.02323  3.94044  0.016  0.468714  0.008442  4.22097  0.005  0.496243  0.007577  4.22947  0.005  0.316299  0.449969  0.008242  4.214958  0.005
C  C14  1  0.76596868  0.29306977  0.92305875  1  0.497612  0.023228  3.940177  0.016  0.468689  0.008434  4.220708  0.005  0.496214  0.00758  4.229202  0.005  0.316228  0.449945  0.008235  4.214697  0.005
C  C15  1  0.29021818  0.40381032  0.08170389  1  0.479917  -0.007639  3.954808  -0.014  0.447385  -0.00983  4.245338  -0.016  0.471176  -0.008479  4.256139  -0.014  0.299988  0.431357  -0.011364  4.237434  -0.018
C  C16  1  0.70977915  0.59618073  0.91829551  1  0.480447  -0.007633  3.954323  -0.014  0.447951  -0.009833  4.244836  -0.016  0.471739  -0.008468  4.255627  -0.014  0.300278  0.431921  -0.011362  4.236936  -0.018
C  C17  1  0.99995777  0.83341480  0.74283038  1  0.116297  0.011659  3.672497  0.008  0.085771  0.005051  3.927435  0.003  0.094683  0.00415  3.944639  0.003  0.045827  0.078914  0.005707  3.917285  0.003
C  C18  1  0.00005231  0.16659201  0.25717270  1  0.116431  0.011652  3.672543  0.008  0.085917  0.005048  3.927534  0.003  0.094833  0.004155  3.944739  0.003  0.045865  0.079066  0.005706  3.917373  0.003
C  C19  1  0.08149328  0.78079921  0.62608830  1  -0.134144  -0.002361  3.705189  -0.004  -0.156693  -0.000316  3.952539  -0.001  -0.16271  -0.000588  3.97141  -0.001  -0.079859  -0.152483  -0.000147  3.939843  -0.001
C  C20  1  0.91850300  0.21921631  0.37391303  1  -0.134147  -0.002362  3.705156  -0.004  -0.156638  -0.000314  3.952518  -0.001  -0.162664  -0.000589  3.97141  -0.001  -0.079862  -0.152435  -0.000147  3.939834  -0.001
C  C21  1  0.30568206  0.81481733  0.60592962  1  0.000139  0.011148  3.724784  0.007  0.018347  0.00496  3.952095  0.003  0.018945  0.003613  3.971493  0.002  0.007463  0.017625  0.006272  3.939299  0.004
C  C22  1  0.69431265  0.18519666  0.39406804  1  0.000153  0.011145  3.724713  0.007  0.018335  0.004955  3.952  0.003  0.018931  0.003616  3.971397  0.002  0.00744  0.017616  0.006271  3.939204  0.004
C  C23  1  0.43574151  0.90183029  0.70578113  1  -0.114986  -0.002097  3.700113  -0.003  -0.137783  -0.000188  3.948472  -0.001  -0.143857  -0.000541  3.968208  -0.001  -0.075906  -0.134019  7.6e-05  3.935775  0.0
C  C24  1  0.56426129  0.09816492  0.29421561  1  -0.114967  -0.002103  3.699982  -0.003  -0.137739  -0.000186  3.948343  -0.001  -0.14381  -0.000545  3.968082  -0.001  -0.075867  -0.133981  7.6e-05  3.935649  0.0
C  C25  1  0.34362487  0.94931115  0.82003459  1  0.130702  0.011026  3.637817  0.007  0.098965  0.004703  3.896774  0.003  0.10794  0.003922  3.914043  0.002  0.053305  0.092571  0.005286  3.885907  0.003
C  C26  1  0.65638747  0.05068260  0.17996439  1  0.130573  0.011032  3.637591  0.007  0.098892  0.004701  3.896553  0.003  0.107861  0.003928  3.913821  0.002  0.053206  0.092499  0.005285  3.885693  0.003
C  C27  1  0.41601561  0.75896718  0.48437566  1  0.611078  0.000487  3.863598  0.0  0.569319  0.00037  4.147565  0.0  0.597932  0.000131  4.145475  0.0  0.238299  0.549932  0.00062  4.148604  0.0
C  C28  1  0.58398001  0.24103815  0.51562041  1  0.611191  0.00049  3.863462  0.0  0.569515  0.000371  4.147319  0.0  0.59813  0.000131  4.145222  0.0  0.238334  0.550124  0.00062  4.148361  0.0
N  N29  1  0.16303347  0.82744451  0.04505248  1  -0.534421  -0.000454  3.160374  -0.008  -0.517889  0.001054  3.472825  -0.002  -0.542334  0.001621  3.474491  -0.001  -0.391859  -0.502624  -0.000358  3.471073  -0.003
N  N30  1  0.83696890  0.17255094  0.95495195  1  -0.534483  -0.000451  3.16019  -0.008  -0.517963  0.001067  3.472631  -0.002  -0.542405  0.001622  3.474291  -0.001  -0.391884  -0.502698  -0.000357  3.470878  -0.003
N  N31  1  0.32583878  0.59036929  0.12152156  1  -0.471686  -0.000744  3.288011  -0.004  -0.41621  -0.001135  3.540277  -0.003  -0.438367  -0.000487  3.540501  -0.002  -0.311218  -0.40046  -0.001868  3.539446  -0.004
N  N32  1  0.67416157  0.40961884  0.87847730  1  -0.471776  -0.000758  3.287865  -0.004  -0.416359  -0.00115  3.540159  -0.003  -0.438513  -0.000496  3.54038  -0.002  -0.311185  -0.400604  -0.001868  3.539325  -0.004
N  N33  1  0.26687034  0.23420603  0.05440122  1  -0.558674  -0.015456  2.872197  -0.025  -0.542621  -0.016133  3.158761  -0.023  -0.561908  -0.011647  3.163573  -0.018  -0.356221  -0.529498  -0.020889  3.155025  -0.029
N  N34  1  0.73313465  0.76578068  0.94559991  1  -0.55911  -0.015452  2.8718  -0.025  -0.543077  -0.016122  3.158397  -0.023  -0.562363  -0.011653  3.1632  -0.018  -0.356462  -0.529953  -0.020889  3.154668  -0.029
N  N35  1  0.12731949  0.91675726  0.83866652  1  -0.221658  0.019284  3.346176  0.013  -0.17587  0.009556  3.62198  0.007  -0.202752  0.008596  3.642626  0.006  -0.317709  -0.158632  0.009027  3.607909  0.006
N  N36  1  0.87269596  0.08323805  0.16133783  1  -0.22162  0.019287  3.346085  0.013  -0.175913  0.009563  3.621957  0.007  -0.202793  0.008594  3.642604  0.006  -0.317602  -0.158677  0.009029  3.607892  0.006
N  N37  1  0.28209061  0.71273846  0.38950345  1  -0.684484  0.000758  3.105387  0.001  -0.647503  0.000441  3.329049  0.0  -0.670314  0.000249  3.324726  0.0  -0.564639  -0.631777  0.000792  3.331704  0.001
N  N38  1  0.71789841  0.28726697  0.61049352  1  -0.68458  0.00076  3.10539  0.001  -0.647621  0.000438  3.329044  0.0  -0.67043  0.000249  3.324719  0.0  -0.564688  -0.631897  0.000792  3.331702  0.001
O  O39  1  0.61912973  0.75508236  0.47456277  1  -0.577593  0.001486  1.846983  0.001  -0.54161  0.000855  2.050794  0.001  -0.561002  0.000564  2.043989  0.0  -0.322615  -0.528207  0.00101  2.055203  0.001
O  O40  1  0.38086586  0.24492148  0.52543133  1  -0.577695  0.001481  1.846859  0.001  -0.541747  0.000855  2.050646  0.001  -0.561134  0.000564  2.043823  0.0  -0.322648  -0.528352  0.00101  2.05507  0.001
