# generated using pymatgen
data_CuH16C16N2O5
_symmetry_space_group_name_H-M   'P 1'
_cell_length_a   7.22812974
_cell_length_b   10.61891377
_cell_length_c   10.85733293
_cell_angle_alpha   94.03925453
_cell_angle_beta   106.26265007
_cell_angle_gamma   102.55202849
_symmetry_Int_Tables_number   1
_chemical_formula_structural   CuH16C16N2O5
_chemical_formula_sum   'Cu2 H32 C32 N4 O10'
_cell_volume   773.18427336
_cell_formula_units_Z   2
loop_
 _symmetry_equiv_pos_site_id
 _symmetry_equiv_pos_as_xyz
  1  'x, y, z'
loop_
 _atom_site_type_symbol
 _atom_site_label
 _atom_site_symmetry_multiplicity
 _atom_site_fract_x
 _atom_site_fract_y
 _atom_site_fract_z
 _atom_site_occupancy
 _atom_site_hle17_ddec_charge
 _atom_site_hle17_ddec_spin_density
 _atom_site_hle17_ddec_sum_bond_order
 _atom_site_hle17_magmom
 _atom_site_hse06_10hf_ddec_charge
 _atom_site_hse06_10hf_ddec_spin_density
 _atom_site_hse06_10hf_ddec_sum_bond_order
 _atom_site_hse06_10hf_magmom
 _atom_site_hse06_ddec_charge
 _atom_site_hse06_ddec_spin_density
 _atom_site_hse06_ddec_sum_bond_order
 _atom_site_hse06_magmom
 _atom_site_pbe_cm5_charge
 _atom_site_pbe_ddec_charge
 _atom_site_pbe_ddec_spin_density
 _atom_site_pbe_ddec_sum_bond_order
 _atom_site_pbe_magmom
Cu  Cu0  1  0.12977763  0.26595672  0.69646950  1  0.859959  -0.740902  1.839376  -0.517  0.836142  -0.813382  2.233627  -0.627  0.92406  -0.888594  2.1636  -0.712  0.746767  0.783618  -0.756914  2.281134  -0.57
Cu  Cu1  1  0.87022409  0.73404514  0.30352882  1  0.860043  0.740917  1.839369  0.517  0.836217  0.81339  2.233644  0.627  0.924124  0.8886  2.163586  0.712  0.746798  0.78365  0.756919  2.281173  0.57
H  H2  1  0.88996532  0.10955869  0.99686540  1  0.122163  0.000167  0.931101  0.0  0.130662  -6.1e-05  0.989212  0.0  0.135183  -3.7e-05  0.985738  0.0  0.109893  0.127439  -2.9e-05  0.99175  0.0
H  H3  1  0.11003789  0.89044317  0.00313595  1  0.122159  -0.000169  0.931064  0.0  0.130651  6.1e-05  0.989197  0.0  0.135173  3.7e-05  0.98572  0.0  0.109886  0.127429  2.9e-05  0.991734  0.0
H  H4  1  0.63734478  0.90713823  0.50132229  1  0.114661  0.000333  0.96109  0.001  0.119905  -7e-05  1.027904  0.0  0.123799  -5.2e-05  1.025563  0.0  0.106882  0.117166  -7.7e-05  1.029601  0.0
H  H5  1  0.36267338  0.09285459  0.49867195  1  0.114676  -0.000332  0.960973  -0.001  0.119955  6.9e-05  1.0278  0.0  0.123848  5.2e-05  1.02546  0.0  0.106868  0.117219  7.7e-05  1.02949  0.0
H  H6  1  0.26513763  0.46433920  0.94022653  1  0.085834  -0.001168  0.954289  -0.002  0.095033  -0.000965  1.01865  -0.002  0.096782  -0.000697  1.017412  -0.001  0.122037  0.092879  -0.001228  1.020799  -0.002
H  H7  1  0.73487119  0.53565869  0.05977557  1  0.085805  0.001168  0.954319  0.002  0.095017  0.000965  1.018668  0.002  0.096769  0.000697  1.017426  0.001  0.122031  0.092865  0.001228  1.020827  0.002
H  H8  1  0.41352539  0.70562894  0.99281324  1  0.129788  -0.000348  0.949837  0.0  0.140084  -0.00035  1.007136  0.0  0.144117  -0.000259  1.005025  0.0  0.112253  0.137158  -0.000439  1.008743  -0.001
H  H9  1  0.58647979  0.29436704  0.00718901  1  0.129786  0.000347  0.949841  0.0  0.140082  0.00035  1.007141  0.0  0.144069  0.000259  1.005084  0.0  0.112242  0.137154  0.000439  1.008752  0.001
H  H10  1  0.37728233  0.70729790  0.58835693  1  0.122264  -0.00062  0.955053  -0.001  0.133447  -0.000535  1.01364  -0.001  0.136413  -0.00038  1.013438  0.0  0.110606  0.131323  -0.000678  1.013928  -0.001
H  H11  1  0.62271886  0.29270596  0.41164788  1  0.122269  0.000619  0.955036  0.001  0.133438  0.000535  1.013639  0.001  0.136398  0.00038  1.013455  0.0  0.110606  0.131311  0.000678  1.013933  0.001
H  H12  1  0.28892993  0.59077968  0.40712223  1  0.1362  -0.000667  0.977623  -0.001  0.144641  -0.0006  1.040448  -0.001  0.148218  -0.000423  1.038724  -0.001  0.112008  0.142087  -0.00073  1.041692  -0.001
H  H13  1  0.71106715  0.40922126  0.59287796  1  0.136247  0.000658  0.977551  0.001  0.144686  0.0006  1.040368  0.001  0.148267  0.000423  1.038646  0.001  0.112016  0.142131  0.00073  1.041615  0.001
H  H14  1  0.04627164  0.19600597  0.21101340  1  0.115545  -0.00046  0.958699  0.0  0.125814  -0.000477  1.019223  0.0  0.128589  -0.000348  1.019327  0.0  0.109777  0.123876  -0.000559  1.019172  -0.001
H  H15  1  0.95373052  0.80399688  0.78898783  1  0.115529  0.000462  0.958704  0.0  0.125829  0.000477  1.019194  0.0  0.128606  0.000348  1.019294  0.0  0.109805  0.123889  0.000559  1.019147  0.001
H  H16  1  0.02281012  0.12594387  0.42066766  1  0.103558  -0.001123  0.948381  -0.002  0.10908  -0.000927  1.0133  -0.002  0.112431  -0.000683  1.010011  -0.002  0.122214  0.106483  -0.001091  1.015808  -0.002
H  H17  1  0.97719592  0.87405795  0.57933236  1  0.103577  0.001126  0.948416  0.002  0.109068  0.000927  1.013364  0.002  0.11242  0.000683  1.010074  0.002  0.122204  0.106474  0.001091  1.015871  0.002
H  H18  1  0.54027858  0.91135650  0.91738275  1  0.1302  2.5e-05  0.955894  0.0  0.149774  6e-06  1.014886  0.0  0.152136  2e-06  1.013848  0.0  0.09631  0.147932  1.7e-05  1.015829  0.0
H  H19  1  0.45971469  0.08864550  0.08262235  1  0.130252  -2.1e-05  0.955944  0.0  0.149838  -6e-06  1.014924  0.0  0.152208  -2e-06  1.013867  0.0  0.096321  0.147992  -1.7e-05  1.015872  0.0
H  H20  1  0.37831505  0.91934192  0.76361717  1  0.13392  0.000247  0.950547  0.0  0.157349  9.8e-05  1.006597  0.0  0.158984  0.000101  1.006256  0.0  0.100087  0.155965  8.4e-05  1.007341  0.0
H  H21  1  0.62167846  0.08065714  0.23638687  1  0.13393  -0.000233  0.950554  0.0  0.157355  -9.8e-05  1.006605  0.0  0.15899  -0.000101  1.006265  0.0  0.100077  0.155972  -8.4e-05  1.007343  0.0
H  H22  1  0.61741252  0.89574118  0.77551014  1  0.110725  0.00018  0.952855  0.0  0.132561  9.9e-05  1.014826  0.0  0.132893  9.3e-05  1.016826  0.0  0.090404  0.132207  0.000104  1.013564  0.0
H  H23  1  0.38258257  0.10426178  0.22449536  1  0.1107  -0.000174  0.952896  0.0  0.132543  -9.9e-05  1.014862  0.0  0.132874  -9.3e-05  1.016862  0.0  0.090398  0.132193  -0.000104  1.013596  0.0
H  H24  1  0.24414603  0.55482390  0.18109288  1  0.139735  -2.3e-05  0.930549  0.0  0.162505  -3.2e-05  0.98286  0.0  0.164414  -1.9e-05  0.981939  0.0  0.101225  0.160884  -1.6e-05  0.983863  0.0
H  H25  1  0.75584281  0.44517810  0.81890498  1  0.139695  2.3e-05  0.930583  0.0  0.162484  3.2e-05  0.98289  0.0  0.164391  1.9e-05  0.98197  0.0  0.101198  0.160862  1.6e-05  0.983891  0.0
H  H26  1  0.05192814  0.41541582  0.09120982  1  0.117018  0.000159  0.946683  0.0  0.139256  1.2e-05  1.007206  0.0  0.140726  4.4e-05  1.006919  0.0  0.096458  0.138089  2.4e-05  1.007938  0.0
H  H27  1  0.94806383  0.58458321  0.90878841  1  0.117016  -0.000164  0.946684  0.0  0.139259  -1.2e-05  1.007201  0.0  0.14073  -4.4e-05  1.006914  0.0  0.09647  0.138094  -2.4e-05  1.007932  0.0
H  H28  1  0.30135974  0.40616521  0.13724657  1  0.111194  0.000224  0.973574  0.0  0.131315  3.9e-05  1.039264  0.0  0.132036  6e-05  1.040866  0.0  0.091792  0.130552  3.7e-05  1.038789  0.0
H  H29  1  0.69863385  0.59383774  0.86275497  1  0.111126  -0.000221  0.973576  0.0  0.131252  -3.9e-05  1.03927  0.0  0.131973  -6e-05  1.040872  0.0  0.091762  0.13049  -3.7e-05  1.038798  0.0
H  H30  1  0.53557366  0.21131945  0.71511993  1  0.414022  -5e-06  0.889962  0.0  0.390248  -9e-06  0.94361  0.0  0.40121  -5e-06  0.927713  0.0  0.277541  0.382889  -2e-05  0.954275  0.0
H  H31  1  0.46442158  0.78867364  0.28487205  1  0.414108  4e-06  0.889875  0.0  0.390339  9e-06  0.943509  0.0  0.401298  4e-06  0.927617  0.0  0.277582  0.382986  2e-05  0.954168  0.0
H  H32  1  0.39214566  0.14949048  0.79883020  1  0.399982  4e-06  0.915413  0.0  0.370703  -2.1e-05  0.979042  0.0  0.382471  1e-05  0.96179  0.0  0.275278  0.362178  -5.7e-05  0.991634  0.0
H  H33  1  0.60785756  0.85051138  0.20117207  1  0.399965  -4e-06  0.915442  0.0  0.370688  2.2e-05  0.979073  0.0  0.382455  -1e-05  0.961822  0.0  0.275255  0.362158  5.7e-05  0.99167  0.0
C  C34  1  0.11702275  0.11332195  0.89540244  1  0.665438  0.003352  3.90171  0.007  0.627752  -0.001571  4.196027  0.001  0.6651  -0.000821  4.189343  0.001  0.199616  0.602363  -0.002448  4.199628  0.0
C  C35  1  0.88298345  0.88668379  0.10459970  1  0.665392  -0.003356  3.901551  -0.007  0.627675  0.001575  4.195934  -0.001  0.665026  0.000821  4.189247  -0.001  0.199594  0.602287  0.002448  4.199536  0.0
C  C36  1  0.99446341  0.05660655  0.97714935  1  -0.164543  -0.008286  3.65281  -0.008  -0.183559  -0.00148  3.908378  -0.002  -0.18859  -0.000868  3.920558  -0.001  -0.081385  -0.180276  -0.002867  3.900083  -0.003
C  C37  1  0.00553914  0.94339727  0.02285201  1  -0.164545  0.008292  3.652829  0.008  -0.183542  0.001481  3.908409  0.002  -0.188576  0.000869  3.920589  0.001  -0.081368  -0.180256  0.002867  3.900113  0.003
C  C38  1  0.59514045  0.99709629  0.52162983  1  -0.164256  -0.017316  3.668895  -0.016  -0.180699  -0.005747  3.9175  -0.006  -0.186178  -0.004922  3.931916  -0.005  -0.08371  -0.177163  -0.006481  3.908013  -0.006
C  C39  1  0.40487086  0.00289370  0.47836576  1  -0.164184  0.017318  3.668745  0.016  -0.180788  0.005748  3.917414  0.006  -0.186263  0.004923  3.931826  0.005  -0.083792  -0.177254  0.006482  3.907932  0.006
C  C40  1  0.75601753  0.11253150  0.59414789  1  0.65875  0.005483  3.911817  0.009  0.619594  0.000735  4.207513  0.003  0.656055  0.00108  4.200783  0.003  0.198157  0.595037  0.000465  4.211377  0.003
C  C41  1  0.24398411  0.88745956  0.40584510  1  0.658768  -0.005495  3.911823  -0.009  0.619677  -0.000734  4.207484  -0.003  0.656138  -0.001081  4.200751  -0.003  0.198189  0.595122  -0.000465  4.211353  -0.003
C  C42  1  0.29273569  0.52328256  0.86610322  1  0.147249  0.006065  3.70086  0.007  0.118208  0.000754  3.960319  0.002  0.128807  0.00156  3.977899  0.003  0.056195  0.111749  0.000117  3.948998  0.001
C  C43  1  0.70726820  0.47671735  0.13389997  1  0.147313  -0.006052  3.700679  -0.007  0.118247  -0.000752  3.960173  -0.002  0.128847  -0.001562  3.97774  -0.003  0.056216  0.111783  -0.000117  3.948849  -0.001
C  C44  1  0.37422133  0.65742557  0.89346562  1  -0.179811  -0.007689  3.653918  -0.008  -0.196459  -0.003338  3.893749  -0.004  -0.205243  -0.002931  3.912051  -0.004  -0.07917  -0.190834  -0.003647  3.881257  -0.004
C  C45  1  0.62578321  0.34257237  0.10653663  1  -0.179761  0.007679  3.653824  0.008  -0.196414  0.003336  3.893664  0.004  -0.205163  0.002933  3.911993  0.004  -0.079123  -0.190787  0.003647  3.881171  0.004
C  C46  1  0.40651085  0.72715624  0.79317537  1  0.213823  0.00624  3.723678  0.006  0.236303  0.001995  3.959889  0.002  0.244083  0.002134  3.979309  0.002  0.020264  0.231017  0.001902  3.946536  0.002
C  C47  1  0.59348632  0.27284474  0.20682945  1  0.213701  -0.006211  3.723772  -0.006  0.236185  -0.001992  3.959996  -0.002  0.243971  -0.002136  3.979403  -0.002  0.020189  0.2309  -0.001902  3.946642  -0.002
C  C48  1  0.35480166  0.65681411  0.66902709  1  -0.194902  -0.004929  3.648733  -0.005  -0.218842  -0.00199  3.888293  -0.002  -0.227073  -0.001805  3.908478  -0.002  -0.078084  -0.213416  -0.002165  3.874721  -0.002
C  C49  1  0.64519651  0.34318587  0.33097600  1  -0.194914  0.00493  3.648576  0.005  -0.218845  0.001988  3.888131  0.002  -0.22708  0.001806  3.908315  0.002  -0.078117  -0.213419  0.002165  3.874556  0.002
C  C50  1  0.27403029  0.52280476  0.64854318  1  0.178253  0.002062  3.775506  0.002  0.175652  -0.000929  4.021871  -0.001  0.183903  -3.2e-05  4.042744  0.0  0.116762  0.170282  -0.001578  4.008034  -0.001
C  C51  1  0.72597289  0.47719709  0.35145725  1  0.17826  -0.00208  3.77545  -0.002  0.17568  0.00093  4.021774  0.001  0.183933  3e-05  4.042649  0.0  0.11682  0.170316  0.001578  4.007933  0.001
C  C52  1  0.21596390  0.44028839  0.52222429  1  0.181399  0.004445  3.773208  0.005  0.179173  -0.000234  4.019996  0.0  0.187847  0.000846  4.040692  0.002  0.116505  0.173508  -0.001056  4.006421  -0.001
C  C53  1  0.78403498  0.55971351  0.47777537  1  0.181505  -0.00442  3.773181  -0.005  0.179251  0.000235  4.019975  0.0  0.187927  -0.000845  4.040669  -0.002  0.116478  0.173579  0.001056  4.0064  0.001
C  C54  1  0.23384210  0.48692329  0.40807674  1  -0.198182  -0.007425  3.630887  -0.007  -0.226629  -0.002801  3.876567  -0.003  -0.235263  -0.002566  3.89618  -0.003  -0.080719  -0.220507  -0.002937  3.862972  -0.003
C  C55  1  0.76615432  0.51307962  0.59192347  1  -0.198425  0.007449  3.630914  0.007  -0.226868  0.002801  3.876599  0.003  -0.235497  0.002564  3.896213  0.003  -0.080764  -0.220746  0.002937  3.863004  0.003
C  C56  1  0.17435069  0.40070410  0.29256784  1  0.215251  0.008616  3.717558  0.008  0.236374  0.002694  3.956268  0.003  0.243435  0.002861  3.977275  0.003  0.017222  0.23183  0.002596  3.941525  0.003
C  C57  1  0.82564285  0.59929884  0.70743185  1  0.215388  -0.008618  3.717427  -0.008  0.236534  -0.002694  3.956078  -0.003  0.243571  -0.002859  3.977116  -0.003  0.017171  0.23199  -0.002596  3.941335  -0.003
C  C58  1  0.09739326  0.26854356  0.29728703  1  -0.171128  -0.010755  3.666853  -0.011  -0.18835  -0.004463  3.909139  -0.005  -0.197214  -0.003985  3.929734  -0.005  -0.080009  -0.182881  -0.004865  3.895501  -0.006
C  C59  1  0.90260604  0.73145932  0.70271461  1  -0.171102  0.010742  3.666859  0.011  -0.188338  0.004465  3.909092  0.005  -0.197197  0.003982  3.929699  0.005  -0.079993  -0.182867  0.004865  3.895454  0.006
C  C60  1  0.08229102  0.22798476  0.41382030  1  0.138018  0.007453  3.691041  0.008  0.11056  0.00064  3.949752  0.002  0.121061  0.001645  3.966023  0.003  0.048861  0.103695  -8e-05  3.939504  0.001
C  C61  1  0.91771075  0.77201711  0.58618079  1  0.138026  -0.007448  3.691091  -0.008  0.110579  -0.000641  3.949806  -0.002  0.121078  -0.001643  3.966082  -0.003  0.048903  0.103712  8e-05  3.939559  -0.001
C  C62  1  0.49141630  0.87110216  0.81463323  1  -0.358806  -0.000349  3.69582  -0.001  -0.439756  2.2e-05  3.924202  0.0  -0.443386  2.6e-05  3.932422  0.0  -0.243366  -0.436938  3e-06  3.918846  0.0
C  C63  1  0.50857837  0.12889982  0.18537028  1  -0.358818  0.000306  3.695961  0.001  -0.439784  -2.1e-05  3.924366  0.0  -0.443409  -2.5e-05  3.932583  0.0  -0.243346  -0.436973  -3e-06  3.919005  0.0
C  C64  1  0.19369548  0.44836421  0.16922032  1  -0.355097  -0.000558  3.684268  -0.001  -0.435612  -0.000141  3.915185  0.0  -0.438664  -8.4e-05  3.922878  0.0  -0.240541  -0.43336  -0.000161  3.910747  0.0
C  C65  1  0.80629626  0.55163778  0.83077990  1  -0.355002  0.000563  3.684146  0.001  -0.43557  0.000141  3.915065  0.0  -0.438611  8.4e-05  3.92277  0.0  -0.240488  -0.433317  0.000161  3.910627  0.0
N  N66  1  0.24345475  0.45775526  0.74710139  1  -0.33118  -0.068613  3.319356  -0.084  -0.291797  -0.049341  3.617341  -0.065  -0.321187  -0.041503  3.636342  -0.057  -0.347878  -0.274484  -0.053588  3.606599  -0.068
N  N67  1  0.75654992  0.54224659  0.25290207  1  -0.331182  0.068598  3.319371  0.084  -0.291777  0.049335  3.617337  0.065  -0.321161  0.041503  3.63633  0.057  -0.347865  -0.274455  0.053584  3.606592  0.068
N  N68  1  0.14073669  0.31207360  0.52377837  1  -0.339479  -0.084114  3.334102  -0.102  -0.300243  -0.059799  3.631186  -0.078  -0.331341  -0.050028  3.651243  -0.069  -0.349979  -0.282275  -0.065178  3.620287  -0.082
N  N69  1  0.85926363  0.68792828  0.47622155  1  -0.339585  0.084087  3.334123  0.102  -0.30034  0.059797  3.631199  0.078  -0.331436  0.050026  3.651246  0.069  -0.349992  -0.282359  0.065178  3.620294  0.082
O  O70  1  0.09621459  0.22650139  0.86502807  1  -0.59837  -0.092869  2.004432  -0.118  -0.576738  -0.054029  2.280656  -0.075  -0.620479  -0.040708  2.272997  -0.06  -0.337813  -0.546822  -0.063705  2.285483  -0.085
O  O71  1  0.90377633  0.77349864  0.13497003  1  -0.598331  0.092872  2.004358  0.118  -0.576685  0.054029  2.280604  0.075  -0.620427  0.040708  2.272946  0.06  -0.337764  -0.546763  0.063705  2.28544  0.085
O  O72  1  0.45380021  0.23088328  0.76991623  1  -0.861534  0.000358  1.844812  -0.001  -0.821473  0.000179  2.013599  -0.001  -0.843209  0.00064  1.978447  0.0  -0.609785  -0.805948  -0.000421  2.038187  -0.001
O  O73  1  0.54619950  0.76911368  0.23007865  1  -0.861622  -0.000356  1.844819  0.001  -0.821567  -0.000182  2.013607  0.001  -0.843304  -0.000639  1.97846  0.0  -0.609806  -0.806041  0.000422  2.038201  0.001
O  O74  1  0.22749397  0.05044078  0.86106649  1  -0.615392  -0.00393  1.966598  -0.006  -0.568521  -0.002543  2.188002  -0.004  -0.595353  -0.001381  2.179954  -0.002  -0.310248  -0.549877  -0.003729  2.193288  -0.005
O  O75  1  0.77250986  0.94956600  0.13894082  1  -0.615332  0.003936  1.966407  0.006  -0.568499  0.002541  2.187863  0.004  -0.595331  0.001382  2.179816  0.002  -0.310288  -0.549856  0.003731  2.19315  0.005
O  O76  1  0.93420613  0.09750042  0.61330452  1  -0.575981  -0.096418  2.024122  -0.125  -0.548297  -0.058475  2.296643  -0.084  -0.591086  -0.044846  2.290009  -0.068  -0.315712  -0.519581  -0.067256  2.300861  -0.092
O  O77  1  0.06580720  0.90249446  0.38669543  1  -0.575996  0.096402  2.024271  0.125  -0.548317  0.058469  2.296755  0.084  -0.591114  0.044841  2.290138  0.068  -0.315654  -0.519578  0.06725  2.300936  0.092
O  O78  1  0.71501291  0.21611299  0.62951955  1  -0.636319  0.000524  1.983183  -0.001  -0.595141  0.001003  2.216054  0.0  -0.620464  0.001458  2.203801  0.001  -0.316696  -0.577829  0.00047  2.224121  -0.001
O  O79  1  0.28497328  0.78387229  0.37046109  1  -0.636403  -0.000515  1.983196  0.001  -0.595215  -0.001003  2.216018  0.0  -0.620536  -0.001457  2.203765  -0.001  -0.316742  -0.577904  -0.00047  2.224089  0.001
