# generated using pymatgen
data_ZnH19C23N4O9
_symmetry_space_group_name_H-M   'P 1'
_cell_length_a   10.87936600
_cell_length_b   14.69054418
_cell_length_c   16.04189077
_cell_angle_alpha   90.56991015
_cell_angle_beta   90.94277901
_cell_angle_gamma   91.66383161
_symmetry_Int_Tables_number   1
_chemical_formula_structural   ZnH19C23N4O9
_chemical_formula_sum   'Zn2 H38 C46 N8 O18'
_cell_volume   2562.30876912
_cell_formula_units_Z   2
loop_
 _symmetry_equiv_pos_site_id
 _symmetry_equiv_pos_as_xyz
  1  'x, y, z'
loop_
 _atom_site_type_symbol
 _atom_site_label
 _atom_site_symmetry_multiplicity
 _atom_site_fract_x
 _atom_site_fract_y
 _atom_site_fract_z
 _atom_site_occupancy
 _atom_site_pbe_bader_charge
 _atom_site_pbe_bader_spin_density
 _atom_site_pbe_cm5_charge
 _atom_site_pbe_ddec_charge
 _atom_site_pbe_ddec_spin_density
 _atom_site_pbe_ddec_sum_bond_order
 _atom_site_pbe_magmom
Zn  Zn0  1  0.50128302  0.59595865  0.50777384  1  1.326527  0  0.695006  0.903385  0  2.424818  0
Zn  Zn1  1  0.49649472  0.40037347  0.49531535  1  1.321865  0  0.695237  0.899513  0  2.431529  0
H  H2  1  0.30285582  0.57948196  0.05250279  1  0.103453  0  0.113979  0.136826  0  0.978883  0
H  H3  1  0.68022654  0.43080316  0.95135735  1  0.05552  0  0.114312  0.137878  0  0.978022  0
H  H4  1  0.29967565  0.08123237  0.52303682  1  0.144861  0  0.11772  0.134815  0  1.011499  0
H  H5  1  0.68640417  0.91486725  0.47624423  1  0.141707  0  0.117388  0.134809  0  1.017515  0
H  H6  1  0.26894285  0.16714925  0.20497481  1  0.63053  0  0.328609  0.367498  0  0.891864  0
H  H7  1  0.67613648  0.79498388  0.78305758  1  0.614622  0  0.315017  0.3462  0  0.926296  0
H  H8  1  0.28284463  0.83046582  0.54580780  1  0.47072  0  0.319615  0.263752  0  0.944934  0
H  H9  1  0.08969089  0.88505546  0.56503064  1  0.093546  0  0.110331  0.128603  0  0.994858  0
H  H10  1  0.13146208  0.98916387  0.51657854  1  0.073725  0  0.10431  0.119058  0  1.009869  0
H  H11  1  0.16926726  0.97303517  0.62393677  1  0.043681  0  0.097389  0.099656  0  0.979499  0
H  H12  1  0.70587562  0.16580951  0.45697399  1  0.458036  0  0.319766  0.264619  0  0.946877  0
H  H13  1  0.89861589  0.11056671  0.44078241  1  0.095164  0  0.10857  0.127103  0  1.00856  0
H  H14  1  0.82495458  0.01801476  0.38467088  1  0.041391  0  0.097567  0.100101  0  0.978137  0
H  H15  1  0.85451898  0.00973232  0.49390076  1  0.077843  0  0.103014  0.116297  0  1.002422  0
H  H16  1  0.30043506  0.37913477  0.18546120  1  0.42223  0  0.290427  0.23725  0  0.996473  0
H  H17  1  0.48374801  0.30558103  0.15824803  1  0.039966  0  0.094898  0.108726  0  0.997533  0
H  H18  1  0.44956294  0.22340875  0.23555497  1  0.045834  0  0.09284  0.099928  0  1.010149  0
H  H19  1  0.48404963  0.33818704  0.26658995  1  0.068737  0  0.088036  0.108625  0  1.038371  0
H  H20  1  0.66299549  0.60497661  0.80382235  1  0.434664  0  0.283805  0.234031  0  1.015475  0
H  H21  1  0.72533473  0.66782171  0.93416472  1  0.060385  0  0.100494  0.113716  0  0.988119  0
H  H22  1  0.82030971  0.75072148  0.88418525  1  0.044787  0  0.09755  0.106181  0  0.991278  0
H  H23  1  0.86609315  0.63570929  0.88745519  1  0.031011  0  0.084882  0.082321  0  1.022781  0
H  H24  1  0.18106563  0.51193833  0.34373065  1  0.396047  0  0.297102  0.244435  0  0.950415  0
H  H25  1  0.14951292  0.55919579  0.20408649  1  0.041836  0  0.101364  0.110507  0  0.984841  0
H  H26  1  0.02377070  0.48437469  0.23156508  1  -0.00315  0  0.086815  0.088052  0  1.000306  0
H  H27  1  0.14510050  0.44381086  0.17015980  1  0.02758  0  0.101246  0.10749  0  1.003546  0
H  H28  1  0.83437154  0.47171637  0.65020303  1  0.431797  0  0.296981  0.242149  0  0.963159  0
H  H29  1  0.97064816  0.50042970  0.78157755  1  0.002058  0  0.086917  0.086209  0  1.000276  0
H  H30  1  0.86072708  0.40736430  0.77832795  1  0.016266  0  0.105218  0.114427  0  0.976215  0
H  H31  1  0.82568748  0.50939729  0.83095219  1  0.034947  0  0.095987  0.098952  0  1.038066  0
H  H32  1  0.04637452  0.30207115  0.53475110  1  0.583219  0  0.323115  0.354696  0  0.900224  0
H  H33  1  0.92997809  0.68663299  0.46178474  1  0.603059  0  0.323785  0.356724  0  0.897619  0
H  H34  1  0.17197060  0.06791456  0.36200221  1  0.642241  0  0.33303  0.366386  0  0.883076  0
H  H35  1  0.78328561  0.91089096  0.63574059  1  0.622188  0  0.330966  0.364074  0  0.886209  0
H  H36  1  0.93767292  0.34700251  0.35560837  1  0.602711  0  0.30939  0.332826  0  0.939819  0
H  H37  1  0.05588925  0.63916787  0.64191271  1  0.587193  0  0.307077  0.329521  0  0.945353  0
H  H38  1  0.33778131  0.54888153  0.83444448  1  0.598906  0  0.321788  0.356185  0  0.905383  0
H  H39  1  0.64510963  0.46235897  0.16938820  1  0.596194  0  0.319792  0.35358  0  0.91351  0
C  C40  1  0.52568389  0.48182178  0.66253270  1  1.687425  0  0.216394  0.653589  0  4.27984  0
C  C41  1  0.46961368  0.52575306  0.34140899  1  1.671921  0  0.216663  0.653112  0  4.277379  0
C  C42  1  0.86997700  0.50020273  0.48711244  1  -0.011785  0  -0.025614  -0.161288  0  3.951881  0
C  C43  1  0.12686293  0.48809561  0.50932487  1  0.037537  0  -0.02627  -0.163085  0  3.944404  0
C  C44  1  0.93277044  0.55856647  0.54471985  1  0.002148  0  -0.029306  -0.07958  0  4.091896  0
C  C45  1  0.06371466  0.42920422  0.45182638  1  0.011263  0  -0.028455  -0.077377  0  4.074768  0
C  C46  1  0.38521700  0.54712547  0.03037904  1  0.03367  0  -0.098131  -0.230942  0  3.952069  0
C  C47  1  0.59798805  0.46324508  0.97353192  1  0.067244  0  -0.098351  -0.232428  0  3.958696  0
C  C48  1  0.47535417  0.51887126  0.08763499  1  0.065641  0  -0.019355  0.015741  0  4.164935  0
C  C49  1  0.50791061  0.49162760  0.91627118  1  0.075687  0  -0.019055  0.016218  0  4.1618  0
C  C50  1  0.58274793  0.47657923  0.05850659  1  0.521641  0  0.076569  0.248955  0  4.10007  0
C  C51  1  0.40045751  0.53371055  0.94533608  1  0.519649  0  0.077563  0.255013  0  4.08941  0
C  C52  1  0.46464498  0.52871165  0.17483300  1  -0.550456  0  -0.040661  -0.068998  0  4.137932  0
C  C53  1  0.52055793  0.48176047  0.82915841  1  -0.54985  0  -0.039083  -0.071884  0  4.144849  0
C  C54  1  0.52407992  0.48048723  0.75312014  1  0.220827  0  -0.029937  -0.160977  0  3.93952  0
C  C55  1  0.46607819  0.52835522  0.25094495  1  0.234578  0  -0.030755  -0.164647  0  3.953313  0
C  C56  1  0.38017468  0.94794638  0.52057975  1  0.496359  0  0.107323  0.191725  0  4.103693  0
C  C57  1  0.60592601  0.04818471  0.47848335  1  0.493282  0  0.108311  0.194708  0  4.106698  0
C  C58  1  0.49475808  0.90521198  0.50610097  1  0.077677  0  -0.003208  -0.047078  0  4.104081  0
C  C59  1  0.49131556  0.09097392  0.49281946  1  0.074389  0  -0.004618  -0.04868  0  4.108272  0
C  C60  1  0.60330142  0.95298567  0.48502401  1  0.031887  0  -0.085005  -0.207099  0  3.934961  0
C  C61  1  0.38267194  0.04313888  0.51375355  1  0.019985  0  -0.084494  -0.204534  0  3.930235  0
C  C62  1  0.26429386  0.48739321  0.51576159  1  1.573528  0  0.214927  0.620523  0  4.157815  0
C  C63  1  0.73222573  0.49941387  0.48329559  1  1.614881  0  0.215814  0.624954  0  4.154758  0
C  C64  1  0.50044683  0.81017238  0.51487536  1  0.867875  0  0.240183  0.324842  0  3.961458  0
C  C65  1  0.48828527  0.18614516  0.48509822  1  0.804152  0  0.238558  0.321382  0  3.969854  0
C  C66  1  0.23540333  0.30441634  0.28051442  1  0.405319  0  0.054487  0.017145  0  4.083054  0
C  C67  1  0.77751408  0.67499341  0.72697214  1  0.418388  0  0.046821  -0.000869  0  4.066473  0
C  C68  1  0.18365115  0.37609395  0.32607566  1  0.374137  0  0.074157  0.106337  0  4.055551  0
C  C69  1  0.82365993  0.60494899  0.67647715  1  0.379664  0  0.079613  0.114847  0  4.071976  0
C  C70  1  0.12312377  0.35665367  0.40165884  1  -0.005551  0  -0.052227  -0.183816  0  4.12456  0
C  C71  1  0.87258635  0.62815060  0.59763855  1  0.057624  0  -0.056313  -0.197961  0  4.12236  0
C  C72  1  0.11363178  0.26631817  0.43078914  1  0.490203  0  0.057764  0.160388  0  4.122129  0
C  C73  1  0.87335289  0.71900478  0.56959380  1  0.465565  0  0.061952  0.171746  0  4.12441  0
C  C74  1  0.15536574  0.19465875  0.38190764  1  0.548282  0  0.039628  0.072455  0  4.125849  0
C  C75  1  0.82862532  0.78817484  0.61999093  1  0.537942  0  0.037158  0.068506  0  4.124266  0
C  C76  1  0.21335948  0.21492130  0.30716733  1  0.421646  0  0.049599  0.10418  0  4.159382  0
C  C77  1  0.77987265  0.76431587  0.69682960  1  0.431111  0  0.054127  0.115324  0  4.173192  0
C  C78  1  0.93566636  0.43693277  0.44025937  1  0.478572  0  0.070356  0.220316  0  4.083904  0
C  C79  1  0.06108421  0.55141098  0.55600315  1  0.448019  0  0.072714  0.226705  0  4.078354  0
C  C80  1  0.16126513  0.93889044  0.56239538  1  0.260453  0  -0.133369  -0.216443  0  3.95768  0
C  C81  1  0.82757731  0.05650760  0.44413310  1  0.261074  0  -0.133357  -0.212536  0  3.956933  0
C  C82  1  0.43871973  0.29485196  0.21822230  1  0.211952  0  -0.158855  -0.235631  0  3.95349  0
C  C83  1  0.78592197  0.67967802  0.88104875  1  0.229294  0  -0.149067  -0.227002  0  3.992842  0
C  C84  1  0.12431493  0.48940104  0.22244509  1  0.30498  0  -0.142012  -0.220286  0  3.978953  0
C  C85  1  0.87154950  0.48179276  0.77629852  1  0.343583  0  -0.141753  -0.217703  0  3.984295  0
N  N86  1  0.49219352  0.26478211  0.47680673  1  -1.155122  0  -0.298625  -0.325743  0  3.125662  0
N  N87  1  0.50236004  0.73174805  0.52398304  1  -1.211577  0  -0.297612  -0.32308  0  3.119763  0
N  N88  1  0.27571657  0.89851172  0.53806295  1  -1.227308  0  -0.436073  -0.281998  0  3.612609  0
N  N89  1  0.71057068  0.09722081  0.46123502  1  -1.223161  0  -0.435865  -0.28213  0  3.619816  0
N  N90  1  0.30654174  0.31471334  0.20759144  1  -1.110306  0  -0.480194  -0.357188  0  3.493364  0
N  N91  1  0.71427488  0.66421357  0.80344325  1  -1.142249  0  -0.473456  -0.340029  0  3.538631  0
N  N92  1  0.19599138  0.46626300  0.29706369  1  -1.080384  0  -0.462074  -0.306169  0  3.494696  0
N  N93  1  0.81441202  0.51302961  0.69909363  1  -1.147155  0  -0.457688  -0.292401  0  3.516233  0
O  O94  1  0.53046007  0.56091086  0.63074863  1  -1.14633  0  -0.308043  -0.542839  0  2.282032  0
O  O95  1  0.48171506  0.44716423  0.37292392  1  -1.151789  0  -0.302013  -0.547415  0  2.305414  0
O  O96  1  0.51909122  0.40531167  0.62540702  1  -1.146883  0  -0.310171  -0.533543  0  2.245026  0
O  O97  1  0.46290957  0.60129365  0.37961574  1  -1.135817  0  -0.312693  -0.533338  0  2.237207  0
O  O98  1  0.31901488  0.56484541  0.51855184  1  -1.151276  0  -0.312508  -0.540406  0  2.346314  0
O  O99  1  0.68036701  0.42143547  0.49085604  1  -1.147404  0  -0.312867  -0.536782  0  2.33259  0
O  O100  1  0.31411378  0.41019783  0.51414109  1  -1.151889  0  -0.309571  -0.533836  0  2.33688  0
O  O101  1  0.68012549  0.57535474  0.47723450  1  -1.15829  0  -0.309301  -0.541249  0  2.321899  0
O  O102  1  0.24961371  0.14198366  0.25994610  1  -1.158595  0  -0.36868  -0.457778  0  2.286058  0
O  O103  1  0.72370469  0.83078230  0.74157854  1  -1.149656  0  -0.369979  -0.450872  0  2.281851  0
O  O104  1  0.06073922  0.24472569  0.50549288  1  -1.100769  0  -0.359441  -0.423008  0  2.261111  0
O  O105  1  0.91763769  0.74300076  0.49309709  1  -1.119609  0  -0.359165  -0.422702  0  2.258506  0
O  O106  1  0.13869546  0.10544888  0.40649663  1  -1.145881  0  -0.351004  -0.424655  0  2.313215  0
O  O107  1  0.82617486  0.87701304  0.59280255  1  -1.129973  0  -0.355553  -0.430316  0  2.312279  0
O  O108  1  0.87436908  0.38379380  0.38190177  1  -1.125932  0  -0.356118  -0.417377  0  2.28496  0
O  O109  1  0.12079739  0.60423997  0.61511989  1  -1.114923  0  -0.354672  -0.412422  0  2.289235  0
O  O110  1  0.31116639  0.56162006  0.89140737  1  -1.122599  0  -0.35986  -0.44407  0  2.247056  0
O  O111  1  0.67180943  0.44854337  0.11258080  1  -1.122437  0  -0.359535  -0.443627  0  2.255774  0
