# generated using pymatgen
data_BaH14C14N2O11
_symmetry_space_group_name_H-M   'P 1'
_cell_length_a   8.32541147
_cell_length_b   8.29447626
_cell_length_c   14.02138806
_cell_angle_alpha   79.83913507
_cell_angle_beta   84.64147522
_cell_angle_gamma   69.93731965
_symmetry_Int_Tables_number   1
_chemical_formula_structural   BaH14C14N2O11
_chemical_formula_sum   'Ba2 H28 C28 N4 O22'
_cell_volume   894.66069333
_cell_formula_units_Z   2
loop_
 _symmetry_equiv_pos_site_id
 _symmetry_equiv_pos_as_xyz
  1  'x, y, z'
loop_
 _atom_site_type_symbol
 _atom_site_label
 _atom_site_symmetry_multiplicity
 _atom_site_fract_x
 _atom_site_fract_y
 _atom_site_fract_z
 _atom_site_occupancy
 _atom_site_hle17_bader_spin_density
 _atom_site_hle17_ddec_charge
 _atom_site_hle17_ddec_spin_density
 _atom_site_hle17_ddec_sum_bond_order
 _atom_site_hle17_magmom
 _atom_site_hse06_10hf_bader_spin_density
 _atom_site_hse06_10hf_ddec_charge
 _atom_site_hse06_10hf_ddec_spin_density
 _atom_site_hse06_10hf_ddec_sum_bond_order
 _atom_site_hse06_10hf_magmom
 _atom_site_hse06_bader_spin_density
 _atom_site_hse06_ddec_charge
 _atom_site_hse06_ddec_spin_density
 _atom_site_hse06_ddec_sum_bond_order
 _atom_site_hse06_magmom
 _atom_site_pbe_bader_spin_density
 _atom_site_pbe_cm5_charge
 _atom_site_pbe_ddec_charge
 _atom_site_pbe_ddec_spin_density
 _atom_site_pbe_ddec_sum_bond_order
 _atom_site_pbe_magmom
Ba  Ba0  1  0.39487983  0.77261666  0.53543862  1  0  1.659636  0  1.116809  0  0  1.519577  0  1.508778  0  0  1.558522  0  1.464593  0  0  0.953372  1.490789  0  1.540243  0
Ba  Ba1  1  0.60511946  0.22738071  0.46456355  1  0  1.659607  0  1.116797  0  0  1.519532  0  1.508867  0  0  1.558488  0  1.464663  0  0  0.953362  1.490737  0  1.540332  0
H  H2  1  0.51152129  0.86678101  0.97332192  1  0  0.106659  0  0.965195  0  0  0.112443  0  1.034268  0  0  0.114835  0  1.033758  0  0  0.109146  0.110751  0  1.034676  0
H  H3  1  0.48848395  0.13322412  0.02667555  1  0  0.10657  0  0.965455  0  0  0.112471  0  1.034297  0  0  0.114861  0  1.033786  0  0  0.109175  0.110779  0  1.034705  0
H  H4  1  0.77753214  0.89728015  0.02526956  1  0  0.103756  0  0.955361  0  0  0.111072  0  1.019064  0  0  0.114407  0  1.01719  0  0  0.105275  0.10867  0  1.020493  0
H  H5  1  0.22247149  0.10272626  0.97472643  1  0  0.103783  0  0.955312  0  0  0.111065  0  1.019023  0  0  0.114404  0  1.017143  0  0  0.105288  0.108664  0  1.02045  0
H  H6  1  0.02118506  0.88671779  0.90422621  1  0  0.097373  0  0.947143  0  0  0.10771  0  1.005896  0  0  0.110674  0  1.004361  0  0  0.104733  0.105596  0  1.007026  0
H  H7  1  0.97882181  0.11328603  0.09577133  1  0  0.097425  0  0.947126  0  0  0.107733  0  1.005965  0  0  0.110695  0  1.004435  0  0  0.104775  0.10562  0  1.00709  0
H  H8  1  0.99718909  0.84436273  0.73641859  1  0  0.107066  0  0.962468  0  0  0.116245  0  1.024224  0  0  0.119972  0  1.02177  0  0  0.117398  0.113492  0  1.026208  0
H  H9  1  0.00281624  0.15563848  0.26357787  1  0  0.107091  0  0.962383  0  0  0.116227  0  1.024226  0  0  0.119953  0  1.021776  0  0  0.117405  0.113473  0  1.026211  0
H  H10  1  0.62072351  0.39863863  0.97621300  1  0  0.108619  0  0.964196  0  0  0.112596  0  1.035875  0  0  0.116543  0  1.032417  0  0  0.106251  0.109835  0  1.038225  0
H  H11  1  0.37927063  0.60137436  0.02379063  1  0  0.108577  0  0.964159  0  0  0.112567  0  1.03581  0  0  0.116506  0  1.032374  0  0  0.106196  0.109806  0  1.038166  0
H  H12  1  0.90244121  0.43083136  0.99045413  1  0  0.095559  0  0.952909  0  0  0.108331  0  1.009164  0  0  0.110655  0  1.009123  0  0  0.104623  0.10666  0  1.009271  0
H  H13  1  0.09755967  0.56916858  0.00954554  1  0  0.095536  0  0.95295  0  0  0.108314  0  1.009208  0  0  0.110641  0  1.009157  0  0  0.104615  0.106659  0  1.009293  0
H  H14  1  0.10798141  0.41101193  0.84581026  1  0  0.103628  0  0.961097  0  0  0.106684  0  1.032327  0  0  0.111367  0  1.027817  0  0  0.103508  0.10327  0  1.035661  0
H  H15  1  0.89201752  0.58898670  0.15418751  1  0  0.103615  0  0.961111  0  0  0.106665  0  1.03235  0  0  0.111348  0  1.027841  0  0  0.10351  0.103251  0  1.035686  0
H  H16  1  0.02605212  0.36247415  0.69178296  1  0  0.10406  0  0.962808  0  0  0.112665  0  1.024972  0  0  0.116715  0  1.022039  0  0  0.111464  0.109644  0  1.027302  0
H  H17  1  0.97394008  0.63751929  0.30821499  1  0  0.104091  0  0.962721  0  0  0.112672  0  1.024921  0  0  0.116723  0  1.021987  0  0  0.111454  0.109652  0  1.027256  0
H  H18  1  0.74939317  0.80524589  0.40204690  1  0  0.419548  0  0.880219  0  0  0.392178  0  0.938468  0  0  0.402584  0  0.923005  0  0  0.300476  0.384811  0  0.949409  0
H  H19  1  0.25060127  0.19475535  0.59795224  1  0  0.419568  0  0.880209  0  0  0.392202  0  0.938447  0  0  0.402607  0  0.922985  0  0  0.30048  0.384834  0  0.949388  0
H  H20  1  0.03370574  0.08871143  0.63569355  1  0  0.433887  0  0.869735  0  0  0.402143  0  0.934513  0  0  0.41365  0  0.917963  0  0  0.295826  0.394034  0  0.946135  0
H  H21  1  0.96629562  0.91128333  0.36430807  1  0  0.433849  0  0.869784  0  0  0.402113  0  0.934548  0  0  0.41362  0  0.917999  0  0  0.295812  0.394004  0  0.946171  0
H  H22  1  0.22282313  0.48158672  0.60416280  1  0  0.425622  0  0.878436  0  0  0.397615  0  0.937573  0  0  0.408165  0  0.922052  0  0  0.29056  0.390141  0  0.948559  0
H  H23  1  0.77717659  0.51840935  0.39583948  1  0  0.425622  0  0.878436  0  0  0.397631  0  0.937568  0  0  0.408187  0  0.922036  0  0  0.29056  0.390156  0  0.948556  0
H  H24  1  0.78862047  0.70041196  0.50541648  1  0  0.414238  0  0.893334  0  0  0.38122  0  0.959999  0  0  0.392996  0  0.942893  0  0  0.296851  0.372894  0  0.972069  0
H  H25  1  0.21137758  0.29958929  0.49458320  1  0  0.414256  0  0.893317  0  0  0.381245  0  0.959968  0  0  0.393021  0  0.942863  0  0  0.296848  0.372918  0  0.972041  0
H  H26  1  0.17747538  0.99573335  0.71378903  1  0  0.407305  0  0.879602  0  0  0.37661  0  0.954945  0  0  0.385224  0  0.942133  0  0  0.304551  0.370561  0  0.96395  0
H  H27  1  0.82252868  0.00426791  0.28621177  1  0  0.407186  0  0.879769  0  0  0.376557  0  0.955026  0  0  0.385174  0  0.94221  0  0  0.304537  0.370509  0  0.964031  0
H  H28  1  0.06744223  0.64401075  0.62685313  1  0  0.418734  0  0.889892  0  0  0.387959  0  0.954339  0  0  0.398569  0  0.938763  0  0  0.287232  0.380439  0  0.965356  0
H  H29  1  0.93256024  0.35598793  0.37314944  1  0  0.418717  0  0.889902  0  0  0.387959  0  0.954319  0  0  0.398567  0  0.938748  0  0  0.287235  0.380438  0  0.965338  0
C  C30  1  0.74033196  0.84105245  0.75721718  1  0  -0.056233  0  3.665627  0  0  -0.045535  0  3.911348  0  0  -0.048016  0  3.929709  0  0  0.012077  -0.044089  0  3.899221  0
C  C31  1  0.25967122  0.15895528  0.24278084  1  0  -0.056616  0  3.667692  0  0  -0.04544  0  3.911335  0  0  -0.047923  0  3.929697  0  0  0.012093  -0.043991  0  3.899204  0
C  C32  1  0.60602708  0.84845418  0.82658140  1  0  0.068249  0  3.694983  0  0  0.044548  0  3.947103  0  0  0.041386  0  3.96937  0  0  0.08751  0.046551  0  3.932212  0
C  C33  1  0.39397853  0.15154967  0.17341975  1  0  0.059254  0  3.690042  0  0  0.044521  0  3.947116  0  0  0.04136  0  3.969383  0  0  0.087487  0.04652  0  3.932225  0
C  C34  1  0.61770725  0.86800626  0.92218226  1  0  -0.09357  0  3.72986  0  0  -0.12378  0  3.996102  0  0  -0.124013  0  4.016815  0  0  -0.080393  -0.12348  0  3.982037  0
C  C35  1  0.38230210  0.13199368  0.07781627  1  0  -0.094123  0  3.732147  0  0  -0.123723  0  3.995901  0  0  -0.123955  0  4.016615  0  0  -0.080363  -0.123425  0  3.981839  0
C  C36  1  0.76700672  0.88289553  0.95059054  1  0  -0.063321  0  3.73789  0  0  -0.078445  0  3.995895  0  0  -0.081986  0  4.017585  0  0  -0.085072  -0.07599  0  3.981052  0
C  C37  1  0.23299689  0.11711090  0.04940688  1  0  -0.063345  0  3.737989  0  0  -0.078425  0  3.996029  0  0  -0.081977  0  4.017735  0  0  -0.085055  -0.075969  0  3.981183  0
C  C38  1  0.90310304  0.87564282  0.88312852  1  0  -0.034224  0  3.711352  0  0  -0.054274  0  3.968172  0  0  -0.054817  0  3.988942  0  0  -0.073199  -0.05373  0  3.953931  0
C  C39  1  0.09690342  0.12436230  0.11686819  1  0  -0.034413  0  3.711536  0  0  -0.054446  0  3.968569  0  0  -0.054985  0  3.989324  0  0  -0.073369  -0.053902  0  3.95433  0
C  C40  1  0.89028552  0.85220187  0.78838782  1  0  -0.057882  0  3.690503  0  0  -0.082931  0  3.944438  0  0  -0.085188  0  3.964128  0  0  -0.070646  -0.081523  0  3.931415  0
C  C41  1  0.10972100  0.14779936  0.21161001  1  0  -0.057836  0  3.690257  0  0  -0.082843  0  3.944366  0  0  -0.085097  0  3.964053  0  0  -0.07059  -0.08144  0  3.931343  0
C  C42  1  0.72654370  0.83740305  0.65096992  1  0  0.675732  0  3.92845  0  0  0.617025  0  4.239271  0  0  0.651742  0  4.229164  0  0  0.228285  0.593425  0  4.24529  0
C  C43  1  0.27345995  0.16259949  0.34902933  1  0  0.675501  0  3.928746  0  0  0.616935  0  4.239394  0  0  0.651651  0  4.229292  0  0  0.228288  0.59333  0  4.245416  0
C  C44  1  0.77951363  0.34953069  0.74473397  1  0  -0.069475  0  3.688335  0  0  -0.060206  0  3.934342  0  0  -0.062494  0  3.951824  0  0  0.003916  -0.05902  0  3.92307  0
C  C45  1  0.22048574  0.65046279  0.25526860  1  0  -0.069525  0  3.68842  0  0  -0.060302  0  3.934605  0  0  -0.062588  0  3.952084  0  0  0.003908  -0.059042  0  3.923236  0
C  C46  1  0.66747817  0.36219799  0.82648361  1  0  0.045774  0  3.703024  0  0  0.032773  0  3.959311  0  0  0.030314  0  3.982124  0  0  0.0772  0.034297  0  3.9441  0
C  C47  1  0.33251705  0.63780069  0.17352005  1  0  0.045846  0  3.703023  0  0  0.032863  0  3.959412  0  0  0.030403  0  3.982223  0  0  0.077186  0.034365  0  3.94418  0
C  C48  1  0.71069799  0.39098022  0.91437554  1  0  -0.107401  0  3.747992  0  0  -0.137137  0  4.012196  0  0  -0.137755  0  4.032068  0  0  -0.088236  -0.13646  0  3.998625  0
C  C49  1  0.28929674  0.60902366  0.08562760  1  0  -0.107363  0  3.747847  0  0  -0.137076  0  4.012021  0  0  -0.137697  0  4.031892  0  0  -0.088149  -0.136408  0  3.998462  0
C  C50  1  0.86944423  0.40793510  0.92185968  1  0  -0.062571  0  3.75503  0  0  -0.074879  0  4.005784  0  0  -0.078272  0  4.029019  0  0  -0.086953  -0.072561  0  3.989897  0
C  C51  1  0.13055254  0.59207004  0.07813965  1  0  -0.062646  0  3.755023  0  0  -0.074969  0  4.005824  0  0  -0.078361  0  4.029057  0  0  -0.086998  -0.072664  0  3.989928  0
C  C52  1  0.98362526  0.39626765  0.84167469  1  0  -0.034813  0  3.705449  0  0  -0.054403  0  3.962689  0  0  -0.054688  0  3.981928  0  0  -0.076271  -0.053956  0  3.949478  0
C  C53  1  0.01637322  0.60373229  0.15832511  1  0  -0.034804  0  3.705512  0  0  -0.054385  0  3.962769  0  0  -0.054671  0  3.982011  0  0  -0.076295  -0.053937  0  3.949565  0
C  C54  1  0.93821992  0.36704743  0.75454584  1  0  -0.065309  0  3.70086  0  0  -0.088288  0  3.951486  0  0  -0.090232  0  3.970428  0  0  -0.07823  -0.087054  0  3.939009  0
C  C55  1  0.06177862  0.63294862  0.24545437  1  0  -0.065358  0  3.700842  0  0  -0.088292  0  3.951515  0  0  -0.090237  0  3.970458  0  0  -0.078234  -0.087081  0  3.939019  0
C  C56  1  0.73688380  0.32779666  0.64639420  1  0  0.687673  0  3.915713  0  0  0.632972  0  4.219858  0  0  0.668119  0  4.209008  0  0  0.221102  0.609066  0  4.226447  0
C  C57  1  0.26310708  0.67219684  0.35361094  1  0  0.687912  0  3.915865  0  0  0.633143  0  4.220136  0  0  0.668293  0  4.209279  0  0  0.221192  0.609215  0  4.226729  0
N  N58  1  0.50077944  0.33997731  0.82351168  1  0  0.50992  0  3.887752  0  0  0.533893  0  4.192815  0  0  0.555641  0  4.199177  0  0  0.061228  0.519242  0  4.188575  0
N  N59  1  0.49920976  0.66002137  0.17649158  1  0  0.509743  0  3.887857  0  0  0.533686  0  4.19302  0  0  0.555436  0  4.199381  0  0  0.061181  0.519036  0  4.18878  0
N  N60  1  0.44855589  0.83114082  0.80067396  1  0  0.494669  0  3.911089  0  0  0.550478  0  4.158363  0  0  0.573569  0  4.163362  0  0  0.065476  0.534883  0  4.155064  0
N  N61  1  0.55145020  0.16886171  0.19932446  1  0  0.527453  0  3.858641  0  0  0.550554  0  4.158262  0  0  0.573645  0  4.163265  0  0  0.065479  0.534961  0  4.154966  0
O  O62  1  0.59490595  0.94452588  0.60822173  1  0  -0.740989  0  1.995703  0  0  -0.686801  0  2.249964  0  0  -0.714437  0  2.240975  0  0  -0.386067  -0.666959  0  2.255376  0
O  O63  1  0.40509458  0.05547147  0.39177823  1  0  -0.741023  0  1.996167  0  0  -0.686712  0  2.250016  0  0  -0.714339  0  2.241013  0  0  -0.386035  -0.66687  0  2.255424  0
O  O64  1  0.84986411  0.72942712  0.61101469  1  0  -0.618377  0  1.994015  0  0  -0.550732  0  2.205645  0  0  -0.577798  0  2.195734  0  0  -0.280698  -0.531484  0  2.211817  0
O  O65  1  0.15013716  0.27057540  0.38898255  1  0  -0.618394  0  1.994089  0  0  -0.550794  0  2.205726  0  0  -0.577859  0  2.195813  0  0  -0.280743  -0.531541  0  2.211899  0
O  O66  1  0.45785986  0.73174842  0.74223096  1  0  -0.374556  0  1.86427  0  0  -0.362577  0  2.080764  0  0  -0.375601  0  2.077194  0  0  -0.120053  -0.353916  0  2.083384  0
O  O67  1  0.54214304  0.26825281  0.25776705  1  0  -0.385698  0  1.848339  0  0  -0.362635  0  2.080703  0  0  -0.375656  0  2.07713  0  0  -0.12007  -0.353972  0  2.083319  0
O  O68  1  0.31037941  0.91652141  0.83845618  1  0  -0.372896  0  1.756369  0  0  -0.353015  0  1.943229  0  0  -0.36578  0  1.937216  0  0  -0.120876  -0.344648  0  1.947643  0
O  O69  1  0.68962555  0.08347722  0.16154199  1  0  -0.384034  0  1.740455  0  0  -0.353074  0  1.943237  0  0  -0.36584  0  1.937219  0  0  -0.120886  -0.344704  0  1.947643  0
O  O70  1  0.61203020  0.44301660  0.60253033  1  0  -0.704829  0  1.967361  0  0  -0.64614  0  2.212366  0  0  -0.674566  0  2.204231  0  0  -0.381055  -0.625887  0  2.217262  0
O  O71  1  0.38796236  0.55697558  0.39747201  1  0  -0.704969  0  1.96748  0  0  -0.646228  0  2.212513  0  0  -0.674662  0  2.20439  0  0  -0.3811  -0.625973  0  2.217423  0
O  O72  1  0.83421292  0.19464778  0.61076894  1  0  -0.675198  0  1.959713  0  0  -0.612305  0  2.180784  0  0  -0.63986  0  2.170775  0  0  -0.338793  -0.592677  0  2.18699  0
O  O73  1  0.16578278  0.80534571  0.38923596  1  0  -0.67523  0  1.959756  0  0  -0.612317  0  2.180859  0  0  -0.63987  0  2.170848  0  0  -0.338779  -0.59269  0  2.187079  0
O  O74  1  0.48405917  0.25063127  0.76557905  1  0  -0.331318  0  1.761876  0  0  -0.310512  0  1.965664  0  0  -0.321039  0  1.962987  0  0  -0.097113  -0.303514  0  1.967613  0
O  O75  1  0.51593851  0.74936353  0.23442632  1  0  -0.331153  0  1.761745  0  0  -0.310357  0  1.965559  0  0  -0.32089  0  1.962886  0  0  -0.097077  -0.303358  0  1.967508  0
O  O76  1  0.38559704  0.40935501  0.88170694  1  0  -0.383317  0  1.745228  0  0  -0.35881  0  1.95461  0  0  -0.373065  0  1.951113  0  0  -0.13418  -0.349212  0  1.957066  0
O  O77  1  0.61439159  0.59065662  0.11829069  1  0  -0.383308  0  1.745303  0  0  -0.358745  0  1.954667  0  0  -0.372998  0  1.951169  0  0  -0.134139  -0.349148  0  1.957122  0
O  O78  1  0.72906221  0.70548586  0.44539859  1  0  -0.867691  0  1.867633  0  0  -0.808037  0  2.036709  0  0  -0.828493  0  2.003871  0  0  -0.595922  -0.79338  0  2.059504  0
O  O79  1  0.27093548  0.29451279  0.55460139  1  0  -0.867722  0  1.867619  0  0  -0.808071  0  2.036695  0  0  -0.828523  0  2.00386  0  0  -0.595931  -0.793413  0  2.059492  0
O  O80  1  0.16049349  0.02546344  0.64387879  1  0  -0.870283  0  1.845002  0  0  -0.81157  0  2.022086  0  0  -0.83192  0  1.992087  0  0  -0.59485  -0.797134  0  2.043031  0
O  O81  1  0.83950703  0.97453392  0.35612189  1  0  -0.870262  0  1.845141  0  0  -0.811484  0  2.022155  0  0  -0.831837  0  1.992155  0  0  -0.594839  -0.797049  0  2.043101  0
O  O82  1  0.19373139  0.59426639  0.62855956  1  0  -0.903425  0  1.768642  0  0  -0.856349  0  1.947109  0  0  -0.875623  0  1.915056  0  0  -0.659428  -0.842364  0  1.969437  0
O  O83  1  0.80626999  0.40572450  0.37144532  1  0  -0.903406  0  1.768635  0  0  -0.85635  0  1.947045  0  0  -0.875626  0  1.914989  0  0  -0.65944  -0.842365  0  1.969374  0
