# generated using pymatgen
data_AgH11C8N3O2
_symmetry_space_group_name_H-M   'P 1'
_cell_length_a   9.06117682
_cell_length_b   11.50668269
_cell_length_c   11.50663800
_cell_angle_alpha   113.10295067
_cell_angle_beta   102.95644418
_cell_angle_gamma   102.95595731
_symmetry_Int_Tables_number   1
_chemical_formula_structural   AgH11C8N3O2
_chemical_formula_sum   'Ag4 H44 C32 N12 O8'
_cell_volume   1008.09271589
_cell_formula_units_Z   4
loop_
 _symmetry_equiv_pos_site_id
 _symmetry_equiv_pos_as_xyz
  1  'x, y, z'
loop_
 _atom_site_type_symbol
 _atom_site_label
 _atom_site_symmetry_multiplicity
 _atom_site_fract_x
 _atom_site_fract_y
 _atom_site_fract_z
 _atom_site_occupancy
 _atom_site_hle17_bader_spin_density
 _atom_site_hle17_ddec_charge
 _atom_site_hle17_ddec_spin_density
 _atom_site_hle17_ddec_sum_bond_order
 _atom_site_hle17_magmom
 _atom_site_hse06_10hf_bader_spin_density
 _atom_site_hse06_10hf_ddec_charge
 _atom_site_hse06_10hf_ddec_spin_density
 _atom_site_hse06_10hf_ddec_sum_bond_order
 _atom_site_hse06_10hf_magmom
 _atom_site_hse06_bader_spin_density
 _atom_site_hse06_ddec_charge
 _atom_site_hse06_ddec_spin_density
 _atom_site_hse06_ddec_sum_bond_order
 _atom_site_hse06_magmom
 _atom_site_pbe_bader_spin_density
 _atom_site_pbe_cm5_charge
 _atom_site_pbe_ddec_charge
 _atom_site_pbe_ddec_spin_density
 _atom_site_pbe_ddec_sum_bond_order
 _atom_site_pbe_magmom
Ag  Ag0  1  0.24998890  0.26590802  0.73408088  1  0  0.540898  0  1.477435  0  0  0.411933  0  1.930652  0  0  0.446518  0  1.875752  0  0  0.4202  0.388293  0  1.96826  0
Ag  Ag1  1  0.75001000  0.73409010  0.26592265  1  0  0.540864  0  1.477421  0  0  0.411912  0  1.930642  0  0  0.446497  0  1.875739  0  0  0.420192  0.388279  0  1.968254  0
Ag  Ag2  1  0.74999038  0.88549709  0.11450478  1  0  0.485667  0  1.525772  0  0  0.342183  0  1.975354  0  0  0.375659  0  1.925272  0  0  0.473826  0.319165  0  2.009881  0
Ag  Ag3  1  0.25001575  0.11450214  0.88549954  1  0  0.485685  0  1.525737  0  0  0.342208  0  1.975342  0  0  0.375682  0  1.925251  0  0  0.473796  0.319193  0  2.009859  0
H  H4  1  0.76387401  0.36204255  0.42312624  1  0  0.119733  0  0.962292  0  0  0.133974  0  1.016481  0  0  0.137224  0  1.016971  0  0  0.103033  0.13167  0  1.016351  0
H  H5  1  0.73612805  0.57686102  0.63796716  1  0  0.119752  0  0.96222  0  0  0.134004  0  1.016411  0  0  0.137255  0  1.0169  0  0  0.103023  0.131702  0  1.016281  0
H  H6  1  0.23613711  0.63796104  0.57687118  1  0  0.119697  0  0.962287  0  0  0.133934  0  1.016492  0  0  0.137185  0  1.016981  0  0  0.103003  0.131634  0  1.016356  0
H  H7  1  0.26386588  0.42313614  0.36203253  1  0  0.119725  0  0.96219  0  0  0.133932  0  1.016442  0  0  0.137182  0  1.016934  0  0  0.102987  0.13163  0  1.016305  0
H  H8  1  0.66316824  0.10799740  0.08689607  1  0  0.129524  0  0.929187  0  0  0.152475  0  0.987441  0  0  0.154878  0  0.985236  0  0  0.100287  0.150653  0  0.989126  0
H  H9  1  0.83682824  0.91309508  0.89200782  1  0  0.129429  0  0.929207  0  0  0.152408  0  0.987442  0  0  0.154808  0  0.985241  0  0  0.100253  0.150587  0  0.989133  0
H  H10  1  0.33684248  0.89200510  0.91310344  1  0  0.129434  0  0.929199  0  0  0.15238  0  0.987462  0  0  0.154782  0  0.985261  0  0  0.100238  0.15056  0  0.989147  0
H  H11  1  0.16316503  0.08690616  0.10799087  1  0  0.129417  0  0.929171  0  0  0.152385  0  0.987423  0  0  0.154786  0  0.985222  0  0  0.100249  0.150566  0  0.989107  0
H  H12  1  0.58398292  0.21534291  0.19488995  1  0  0.125996  0  0.959016  0  0  0.144073  0  1.019375  0  0  0.145813  0  1.019731  0  0  0.09268  0.142814  0  1.019154  0
H  H13  1  0.91600981  0.80509893  0.78466091  1  0  0.126064  0  0.959031  0  0  0.144151  0  1.019367  0  0  0.14589  0  1.019725  0  0  0.092717  0.142891  0  1.019147  0
H  H14  1  0.41602935  0.78466064  0.80510938  1  0  0.125947  0  0.959153  0  0  0.144025  0  1.019487  0  0  0.145766  0  1.019839  0  0  0.09268  0.142763  0  1.019271  0
H  H15  1  0.08398078  0.19490131  0.21533605  1  0  0.126069  0  0.959034  0  0  0.144159  0  1.019356  0  0  0.145899  0  1.019713  0  0  0.092727  0.142897  0  1.019142  0
H  H16  1  0.53606909  0.04302192  0.16088918  1  0  0.139503  0  0.95476  0  0  0.159499  0  1.015832  0  0  0.162121  0  1.014235  0  0  0.099996  0.157541  0  1.017074  0
H  H17  1  0.96392868  0.83910250  0.95698443  1  0  0.139469  0  0.954787  0  0  0.15945  0  1.015877  0  0  0.162069  0  1.014283  0  0  0.099988  0.157495  0  1.017111  0
H  H18  1  0.46393976  0.95698160  0.83910957  1  0  0.139416  0  0.954723  0  0  0.1594  0  1.015828  0  0  0.162021  0  1.014231  0  0  0.09994  0.157442  0  1.017067  0
H  H19  1  0.03606727  0.16089980  0.04301428  1  0  0.139444  0  0.954771  0  0  0.159422  0  1.015875  0  0  0.162044  0  1.014277  0  0  0.099987  0.157464  0  1.017114  0
H  H20  1  0.15235805  0.48070082  0.69876698  1  0  0.129017  0  0.960185  0  0  0.144909  0  1.027611  0  0  0.147584  0  1.026107  0  0  0.095673  0.142949  0  1.028725  0
H  H21  1  0.34763799  0.30122826  0.51929804  1  0  0.129012  0  0.960192  0  0  0.144897  0  1.027608  0  0  0.147573  0  1.026105  0  0  0.095667  0.142942  0  1.028719  0
H  H22  1  0.84764618  0.51929955  0.30123230  1  0  0.12906  0  0.960175  0  0  0.144967  0  1.02756  0  0  0.147645  0  1.026055  0  0  0.095697  0.14301  0  1.028675  0
H  H23  1  0.65235831  0.69877190  0.48070417  1  0  0.128991  0  0.960254  0  0  0.144907  0  1.027628  0  0  0.147583  0  1.026126  0  0  0.09568  0.142952  0  1.028741  0
H  H24  1  0.96850021  0.42661078  0.72244128  1  0  0.133229  0  0.943769  0  0  0.15647  0  0.998515  0  0  0.158152  0  0.998397  0  0  0.102536  0.155174  0  0.998705  0
H  H25  1  0.53149779  0.27755582  0.57339365  1  0  0.133271  0  0.943741  0  0  0.156506  0  0.998485  0  0  0.15819  0  0.998364  0  0  0.102531  0.155211  0  0.998676  0
H  H26  1  0.03150711  0.57339163  0.27755937  1  0  0.133263  0  0.943739  0  0  0.156512  0  0.998471  0  0  0.158193  0  0.998355  0  0  0.102557  0.155216  0  0.998663  0
H  H27  1  0.46849729  0.72244129  0.42660795  1  0  0.13327  0  0.943747  0  0  0.156509  0  0.998485  0  0  0.158191  0  0.998366  0  0  0.102545  0.155216  0  0.998678  0
H  H28  1  0.98456313  0.52425953  0.63572347  1  0  0.107107  0  0.967546  0  0  0.126085  0  1.032301  0  0  0.127311  0  1.032765  0  0  0.087284  0.125222  0  1.031962  0
H  H29  1  0.51543838  0.36427721  0.47574747  1  0  0.107062  0  0.967578  0  0  0.126028  0  1.032352  0  0  0.127254  0  1.032815  0  0  0.087243  0.125164  0  1.032015  0
H  H30  1  0.01544224  0.47574089  0.36427514  1  0  0.107109  0  0.967522  0  0  0.126086  0  1.032285  0  0  0.127313  0  1.032746  0  0  0.087282  0.125224  0  1.031944  0
H  H31  1  0.48456061  0.63572393  0.52425734  1  0  0.107132  0  0.967569  0  0  0.126095  0  1.032337  0  0  0.12732  0  1.0328  0  0  0.087289  0.125235  0  1.031997  0
H  H32  1  0.66684824  0.09370453  0.61126142  1  0  0.107745  0  0.914461  0  0  0.128395  0  0.964822  0  0  0.12994  0  0.965033  0  0  0.102279  0.127273  0  0.964749  0
H  H33  1  0.83313656  0.38874545  0.90629002  1  0  0.107818  0  0.914328  0  0  0.128414  0  0.964744  0  0  0.129954  0  0.964964  0  0  0.102325  0.127324  0  0.964633  0
H  H34  1  0.33315716  0.90629567  0.38874406  1  0  0.107718  0  0.914484  0  0  0.128388  0  0.964841  0  0  0.12993  0  0.965056  0  0  0.102277  0.127269  0  0.964771  0
H  H35  1  0.16683969  0.61124479  0.09369427  1  0  0.107762  0  0.914481  0  0  0.128433  0  0.964815  0  0  0.129978  0  0.965028  0  0  0.102292  0.127311  0  0.964746  0
H  H36  1  0.55487257  0.94033424  0.59465318  1  0  0.099885  0  0.92754  0  0  0.121439  0  0.979541  0  0  0.122622  0  0.979903  0  0  0.100643  0.120601  0  0.979327  0
H  H37  1  0.94511809  0.40534560  0.05965684  1  0  0.099846  0  0.927551  0  0  0.121401  0  0.979549  0  0  0.122585  0  0.979908  0  0  0.100602  0.12056  0  0.979341  0
H  H38  1  0.44513284  0.05966596  0.40535231  1  0  0.099813  0  0.927612  0  0  0.121412  0  0.979573  0  0  0.122596  0  0.979932  0  0  0.100635  0.120577  0  0.979355  0
H  H39  1  0.05486011  0.59464665  0.94032949  1  0  0.099908  0  0.927492  0  0  0.121459  0  0.979504  0  0  0.122644  0  0.979863  0  0  0.100642  0.120621  0  0.979285  0
H  H40  1  0.03924821  0.94537204  0.29054554  1  0  0.334945  0  0.939831  0  0  0.312378  0  1.015052  0  0  0.32151  0  1.005913  0  0  0.286314  0.305879  0  1.021555  0
H  H41  1  0.46074614  0.70944822  0.05463030  1  0  0.334995  0  0.939836  0  0  0.312468  0  1.014971  0  0  0.321598  0  1.005832  0  0  0.286365  0.305975  0  1.021462  0
H  H42  1  0.96075912  0.05463034  0.70945596  1  0  0.334931  0  0.939873  0  0  0.312356  0  1.015088  0  0  0.321486  0  1.005953  0  0  0.28631  0.30586  0  1.021584  0
H  H43  1  0.53925244  0.29055194  0.94537317  1  0  0.334881  0  0.93995  0  0  0.31235  0  1.01511  0  0  0.321482  0  1.005971  0  0  0.286338  0.305858  0  1.021596  0
H  H44  1  0.17190773  0.05590022  0.45883597  1  0  0.353393  0  0.923455  0  0  0.330082  0  0.991634  0  0  0.339253  0  0.983953  0  0  0.299122  0.323608  0  0.997021  0
H  H45  1  0.32808223  0.54115685  0.94410008  1  0  0.353369  0  0.923367  0  0  0.330038  0  0.991588  0  0  0.339225  0  0.983883  0  0  0.299069  0.323557  0  0.996983  0
H  H46  1  0.82810147  0.94410116  0.54116629  1  0  0.353423  0  0.92346  0  0  0.330133  0  0.991609  0  0  0.339289  0  0.983953  0  0  0.299144  0.323659  0  0.996996  0
H  H47  1  0.67191479  0.45884234  0.05590098  1  0  0.353436  0  0.923462  0  0  0.330096  0  0.991671  0  0  0.339288  0  0.983959  0  0  0.299133  0.323614  0  0.99707  0
C  C48  1  0.98890597  0.11631469  0.39229526  1  0  0.639859  0  3.821329  0  0  0.591469  0  4.094854  0  0  0.619409  0  4.102591  0  0  0.339591  0.572791  0  4.089148  0
C  C49  1  0.51108633  0.60770139  0.88369047  1  0  0.639921  0  3.821179  0  0  0.591565  0  4.094694  0  0  0.619513  0  4.102427  0  0  0.339634  0.572883  0  4.088992  0
C  C50  1  0.01110045  0.88368270  0.60770313  1  0  0.640209  0  3.820738  0  0  0.591735  0  4.094377  0  0  0.619678  0  4.10211  0  0  0.339606  0.573052  0  4.088686  0
C  C51  1  0.48891296  0.39229783  0.11631097  1  0  0.639801  0  3.821262  0  0  0.591492  0  4.094767  0  0  0.619437  0  4.102503  0  0  0.33959  0.572804  0  4.089072  0
C  C52  1  0.96220404  0.31803284  0.52148557  1  0  0.390454  0  3.760918  0  0  0.389355  0  4.014347  0  0  0.407152  0  4.028073  0  0  0.130557  0.377583  0  4.004724  0
C  C53  1  0.53778960  0.47851125  0.68197674  1  0  0.390522  0  3.761091  0  0  0.389508  0  4.014357  0  0  0.407302  0  4.028087  0  0  0.130635  0.377738  0  4.00474  0
C  C54  1  0.03779978  0.68196655  0.47851235  1  0  0.390547  0  3.760634  0  0  0.38941  0  4.014094  0  0  0.407205  0  4.027825  0  0  0.130536  0.377641  0  4.004479  0
C  C55  1  0.46220548  0.52148583  0.31802572  1  0  0.390441  0  3.761087  0  0  0.38937  0  4.01449  0  0  0.407162  0  4.028223  0  0  0.130535  0.3776  0  4.004873  0
C  C56  1  0.82652651  0.29046014  0.41481159  1  0  -0.35442  0  3.714051  0  0  -0.373913  0  3.958094  0  0  -0.391556  0  3.979241  0  0  -0.122131  -0.362597  0  3.944054  0
C  C57  1  0.67347119  0.58518314  0.70955379  1  0  -0.354463  0  3.714069  0  0  -0.374011  0  3.958032  0  0  -0.39166  0  3.97918  0  0  -0.122176  -0.362702  0  3.943999  0
C  C58  1  0.17348815  0.70954628  0.58519456  1  0  -0.354373  0  3.713849  0  0  -0.373813  0  3.957934  0  0  -0.391458  0  3.979085  0  0  -0.122093  -0.362506  0  3.943896  0
C  C59  1  0.32652788  0.41482106  0.29045059  1  0  -0.354393  0  3.71394  0  0  -0.373859  0  3.957918  0  0  -0.391508  0  3.979066  0  0  -0.122114  -0.362544  0  3.943879  0
C  C60  1  0.77512404  0.17020181  0.29658633  1  0  0.388765  0  3.753481  0  0  0.385425  0  3.998326  0  0  0.40271  0  4.015287  0  0  0.129979  0.373967  0  3.986568  0
C  C61  1  0.72486399  0.70340148  0.82980584  1  0  0.388713  0  3.753647  0  0  0.385476  0  3.998372  0  0  0.402768  0  4.015321  0  0  0.130112  0.374018  0  3.986619  0
C  C62  1  0.22487562  0.82979868  0.70340702  1  0  0.388716  0  3.753549  0  0  0.385277  0  3.998529  0  0  0.402562  0  4.015496  0  0  0.130003  0.373825  0  3.986765  0
C  C63  1  0.27512726  0.29659467  0.17019211  1  0  0.388818  0  3.753419  0  0  0.385573  0  3.998144  0  0  0.40287  0  4.015081  0  0  0.130177  0.374111  0  3.986399  0
C  C64  1  0.63136903  0.13291867  0.17844684  1  0  -0.396835  0  3.693657  0  0  -0.476472  0  3.927825  0  0  -0.480853  0  3.932485  0  0  -0.245574  -0.473177  0  3.924512  0
C  C65  1  0.86863084  0.82154810  0.86708636  1  0  -0.396777  0  3.69345  0  0  -0.476459  0  3.927594  0  0  -0.480838  0  3.932254  0  0  -0.245629  -0.47316  0  3.924268  0
C  C66  1  0.36864243  0.86708278  0.82155409  1  0  -0.39663  0  3.693379  0  0  -0.476204  0  3.927572  0  0  -0.480589  0  3.93224  0  0  -0.245535  -0.472909  0  3.924258  0
C  C67  1  0.13136438  0.17845520  0.13291264  1  0  -0.396777  0  3.693486  0  0  -0.476443  0  3.927625  0  0  -0.480825  0  3.932282  0  0  -0.245639  -0.473139  0  3.924288  0
C  C68  1  0.02069961  0.44525274  0.65124739  1  0  -0.383687  0  3.691023  0  0  -0.463374  0  3.928461  0  0  -0.467352  0  3.932796  0  0  -0.242255  -0.460388  0  3.925319  0
C  C69  1  0.47929609  0.34874776  0.55475116  1  0  -0.383748  0  3.690978  0  0  -0.463443  0  3.928382  0  0  -0.467422  0  3.932716  0  0  -0.242246  -0.460454  0  3.925237  0
C  C70  1  0.97930617  0.55474865  0.34875257  1  0  -0.383852  0  3.691026  0  0  -0.463538  0  3.928504  0  0  -0.467518  0  3.932837  0  0  -0.242305  -0.460548  0  3.925362  0
C  C71  1  0.52070177  0.65125334  0.44525432  1  0  -0.383806  0  3.690973  0  0  -0.463495  0  3.928388  0  0  -0.467474  0  3.932725  0  0  -0.24231  -0.460507  0  3.925247  0
C  C72  1  0.54200097  0.02435080  0.57495662  1  0  -0.238464  0  3.689049  0  0  -0.280317  0  3.945372  0  0  -0.285055  0  3.95379  0  0  -0.169428  -0.276942  0  3.939285  0
C  C73  1  0.95798608  0.42504181  0.97564036  1  0  -0.238445  0  3.689  0  0  -0.280234  0  3.945312  0  0  -0.284968  0  3.953726  0  0  -0.169426  -0.276887  0  3.939235  0
C  C74  1  0.45800330  0.97564939  0.42504867  1  0  -0.238332  0  3.689251  0  0  -0.280275  0  3.945568  0  0  -0.285011  0  3.953986  0  0  -0.16949  -0.276909  0  3.939484  0
C  C75  1  0.04199285  0.57494944  0.02434567  1  0  -0.23854  0  3.689178  0  0  -0.280414  0  3.945474  0  0  -0.285153  0  3.953892  0  0  -0.169513  -0.27705  0  3.939401  0
C  C76  1  0.46042390  0.09732936  0.66817322  1  0  0.685883  0  3.8638  0  0  0.634869  0  4.165923  0  0  0.668205  0  4.161516  0  0  0.199284  0.612218  0  4.167988  0
C  C77  1  0.03955192  0.33182847  0.90265950  1  0  0.685598  0  3.863463  0  0  0.634497  0  4.165715  0  0  0.667839  0  4.161314  0  0  0.199077  0.611843  0  4.167779  0
C  C78  1  0.53957819  0.90267377  0.33183468  1  0  0.68555  0  3.863995  0  0  0.634612  0  4.16604  0  0  0.667956  0  4.161629  0  0  0.199156  0.611971  0  4.168093  0
C  C79  1  0.96043256  0.66817081  0.09733256  1  0  0.685786  0  3.863496  0  0  0.634759  0  4.165646  0  0  0.6681  0  4.161242  0  0  0.199238  0.612119  0  4.167695  0
N  N80  1  0.07283671  0.03322479  0.37866914  1  0  -0.695323  0  3.093883  0  0  -0.657162  0  3.335418  0  0  -0.680542  0  3.328812  0  0  -0.568101  -0.641035  0  3.339755  0
N  N81  1  0.42716285  0.62133399  0.96678410  1  0  -0.695367  0  3.094052  0  0  -0.657224  0  3.335593  0  0  -0.680615  0  3.328959  0  0  -0.568097  -0.641093  0  3.339927  0
N  N82  1  0.92716947  0.96677764  0.62133045  1  0  -0.695515  0  3.093765  0  0  -0.657313  0  3.335313  0  0  -0.680683  0  3.328732  0  0  -0.56812  -0.641181  0  3.33965  0
N  N83  1  0.57283965  0.37867014  0.03322428  1  0  -0.695272  0  3.094271  0  0  -0.657104  0  3.335769  0  0  -0.680501  0  3.329127  0  0  -0.568107  -0.64097  0  3.340103  0
N  N84  1  0.04283464  0.23210386  0.51086382  1  0  -0.510155  0  3.007786  0  0  -0.453935  0  3.279114  0  0  -0.477576  0  3.2862  0  0  -0.331671  -0.438251  0  3.274278  0
N  N85  1  0.45715906  0.48913143  0.76789495  1  0  -0.510242  0  3.008059  0  0  -0.454049  0  3.279338  0  0  -0.47769  0  3.28642  0  0  -0.331735  -0.438362  0  3.274504  0
N  N86  1  0.95717229  0.76789746  0.48913891  1  0  -0.510251  0  3.007764  0  0  -0.45397  0  3.279124  0  0  -0.477614  0  3.286209  0  0  -0.331621  -0.438284  0  3.274296  0
N  N87  1  0.54284107  0.51086969  0.23211092  1  0  -0.510128  0  3.007812  0  0  -0.453995  0  3.279173  0  0  -0.477637  0  3.286261  0  0  -0.331685  -0.438306  0  3.274342  0
N  N88  1  0.85524764  0.08277492  0.28533519  1  0  -0.5116  0  3.215938  0  0  -0.420639  0  3.484842  0  0  -0.450324  0  3.496587  0  0  -0.368216  -0.400911  0  3.476601  0
N  N89  1  0.64475122  0.71466262  0.91722673  1  0  -0.511477  0  3.215816  0  0  -0.420659  0  3.484814  0  0  -0.450338  0  3.496526  0  0  -0.36825  -0.400926  0  3.476564  0
N  N90  1  0.14476490  0.91722339  0.71466895  1  0  -0.511677  0  3.2157  0  0  -0.420709  0  3.484782  0  0  -0.450365  0  3.496446  0  0  -0.368208  -0.400985  0  3.476551  0
N  N91  1  0.35524856  0.28534066  0.08277477  1  0  -0.511558  0  3.215914  0  0  -0.420762  0  3.484933  0  0  -0.450441  0  3.496642  0  0  -0.368268  -0.401029  0  3.47669  0
O  O92  1  0.32976058  0.11060715  0.61155388  1  0  -0.655209  0  2.165866  0  0  -0.565712  0  2.42857  0  0  -0.599704  0  2.420975  0  0  -0.33533  -0.541909  0  2.432663  0
O  O93  1  0.17022538  0.38843756  0.88938497  1  0  -0.655252  0  2.165858  0  0  -0.565685  0  2.428569  0  0  -0.599689  0  2.420968  0  0  -0.335327  -0.541866  0  2.432649  0
O  O94  1  0.67024596  0.88939308  0.38845094  1  0  -0.655113  0  2.165891  0  0  -0.565644  0  2.428568  0  0  -0.59963  0  2.420952  0  0  -0.335292  -0.541846  0  2.432661  0
O  O95  1  0.82975674  0.61155863  0.11060714  1  0  -0.655262  0  2.16573  0  0  -0.565767  0  2.428494  0  0  -0.599763  0  2.420878  0  0  -0.335387  -0.541962  0  2.432587  0
O  O96  1  0.52477033  0.14135548  0.79317035  1  0  -0.65256  0  1.964691  0  0  -0.596345  0  2.196798  0  0  -0.621936  0  2.186413  0  0  -0.333496  -0.578396  0  2.203239  0
O  O97  1  0.97518879  0.20681773  0.85861587  1  0  -0.652314  0  1.964111  0  0  -0.596077  0  2.196257  0  0  -0.621669  0  2.185879  0  0  -0.333339  -0.578126  0  2.202684  0
O  O98  1  0.47523052  0.85864473  0.20683264  1  0  -0.652408  0  1.964591  0  0  -0.596226  0  2.19665  0  0  -0.621816  0  2.18626  0  0  -0.333431  -0.578279  0  2.203086  0
O  O99  1  0.02479739  0.79317449  0.14137525  1  0  -0.652482  0  1.964355  0  0  -0.59627  0  2.196477  0  0  -0.621858  0  2.186096  0  0  -0.33344  -0.578327  0  2.202917  0
