# generated using pymatgen
data_CdH8C12(NO2)2
_symmetry_space_group_name_H-M   'P 1'
_cell_length_a   6.84689030
_cell_length_b   15.53559198
_cell_length_c   15.53558300
_cell_angle_alpha   90.00765102
_cell_angle_beta   89.99996297
_cell_angle_gamma   90.00004028
_symmetry_Int_Tables_number   1
_chemical_formula_structural   CdH8C12(NO2)2
_chemical_formula_sum   'Cd4 H32 C48 N8 O16'
_cell_volume   1652.52762294
_cell_formula_units_Z   4
loop_
 _symmetry_equiv_pos_site_id
 _symmetry_equiv_pos_as_xyz
  1  'x, y, z'
loop_
 _atom_site_type_symbol
 _atom_site_label
 _atom_site_symmetry_multiplicity
 _atom_site_fract_x
 _atom_site_fract_y
 _atom_site_fract_z
 _atom_site_occupancy
 _atom_site_pbe_bader_charge
 _atom_site_pbe_bader_spin_density
 _atom_site_pbe_cm5_charge
 _atom_site_pbe_ddec_charge
 _atom_site_pbe_ddec_spin_density
 _atom_site_pbe_ddec_sum_bond_order
 _atom_site_pbe_magmom
Cd  Cd0  1  0.75000147  0.26649661  0.73350287  1  1.22778  0  0.764659  0.811257  0  2.176442  0
Cd  Cd1  1  0.25000001  0.73350324  0.26649662  1  1.227821  0  0.764675  0.811251  0  2.176435  0
Cd  Cd2  1  0.00000005  0.76647128  0.76647172  1  1.22786  0  0.764893  0.810986  0  2.177283  0
Cd  Cd3  1  0.49999926  0.23352785  0.23352784  1  1.22787  0  0.764883  0.810985  0  2.17726  0
H  H4  1  0.16639637  0.30275990  0.79420732  1  0.121865  0  0.116877  0.098214  0  1.046975  0
H  H5  1  0.66639636  0.69723993  0.20579220  1  0.121858  0  0.116871  0.098209  0  1.046991  0
H  H6  1  0.41642260  0.70580212  0.80273017  1  0.122056  0  0.116899  0.098275  0  1.046987  0
H  H7  1  0.91642196  0.29419715  0.19726991  1  0.121831  0  0.116901  0.098299  0  1.04695  0
H  H8  1  0.08357949  0.19726994  0.29419781  1  0.12206  0  0.116901  0.098289  0  1.046969  0
H  H9  1  0.58357892  0.80273050  0.70580302  1  0.121829  0  0.116899  0.098273  0  1.046969  0
H  H10  1  0.83360366  0.79420830  0.30276057  1  0.122089  0  0.116882  0.098268  0  1.046991  0
H  H11  1  0.33360512  0.20579158  0.69723954  1  0.122092  0  0.116871  0.098212  0  1.046983  0
H  H12  1  0.38892357  0.29498116  0.92163745  1  0.112595  0  0.112046  0.121758  0  1.002417  0
H  H13  1  0.88892230  0.70501809  0.07836200  1  0.112603  0  0.112049  0.12174  0  1.002456  0
H  H14  1  0.63882712  0.57832339  0.79498777  1  0.112303  0  0.111971  0.121605  0  1.002443  0
H  H15  1  0.13882671  0.42167643  0.20501175  1  0.112308  0  0.11196  0.12161  0  1.002434  0
H  H16  1  0.86117329  0.20501243  0.42167589  1  0.112322  0  0.111962  0.121618  0  1.002434  0
H  H17  1  0.36117293  0.79498810  0.57832421  1  0.112314  0  0.111967  0.121605  0  1.002442  0
H  H18  1  0.61107793  0.92163900  0.29498183  1  0.112606  0  0.112054  0.121741  0  1.002469  0
H  H19  1  0.11107771  0.07836210  0.70501770  1  0.112599  0  0.112062  0.121769  0  1.002436  0
H  H20  1  0.90395500  0.19798505  0.07019842  1  0.123798  0  0.115014  0.132597  0  1.00539  0
H  H21  1  0.40395561  0.80201614  0.92980232  1  0.123779  0  0.114999  0.132575  0  1.005414  0
H  H22  1  0.15385216  0.42977792  0.69796515  1  0.124563  0  0.115054  0.132805  0  1.005716  0
H  H23  1  0.65385181  0.57022191  0.30203437  1  0.124556  0  0.115055  0.132819  0  1.005731  0
H  H24  1  0.34614821  0.30203434  0.57022209  1  0.124558  0  0.115052  0.132814  0  1.005737  0
H  H25  1  0.84614641  0.69796490  0.42977738  1  0.12456  0  0.115037  0.132834  0  1.005706  0
H  H26  1  0.09604789  0.07019788  0.19798437  1  0.123779  0  0.114999  0.132587  0  1.005385  0
H  H27  1  0.59604447  0.92980193  0.80201581  1  0.123787  0  0.115002  0.132585  0  1.005404  0
H  H28  1  0.69895766  0.20814941  0.93764388  1  0.100585  0  0.115634  0.086801  0  1.008303  0
H  H29  1  0.19895514  0.79185043  0.06235498  1  0.100572  0  0.115626  0.086794  0  1.008309  0
H  H30  1  0.94889055  0.56235880  0.70819429  1  0.101212  0  0.115581  0.08656  0  1.008544  0
H  H31  1  0.44889151  0.43764047  0.29180578  1  0.101211  0  0.115584  0.086561  0  1.008546  0
H  H32  1  0.55110996  0.29180576  0.43764122  1  0.101198  0  0.115575  0.086552  0  1.008542  0
H  H33  1  0.05110803  0.70819403  0.56235833  1  0.101209  0  0.115582  0.086543  0  1.008553  0
H  H34  1  0.30104383  0.93764413  0.20814938  1  0.100559  0  0.115618  0.086773  0  1.008328  0
H  H35  1  0.80104195  0.06235509  0.79185074  1  0.100576  0  0.115614  0.086777  0  1.00836  0
C  C36  1  0.11346863  0.27932558  0.85607277  1  0.474907  0  0.043596  0.088516  0  3.934399  0
C  C37  1  0.61347021  0.72067359  0.14392741  1  0.474891  0  0.043585  0.088481  0  3.934345  0
C  C38  1  0.36347006  0.64392263  0.77933909  1  0.4748  0  0.043435  0.088254  0  3.934422  0
C  C39  1  0.86347095  0.35607726  0.22066165  1  0.474799  0  0.043445  0.088251  0  3.934406  0
C  C40  1  0.13653051  0.22066103  0.35607731  1  0.474738  0  0.043431  0.088235  0  3.934494  0
C  C41  1  0.63652999  0.77933879  0.64392286  1  0.474805  0  0.043436  0.088255  0  3.934379  0
C  C42  1  0.88653141  0.85607307  0.27932689  1  0.474912  0  0.043536  0.08832  0  3.934363  0
C  C43  1  0.38653127  0.14392683  0.72067321  1  0.474888  0  0.043625  0.088522  0  3.934454  0
C  C44  1  0.23714516  0.27472734  0.92679074  1  0.013243  0  -0.075789  -0.137212  0  3.934679  0
C  C45  1  0.73714393  0.72527186  0.07320940  1  0.013248  0  -0.075778  -0.137176  0  3.934702  0
C  C46  1  0.48701806  0.57318349  0.77477321  1  0.013218  0  -0.075473  -0.136752  0  3.934612  0
C  C47  1  0.98701614  0.42681708  0.22522750  1  0.013225  0  -0.075469  -0.136774  0  3.934667  0
C  C48  1  0.01298386  0.22522751  0.42681653  1  0.013277  0  -0.075478  -0.136804  0  3.934702  0
C  C49  1  0.51298344  0.77477227  0.57318303  1  0.013223  0  -0.075457  -0.13674  0  3.934621  0
C  C50  1  0.76285634  0.92679164  0.27472864  1  0.01326  0  -0.07577  -0.137117  0  3.934622  0
C  C51  1  0.26285608  0.07320950  0.72527149  1  0.013234  0  -0.075831  -0.137242  0  3.934813  0
C  C52  1  0.16380448  0.24465342  0.00516256  1  -0.064356  0  0.007143  0.025946  0  3.939318  0
C  C53  1  0.66380341  0.75534834  0.99483760  1  -0.064471  0  0.007177  0.026022  0  3.939199  0
C  C54  1  0.41363580  0.49481111  0.74469316  1  -0.063494  0  0.007224  0.025963  0  3.940177  0
C  C55  1  0.91363542  0.50518815  0.25530757  1  -0.063486  0  0.00721  0.025951  0  3.940236  0
C  C56  1  0.08636459  0.25530757  0.50518829  1  -0.063476  0  0.007228  0.025999  0  3.940185  0
C  C57  1  0.58636131  0.74469223  0.49481189  1  -0.063487  0  0.007282  0.02605  0  3.940071  0
C  C58  1  0.83619841  0.00516336  0.24465278  1  -0.064343  0  0.007167  0.025985  0  3.939235  0
C  C59  1  0.33619520  0.99483781  0.75534733  1  -0.064339  0  0.007188  0.026002  0  3.939254  0
C  C60  1  0.96704794  0.22047840  0.00980952  1  0.031309  0  -0.071559  -0.129326  0  3.898652  0
C  C61  1  0.46704842  0.77952281  0.99018927  1  0.031403  0  -0.071594  -0.129372  0  3.898722  0
C  C62  1  0.21693922  0.49015499  0.72049102  1  0.029946  0  -0.071608  -0.129552  0  3.899668  0
C  C63  1  0.71693589  0.50984486  0.27950913  1  0.029943  0  -0.071578  -0.129546  0  3.899642  0
C  C64  1  0.28306412  0.27950911  0.50984500  1  0.029944  0  -0.071575  -0.12954  0  3.899639  0
C  C65  1  0.78306081  0.72049075  0.49015513  1  0.029917  0  -0.071679  -0.129745  0  3.899497  0
C  C66  1  0.03295495  0.00980965  0.22047838  1  0.031304  0  -0.071571  -0.129346  0  3.898679  0
C  C67  1  0.53295311  0.99019013  0.77952246  1  0.031291  0  -0.07159  -0.129365  0  3.898699  0
C  C68  1  0.85296482  0.22606044  0.93586656  1  0.474133  0  0.047884  0.092614  0  3.949172  0
C  C69  1  0.35296519  0.77394073  0.06413290  1  0.474157  0  0.047877  0.092589  0  3.949167  0
C  C70  1  0.10291087  0.56411197  0.72610374  1  0.473223  0  0.04786  0.092819  0  3.94931  0
C  C71  1  0.60291035  0.43588784  0.27389644  1  0.473203  0  0.047867  0.092847  0  3.949332  0
C  C72  1  0.39709112  0.27389642  0.43588794  1  0.473201  0  0.047851  0.092816  0  3.949322  0
C  C73  1  0.89709063  0.72610347  0.56411215  1  0.473204  0  0.04789  0.092931  0  3.949183  0
C  C74  1  0.14703814  0.93586681  0.22605978  1  0.474106  0  0.047854  0.092568  0  3.949217  0
C  C75  1  0.64703629  0.06413237  0.77394039  1  0.474105  0  0.047887  0.092618  0  3.949217  0
C  C76  1  0.29448272  0.23993013  0.08277180  1  1.561233  0  0.192321  0.549465  0  4.232505  0
C  C77  1  0.79448470  0.76006974  0.91722832  1  1.561246  0  0.192261  0.549333  0  4.232313  0
C  C78  1  0.54429944  0.41721801  0.73992213  1  1.561249  0  0.192389  0.550215  0  4.231838  0
C  C79  1  0.04429922  0.58278178  0.26007871  1  1.56126  0  0.19231  0.550088  0  4.232126  0
C  C80  1  0.95570080  0.26007807  0.58278197  1  1.561258  0  0.19234  0.550127  0  4.231969  0
C  C81  1  0.45569767  0.73992120  0.41721939  1  1.561347  0  0.192353  0.550184  0  4.231926  0
C  C82  1  0.70551726  0.08277255  0.23993076  1  1.561249  0  0.192293  0.549418  0  4.232445  0
C  C83  1  0.20551391  0.91722793  0.76007003  1  1.561278  0  0.192245  0.549332  0  4.232351  0
N  N84  1  0.92479605  0.25475918  0.86034764  1  -1.257956  0  -0.331755  -0.246273  0  3.528877  0
N  N85  1  0.42479334  0.74523944  0.13965180  1  -1.257912  0  -0.331695  -0.246184  0  3.528682  0
N  N86  1  0.17477565  0.63964176  0.75477780  1  -1.25759  0  -0.331776  -0.246171  0  3.52864  0
N  N87  1  0.67477797  0.36035872  0.24522300  1  -1.257586  0  -0.331806  -0.246209  0  3.528658  0
N  N88  1  0.32522349  0.24522236  0.36035813  1  -1.257586  0  -0.331765  -0.246138  0  3.528652  0
N  N89  1  0.82522294  0.75477687  0.63964134  1  -1.257581  0  -0.331802  -0.246212  0  3.528608  0
N  N90  1  0.07520691  0.86034858  0.25476046  1  -1.257922  0  -0.33166  -0.2461  0  3.528725  0
N  N91  1  0.57520522  0.13965122  0.74524037  1  -1.257903  0  -0.331706  -0.246207  0  3.528792  0
O  O92  1  0.47745047  0.24567952  0.07293732  1  -1.152826  0  -0.329053  -0.546052  0  2.127891  0
O  O93  1  0.97745242  0.75432105  0.92706275  1  -1.15285  0  -0.32906  -0.54602  0  2.127754  0
O  O94  1  0.72726134  0.42708995  0.74568373  1  -1.152189  0  -0.329304  -0.546592  0  2.128107  0
O  O95  1  0.22726111  0.57290989  0.25431641  1  -1.152184  0  -0.329303  -0.546567  0  2.128156  0
O  O96  1  0.77273891  0.25431578  0.57290944  1  -1.152193  0  -0.329285  -0.546576  0  2.128161  0
O  O97  1  0.27273724  0.74568409  0.42709134  1  -1.152252  0  -0.329312  -0.546625  0  2.128161  0
O  O98  1  0.52254951  0.07293743  0.24567952  1  -1.152823  0  -0.329057  -0.546052  0  2.127902  0
O  O99  1  0.02254619  0.92706300  0.75432068  1  -1.15287  0  -0.329028  -0.545996  0  2.127726  0
O  O100  1  0.21134419  0.23097044  0.15622324  1  -1.152563  0  -0.324755  -0.54261  0  2.238049  0
O  O101  1  0.71134629  0.76903004  0.84377626  1  -1.152691  0  -0.324729  -0.542564  0  2.238042  0
O  O102  1  0.46126023  0.34375254  0.73089150  1  -1.153111  0  -0.324624  -0.542977  0  2.237574  0
O  O103  1  0.96126153  0.65624802  0.26910857  1  -1.153117  0  -0.324563  -0.542894  0  2.237764  0
O  O104  1  0.03873849  0.26910792  0.65624760  1  -1.152924  0  -0.324617  -0.54295  0  2.237676  0
O  O105  1  0.53873541  0.73089187  0.34375324  1  -1.152984  0  -0.324573  -0.542918  0  2.237606  0
O  O106  1  0.78865579  0.15622395  0.23096979  1  -1.152727  0  -0.324737  -0.542594  0  2.238003  0
O  O107  1  0.28865378  0.84377592  0.76902969  1  -1.152542  0  -0.324737  -0.542567  0  2.238034  0
