# generated using pymatgen
data_MnH8C10(N4O)2
_symmetry_space_group_name_H-M   'P 1'
_cell_length_a   6.36727934
_cell_length_b   7.08051374
_cell_length_c   7.60034270
_cell_angle_alpha   70.53098938
_cell_angle_beta   80.53346080
_cell_angle_gamma   87.19846160
_symmetry_Int_Tables_number   1
_chemical_formula_structural   MnH8C10(N4O)2
_chemical_formula_sum   'Mn1 H8 C10 N8 O2'
_cell_volume   318.65277606
_cell_formula_units_Z   1
loop_
 _symmetry_equiv_pos_site_id
 _symmetry_equiv_pos_as_xyz
  1  'x, y, z'
loop_
 _atom_site_type_symbol
 _atom_site_label
 _atom_site_symmetry_multiplicity
 _atom_site_fract_x
 _atom_site_fract_y
 _atom_site_fract_z
 _atom_site_occupancy
 _atom_site_hle17_ddec_charge
 _atom_site_hle17_ddec_spin_density
 _atom_site_hle17_ddec_sum_bond_order
 _atom_site_hle17_magmom
 _atom_site_hse06_10hf_ddec_charge
 _atom_site_hse06_10hf_ddec_spin_density
 _atom_site_hse06_10hf_ddec_sum_bond_order
 _atom_site_hse06_10hf_magmom
 _atom_site_hse06_ddec_charge
 _atom_site_hse06_ddec_spin_density
 _atom_site_hse06_ddec_sum_bond_order
 _atom_site_hse06_magmom
 _atom_site_pbe_cm5_charge
 _atom_site_pbe_ddec_charge
 _atom_site_pbe_ddec_spin_density
 _atom_site_pbe_ddec_sum_bond_order
 _atom_site_pbe_magmom
Mn  Mn0  1  0.00000315  0.99999113  0.00001161  1  1.185512  4.742281  1.994559  4.632  1.047397  4.631064  2.533591  4.453  1.091859  4.700409  2.460913  4.542  0.674894  1.015049  4.550869  2.586788  4.352
H  H1  1  0.66833768  0.37378015  0.91946875  1  0.146089  -0.000205  0.938838  0.0  0.164941  -8.7e-05  0.998144  0.0  0.167124  -0.000198  0.997447  0.0  0.109777  0.162966  5.3e-05  0.999008  0.001
H  H2  1  0.33168879  0.62622816  0.08050422  1  0.146078  -0.000204  0.938546  0.0  0.164902  -8.5e-05  0.997957  0.0  0.167086  -0.000198  0.997264  0.0  0.109716  0.16292  5.5e-05  0.998833  0.001
H  H3  1  0.58579031  0.61995888  0.79173553  1  0.1318  -2.4e-05  0.942551  0.0  0.153242  3.3e-05  0.996795  0.0  0.154377  1.5e-05  0.997611  0.0  0.100686  0.152217  4.8e-05  0.996404  0.0
H  H4  1  0.41423447  0.38003035  0.20827798  1  0.131728  -3.4e-05  0.942277  0.0  0.153219  3.3e-05  0.996495  0.0  0.154356  1.5e-05  0.997315  0.0  0.100655  0.152191  4.8e-05  0.9961  0.0
H  H5  1  0.80865415  0.58498830  0.91532811  1  0.156646  -0.000306  0.942756  0.0  0.169319  -0.000181  1.011077  0.0  0.172627  -0.000315  1.009383  0.0  0.108213  0.166768  -2.1e-05  1.012285  0.0
H  H6  1  0.19137228  0.41499448  0.08464776  1  0.156503  -0.000304  0.942657  0.0  0.169243  -0.00018  1.010941  0.0  0.172564  -0.000315  1.009234  0.0  0.108182  0.16669  -2e-05  1.012145  0.0
H  H7  1  0.32248927  0.30256189  0.54942391  1  0.136663  -0.000438  0.959211  0.0  0.138514  1e-05  1.029225  0.0  0.142997  -9.3e-05  1.025484  0.0  0.133468  0.13492  0.000132  1.032726  0.0
H  H8  1  0.67750689  0.69742696  0.45057126  1  0.136738  -0.000457  0.959506  0.0  0.138563  1e-05  1.029509  0.0  0.143041  -9.2e-05  1.025775  0.0  0.133469  0.134975  0.000133  1.032999  0.0
C  C9  1  0.86444306  0.51617493  0.65802534  1  0.188797  0.004818  3.68009  0.003  0.181952  0.007682  3.949375  0.005  0.188243  0.005444  3.964195  0.004  0.119933  0.177014  0.010258  3.941227  0.006
C  C10  1  0.13548636  0.48386129  0.34194012  1  0.188696  0.004808  3.682641  0.003  0.181862  0.007688  3.951885  0.005  0.188146  0.005446  3.966721  0.004  0.120056  0.176926  0.010258  3.943736  0.006
C  C11  1  0.72319195  0.52545158  0.83040937  1  -0.369443  -0.000468  3.683658  0.0  -0.44698  7.3e-05  3.918061  0.0  -0.450717  -0.000121  3.924226  0.0  -0.232112  -0.444013  0.000298  3.914653  0.0
C  C12  1  0.27675636  0.47455430  0.16965136  1  -0.369307  -0.000445  3.68416  0.0  -0.446849  7.4e-05  3.918401  0.0  -0.450613  -0.00012  3.924592  0.0  -0.231832  -0.443863  0.0003  3.914976  0.0
C  C13  1  0.17920569  0.39048472  0.52255363  1  -0.08059  0.00772  3.58119  0.006  -0.13483  0.012261  3.8613  0.008  -0.12884  0.008563  3.868388  0.006  0.039348  -0.140815  0.017462  3.859657  0.011
C  C14  1  0.82079545  0.60954835  0.47736489  1  -0.081121  0.007721  3.581686  0.006  -0.135339  0.012249  3.861947  0.008  -0.129369  0.008545  3.869053  0.006  0.039383  -0.141311  0.017436  3.860297  0.011
C  C15  1  0.26160300  0.87628809  0.64281954  1  0.496874  0.016299  3.975685  0.017  0.459594  0.021298  4.262961  0.021  0.483268  0.018633  4.276907  0.019  0.309996  0.443751  0.023614  4.252068  0.023
C  C16  1  0.73842019  0.12370877  0.35720360  1  0.496757  0.01638  3.975584  0.017  0.459484  0.021288  4.262825  0.021  0.483154  0.018643  4.276775  0.019  0.309871  0.443641  0.023615  4.251935  0.023
C  C17  1  0.28395109  0.91110465  0.32785704  1  0.497695  0.023589  3.96442  0.023  0.462735  0.028422  4.24461  0.027  0.485526  0.025352  4.260579  0.025  0.311783  0.447633  0.031253  4.232066  0.03
C  C18  1  0.71605775  0.08887855  0.67216320  1  0.497396  0.02363  3.964309  0.024  0.462414  0.028409  4.244525  0.027  0.485202  0.025348  4.260488  0.025  0.311607  0.447314  0.031246  4.231977  0.03
N  N19  1  0.04809618  0.40506323  0.67846487  1  0.240469  0.009827  3.690121  0.011  0.280865  0.01802  3.959687  0.02  0.284203  0.012245  3.98124  0.014  -0.104045  0.277309  0.026845  3.94493  0.029
N  N20  1  0.95191118  0.59492378  0.32149646  1  0.240828  0.009831  3.692128  0.011  0.281112  0.017989  3.9617  0.02  0.284457  0.012237  3.983256  0.014  -0.104185  0.277544  0.026813  3.946959  0.029
N  N21  1  0.20424214  0.90310067  0.78814744  1  -0.588319  0.021964  2.84025  0.005  -0.54926  0.029901  3.13777  0.008  -0.570247  0.025445  3.139287  0.004  -0.361953  -0.533697  0.034256  3.136188  0.011
N  N22  1  0.79578108  0.09691562  0.21186684  1  -0.588144  0.021866  2.840216  0.005  -0.549077  0.029909  3.137719  0.008  -0.57006  0.025433  3.139236  0.004  -0.361765  -0.533512  0.034245  3.136141  0.011
N  N23  1  0.34094591  0.83325985  0.49272041  1  -0.476254  0.008095  3.331856  0.007  -0.418076  0.012699  3.592023  0.01  -0.444188  0.01031  3.601169  0.008  -0.307852  -0.398994  0.015288  3.584184  0.012
N  N24  1  0.65906611  0.16672945  0.50730535  1  -0.476091  0.008088  3.331664  0.007  -0.417876  0.012681  3.591793  0.01  -0.443994  0.0103  3.600964  0.008  -0.307813  -0.398795  0.015285  3.583956  0.012
N  N25  1  0.24471336  0.96976081  0.17226012  1  -0.581898  0.014496  2.81553  -0.002  -0.541096  0.024144  3.102817  0.002  -0.562148  0.018632  3.105698  -0.002  -0.366103  -0.525455  0.029505  3.099952  0.006
N  N26  1  0.75528595  0.03023587  0.82775975  1  -0.581777  0.014447  2.815345  -0.002  -0.540982  0.024165  3.102656  0.002  -0.562025  0.018627  3.105523  -0.002  -0.366027  -0.525338  0.029506  3.099783  0.006
O  O27  1  0.09575155  0.31118969  0.84711537  1  -0.491104  0.023523  1.833388  0.012  -0.444491  0.030218  2.08478  0.015  -0.468028  0.025909  2.080451  0.012  -0.198666  -0.427008  0.035612  2.087324  0.021
O  O28  1  0.90423658  0.68879349  0.15291297  1  -0.491223  0.023501  1.834245  0.012  -0.444501  0.030214  2.085592  0.015  -0.468004  0.025898  2.081232  0.012  -0.198683  -0.427028  0.035605  2.088148  0.021
