# generated using pymatgen
data_Cu3H6C15N7
_symmetry_space_group_name_H-M   'P 1'
_cell_length_a   23.35884960
_cell_length_b   23.68327706
_cell_length_c   23.74103520
_cell_angle_alpha   90.04081807
_cell_angle_beta   89.96610134
_cell_angle_gamma   90.12082537
_symmetry_Int_Tables_number   1
_chemical_formula_structural   Cu3H6C15N7
_chemical_formula_sum   'Cu12 H24 C60 N28'
_cell_volume   13133.84076333
_cell_formula_units_Z   4
loop_
 _symmetry_equiv_pos_site_id
 _symmetry_equiv_pos_as_xyz
  1  'x, y, z'
loop_
 _atom_site_type_symbol
 _atom_site_label
 _atom_site_symmetry_multiplicity
 _atom_site_fract_x
 _atom_site_fract_y
 _atom_site_fract_z
 _atom_site_occupancy
 _atom_site_pbe_bader_charge
 _atom_site_pbe_bader_spin_density
 _atom_site_pbe_cm5_charge
 _atom_site_pbe_ddec_charge
 _atom_site_pbe_ddec_spin_density
 _atom_site_pbe_ddec_sum_bond_order
 _atom_site_pbe_magmom
Cu  Cu0  1  0.58110154  0.33778862  0.43880445  1  0.544734  0  0.489902  0.21007  0  2.106602  0
Cu  Cu1  1  0.66434233  0.44169247  0.41680042  1  0.546588  0  0.489516  0.209936  0  2.100815  0
Cu  Cu2  1  0.55904129  0.41822316  0.33414004  1  0.546098  0  0.489762  0.209443  0  2.102807  0
Cu  Cu3  1  0.41919112  0.83864243  0.06019377  1  0.545552  0  0.490108  0.209846  0  2.108568  0
Cu  Cu4  1  0.33639967  0.94231564  0.08227676  1  0.546205  0  0.489937  0.20988  0  2.10335  0
Cu  Cu5  1  0.44209404  0.91949335  0.16450795  1  0.545925  0  0.490114  0.210188  0  2.102798  0
Cu  Cu6  1  0.08148621  0.16204900  0.56151399  1  0.547576  0  0.489977  0.209469  0  2.107645  0
Cu  Cu7  1  0.16473367  0.05881803  0.58376061  1  0.547221  0  0.489915  0.210299  0  2.101353  0
Cu  Cu8  1  0.05880271  0.08167530  0.66614573  1  0.547914  0  0.488756  0.209692  0  2.097722  0
Cu  Cu9  1  0.91879530  0.66128965  0.93975261  1  0.547521  0  0.49039  0.209892  0  2.109883  0
Cu  Cu10  1  0.83524819  0.55770060  0.91749948  1  0.547869  0  0.489243  0.210606  0  2.09866  0
Cu  Cu11  1  0.94139725  0.58064433  0.83549640  1  0.545955  0  0.4894  0.209976  0  2.100458  0
H  H12  1  0.63773298  0.28571299  0.54959871  1  0.097629  0  0.126425  0.120191  0  0.979368  0
H  H13  1  0.75135991  0.42718727  0.51842417  1  0.119519  0  0.125831  0.118899  0  0.980078  0
H  H14  1  0.44709259  0.36025196  0.28181285  1  0.138271  0  0.126194  0.120564  0  0.980385  0
H  H15  1  0.47915203  0.25061589  0.42437017  1  0.099328  0  0.126218  0.119254  0  0.980255  0
H  H16  1  0.71740959  0.55193018  0.35941620  1  0.110335  0  0.126282  0.120372  0  0.979906  0
H  H17  1  0.57466258  0.51858490  0.24768437  1  0.090343  0  0.126087  0.119848  0  0.9783  0
H  H18  1  0.36213897  0.78614378  0.94961805  1  0.111192  0  0.126358  0.12051  0  0.979697  0
H  H19  1  0.24895708  0.92749040  0.98094288  1  0.121165  0  0.125958  0.119361  0  0.979746  0
H  H20  1  0.55354109  0.86112491  0.21698573  1  0.120739  0  0.126052  0.120251  0  0.980379  0
H  H21  1  0.52038553  0.75119452  0.07465407  1  0.097954  0  0.12631  0.119635  0  0.979035  0
H  H22  1  0.28323157  0.05200044  0.13989906  1  0.079888  0  0.126006  0.119987  0  0.979321  0
H  H23  1  0.42618205  0.01965834  0.25145249  1  0.09397  0  0.12583  0.119247  0  0.979009  0
H  H24  1  0.13801316  0.21408116  0.45049755  1  0.098116  0  0.126397  0.120715  0  0.979533  0
H  H25  1  0.25175866  0.07329754  0.48186759  1  0.11794  0  0.125702  0.118745  0  0.980118  0
H  H26  1  0.94655382  0.13961233  0.71805423  1  0.128941  0  0.126232  0.120651  0  0.98001  0
H  H27  1  0.97969094  0.24889901  0.57536871  1  0.103918  0  0.126127  0.119384  0  0.980224  0
H  H28  1  0.21758800  0.94895860  0.64113376  1  0.113556  0  0.1263  0.120712  0  0.980414  0
H  H29  1  0.07445148  0.98132067  0.75264736  1  0.126941  0  0.125918  0.11935  0  0.979398  0
H  H30  1  0.86200216  0.71377387  0.05023204  1  0.110528  0  0.126156  0.120203  0  0.980165  0
H  H31  1  0.74777025  0.57277493  0.01893326  1  0.100427  0  0.126216  0.119814  0  0.979841  0
H  H32  1  0.05336288  0.63896092  0.78308303  1  0.122638  0  0.126271  0.120412  0  0.980588  0
H  H33  1  0.02050983  0.74874995  0.92553318  1  0.096424  0  0.125983  0.119385  0  0.978555  0
H  H34  1  0.78189429  0.44781664  0.85951714  1  0.099442  0  0.125962  0.119699  0  0.979805  0
H  H35  1  0.92553651  0.48057422  0.74859434  1  0.103481  0  0.126114  0.119754  0  0.979777  0
C  C36  1  0.65979804  0.32286722  0.53388305  1  0.399832  0  0.01631  -0.046258  0  3.922064  0
C  C37  1  0.70903512  0.34991318  0.55508956  1  0.168275  0  -0.028641  0.062013  0  4.200836  0
C  C38  1  0.71801565  0.39526114  0.51767960  1  0.400461  0  0.01794  -0.042707  0  3.923365  0
C  C39  1  0.46306697  0.33919682  0.31917943  1  0.413643  0  0.016927  -0.047989  0  3.924951  0
C  C40  1  0.44182760  0.29081927  0.34666683  1  0.125077  0  -0.028638  0.063086  0  4.199699  0
C  C41  1  0.47975721  0.28304380  0.39213203  1  0.458294  0  0.01791  -0.043231  0  3.923929  0
C  C42  1  0.67993011  0.53569554  0.33779983  1  0.4136  0  0.01654  -0.04716  0  3.924263  0
C  C43  1  0.65265085  0.55630798  0.28912660  1  0.125724  0  -0.028706  0.063966  0  4.199332  0
C  C44  1  0.60689053  0.51840113  0.28056302  1  0.453718  0  0.017043  -0.045344  0  3.92335  0
C  C45  1  0.34020420  0.82328318  0.96533176  1  0.448972  0  0.016095  -0.047193  0  3.92429  0
C  C46  1  0.29103369  0.85023120  0.94416730  1  0.078583  0  -0.028588  0.06178  0  4.202488  0
C  C47  1  0.28220098  0.89559949  0.98159917  1  0.410106  0  0.017853  -0.042827  0  3.923075  0
C  C48  1  0.53735900  0.84009211  0.17964649  1  0.415391  0  0.016655  -0.047093  0  3.924292  0
C  C49  1  0.55804322  0.79141109  0.15238279  1  0.159633  0  -0.029217  0.062909  0  4.199981  0
C  C50  1  0.52014180  0.78374528  0.10682970  1  0.427595  0  0.017654  -0.043641  0  3.922349  0
C  C51  1  0.32084460  0.03608602  0.16141337  1  0.425566  0  0.016845  -0.04671  0  3.923907  0
C  C52  1  0.34791458  0.05667069  0.21028165  1  0.125465  0  -0.029267  0.06211  0  4.202482  0
C  C53  1  0.39399357  0.01928524  0.21855447  1  0.446024  0  0.01762  -0.043381  0  3.923251  0
C  C54  1  0.16014765  0.17713812  0.46630734  1  0.401115  0  0.016395  -0.047318  0  3.924118  0
C  C55  1  0.20925264  0.15015963  0.44496900  1  0.116902  0  -0.028794  0.06231  0  4.202577  0
C  C56  1  0.21843040  0.10509046  0.48259877  1  0.399261  0  0.017678  -0.043205  0  3.924103  0
C  C57  1  0.96277505  0.16055653  0.68067893  1  0.424528  0  0.016393  -0.048268  0  3.9237  0
C  C58  1  0.94188605  0.20889717  0.65304356  1  0.073912  0  -0.028503  0.063894  0  4.198921  0
C  C59  1  0.98003439  0.21655981  0.60768145  1  0.456403  0  0.017548  -0.043829  0  3.926094  0
C  C60  1  0.18001699  0.96492287  0.66271531  1  0.435906  0  0.016639  -0.048112  0  3.926052  0
C  C61  1  0.15262954  0.94411838  0.71131881  1  0.085116  0  -0.029111  0.063696  0  4.201123  0
C  C62  1  0.10677731  0.98175292  0.71983213  1  0.40378  0  0.017331  -0.044604  0  3.923784  0
C  C63  1  0.83979165  0.67671016  0.03452402  1  0.435626  0  0.016174  -0.047387  0  3.922233  0
C  C64  1  0.79041808  0.64989683  0.05570700  1  0.098854  0  -0.028303  0.064526  0  4.198405  0
C  C65  1  0.78126699  0.60456357  0.01825667  1  0.461251  0  0.017077  -0.04593  0  3.924125  0
C  C66  1  0.03720725  0.65995446  0.82044321  1  0.406545  0  0.016597  -0.046942  0  3.924017  0
C  C67  1  0.05806881  0.70862291  0.84774745  1  0.167968  0  -0.02902  0.061869  0  4.199147  0
C  C68  1  0.02015081  0.71622528  0.89332382  1  0.423171  0  0.018026  -0.04291  0  3.921412  0
C  C69  1  0.81964763  0.46385189  0.83815433  1  0.371391  0  0.016839  -0.04556  0  3.921973  0
C  C70  1  0.84701829  0.44328445  0.78943749  1  0.179461  0  -0.028792  0.062576  0  4.199372  0
C  C71  1  0.89315112  0.48086213  0.78134596  1  0.453929  0  0.017295  -0.045226  0  3.924392  0
C  C72  1  0.25668023  0.83609824  0.89752306  1  0.265586  0  -0.064823  -0.173284  0  4.226984  0
C  C73  1  0.22275837  0.82758114  0.85960504  1  0.020141  0  0.053968  -0.006565  0  4.162673  0
C  C74  1  0.74333957  0.33587935  0.60177912  1  0.282457  0  -0.065166  -0.173488  0  4.228687  0
C  C75  1  0.77719385  0.32737840  0.63971541  1  -0.03594  0  0.054128  -0.006967  0  4.165654  0
C  C76  1  0.75613653  0.66411860  0.10238789  1  0.264485  0  -0.065042  -0.174224  0  4.22843  0
C  C77  1  0.72235275  0.67276629  0.14039904  1  -0.024688  0  0.054516  -0.0057  0  4.16386  0
C  C78  1  0.24323192  0.16401921  0.39795214  1  0.261248  0  -0.065021  -0.173351  0  4.229834  0
C  C79  1  0.27676323  0.17234897  0.35964345  1  0.041583  0  0.053856  -0.00697  0  4.16627  0
C  C80  1  0.10478444  0.74370274  0.83395865  1  0.184571  0  -0.065058  -0.173632  0  4.226049  0
C  C81  1  0.14230098  0.77851284  0.82616288  1  0.03261  0  0.054363  -0.006332  0  4.162609  0
C  C82  1  0.39482132  0.25606228  0.33309496  1  0.228796  0  -0.065381  -0.174066  0  4.225302  0
C  C83  1  0.35702940  0.22144411  0.32571571  1  -0.006288  0  0.054429  -0.005972  0  4.164093  0
C  C84  1  0.89503014  0.24377072  0.66641344  1  0.261736  0  -0.06501  -0.173955  0  4.225138  0
C  C85  1  0.85743597  0.27848209  0.67363697  1  0.011878  0  0.054414  -0.006236  0  4.162066  0
C  C86  1  0.60461238  0.75640497  0.16617390  1  0.168143  0  -0.065316  -0.174287  0  4.227882  0
C  C87  1  0.64207397  0.72172112  0.17404365  1  0.073858  0  0.054404  -0.006301  0  4.164242  0
C  C88  1  0.16664048  0.89757106  0.74544726  1  0.280679  0  -0.065135  -0.17405  0  4.229777  0
C  C89  1  0.17465542  0.85971800  0.77909310  1  -0.00084  0  0.05457  -0.006394  0  4.167365  0
C  C90  1  0.66663539  0.60291198  0.25495470  1  0.284926  0  -0.065574  -0.175649  0  4.228144  0
C  C91  1  0.67447366  0.64074421  0.22119919  1  -0.03263  0  0.054473  -0.00512  0  4.166038  0
C  C92  1  0.33334919  0.10282521  0.24479933  1  0.203387  0  -0.065558  -0.173995  0  4.229438  0
C  C93  1  0.32464860  0.14028908  0.27877144  1  0.042061  0  0.054976  -0.00594  0  4.167006  0
C  C94  1  0.83283955  0.39699887  0.75482802  1  0.203701  0  -0.065384  -0.173831  0  4.227314  0
C  C95  1  0.82481378  0.35950176  0.72069386  1  0.037826  0  0.054418  -0.006561  0  4.164421  0
N  N96  1  0.67740840  0.39502430  0.47760629  1  -0.769026  0  -0.33573  -0.140181  0  3.775948  0
N  N97  1  0.64141291  0.34997596  0.48746784  1  -0.770496  0  -0.335382  -0.140652  0  3.769264  0
N  N98  1  0.52008611  0.32357910  0.39159549  1  -0.791235  0  -0.337281  -0.141558  0  3.777196  0
N  N99  1  0.50995276  0.35829821  0.34619990  1  -0.784421  0  -0.33504  -0.138749  0  3.766762  0
N  N100  1  0.60706921  0.47867526  0.32094119  1  -0.772054  0  -0.335657  -0.139478  0  3.776483  0
N  N101  1  0.65251311  0.48922586  0.35638590  1  -0.78542  0  -0.334389  -0.139449  0  3.767267  0
N  N102  1  0.32286538  0.89548019  0.02161032  1  -0.7635  0  -0.33602  -0.140593  0  3.776382  0
N  N103  1  0.35873008  0.85048366  0.01171464  1  -0.793971  0  -0.33548  -0.14019  0  3.769476  0
N  N104  1  0.48032769  0.82460934  0.10716711  1  -0.772825  0  -0.33662  -0.141118  0  3.780218  0
N  N105  1  0.49078595  0.85945472  0.15246941  1  -0.788814  0  -0.334816  -0.139432  0  3.768286  0
N  N106  1  0.39417440  0.97982470  0.17785859  1  -0.776558  0  -0.335531  -0.140259  0  3.776309  0
N  N107  1  0.34864425  0.99006292  0.14250550  1  -0.757518  0  -0.334793  -0.139179  0  3.769328  0
N  N108  1  0.17802816  0.10541470  0.52290659  1  -0.770038  0  -0.335422  -0.139484  0  3.776634  0
N  N109  1  0.14198360  0.15024237  0.51298467  1  -0.770101  0  -0.335579  -0.140306  0  3.770115  0
N  N110  1  0.02016891  0.17601872  0.60840095  1  -0.800926  0  -0.3362  -0.140005  0  3.778125  0
N  N111  1  0.00969415  0.14138420  0.65383231  1  -0.78845  0  -0.334799  -0.140043  0  3.764653  0
N  N112  1  0.10699667  0.02152221  0.67949066  1  -0.770854  0  -0.334924  -0.139433  0  3.774848  0
N  N113  1  0.15258692  0.01126379  0.64414040  1  -0.78559  0  -0.335041  -0.139946  0  3.768575  0
N  N114  1  0.82196299  0.60457866  0.97821573  1  -0.80608  0  -0.335322  -0.139454  0  3.773089  0
N  N115  1  0.85814612  0.64947114  0.98812082  1  -0.77372  0  -0.335453  -0.140303  0  3.769135  0
N  N116  1  0.98015256  0.67536855  0.89294037  1  -0.76973  0  -0.336883  -0.140981  0  3.779916  0
N  N117  1  0.99051217  0.64056402  0.84760190  1  -0.786061  0  -0.334804  -0.139739  0  3.76677  0
N  N118  1  0.89312065  0.52038009  0.82198452  1  -0.770838  0  -0.335514  -0.138936  0  3.772903  0
N  N119  1  0.84737139  0.51001166  0.85715216  1  -0.783955  0  -0.334559  -0.141172  0  3.766068  0
N  N120  1  0.18294389  0.81905181  0.81866542  1  -1.305115  0  -0.196785  0.116533  0  4.026718  0
N  N121  1  0.81681907  0.31894737  0.68083504  1  -1.2985  0  -0.196496  0.116907  0  4.025539  0
N  N122  1  0.68269041  0.68134328  0.18149447  1  -1.297356  0  -0.196731  0.115792  0  4.026824  0
N  N123  1  0.31631853  0.18094115  0.31842190  1  -1.299053  0  -0.196554  0.11613  0  4.028314  0
