# generated using pymatgen
data_Zn2H38C45(N3O4)2
_symmetry_space_group_name_H-M   'P 1'
_cell_length_a   9.86086868
_cell_length_b   10.92499282
_cell_length_c   18.93838187
_cell_angle_alpha   88.06160133
_cell_angle_beta   89.53451588
_cell_angle_gamma   89.20382180
_symmetry_Int_Tables_number   1
_chemical_formula_structural   Zn2H38C45(N3O4)2
_chemical_formula_sum   'Zn2 H38 C45 N6 O8'
_cell_volume   2038.80620746
_cell_formula_units_Z   1
loop_
 _symmetry_equiv_pos_site_id
 _symmetry_equiv_pos_as_xyz
  1  'x, y, z'
loop_
 _atom_site_type_symbol
 _atom_site_label
 _atom_site_symmetry_multiplicity
 _atom_site_fract_x
 _atom_site_fract_y
 _atom_site_fract_z
 _atom_site_occupancy
 _atom_site_pbe_bader_charge
 _atom_site_pbe_bader_spin_density
 _atom_site_pbe_cm5_charge
 _atom_site_pbe_ddec_charge
 _atom_site_pbe_ddec_spin_density
 _atom_site_pbe_ddec_sum_bond_order
 _atom_site_pbe_magmom
Zn  Zn0  1  0.65548494  0.51117567  0.49739772  1  1.293859  0  0.681601  0.847053  0  2.349402  0
Zn  Zn1  1  0.36275406  0.50649727  0.50057104  1  1.286851  0  0.674365  0.835446  0  2.378108  0
H  H2  1  0.72574966  0.43817690  0.72557353  1  0.118871  0  0.106959  0.113662  0  0.999684  0
H  H3  1  0.27971865  0.42672093  0.85041530  1  0.124631  0  0.106945  0.106058  0  1.010476  0
H  H4  1  0.29190133  0.47180824  0.71967488  1  0.097924  0  0.108383  0.114629  0  0.992569  0
H  H5  1  0.67291343  0.48531212  0.13355410  1  0.064685  0  0.104515  0.101363  0  1.02081  0
H  H6  1  0.69136186  0.55073474  0.25795942  1  0.090033  0  0.105389  0.10983  0  0.994942  0
H  H7  1  0.29233828  0.41419227  0.30108418  1  0.076395  0  0.104935  0.113015  0  0.998881  0
H  H8  1  0.29919223  0.12832999  0.48829201  1  0.105279  0  0.103718  0.108516  0  1.01182  0
H  H9  1  0.63441035  0.75867430  0.63490149  1  0.043651  0  0.091437  0.132822  0  1.002321  0
H  H10  1  0.77938337  0.69147738  0.59687428  1  0.06479  0  0.089231  0.133932  0  1.025508  0
H  H11  1  0.79758200  0.79829632  0.66438399  1  0.029142  0  0.088463  0.120598  0  0.995193  0
H  H12  1  0.32887697  0.07565107  0.78635305  1  0.014365  0  0.083006  0.107016  0  1.007555  0
H  H13  1  0.77770011  0.20263545  0.46681928  1  0.089649  0  0.102665  0.116914  0  1.026271  0
H  H14  1  0.32807694  0.96279139  0.72091484  1  0.020415  0  0.08334  0.107711  0  1.00685  0
H  H15  1  0.47197643  0.05635727  0.73021117  1  -0.01427  0  0.085653  0.114149  0  1.003147  0
H  H16  1  0.33778757  0.13025608  0.62557748  1  -0.001383  0  0.084174  0.07702  0  1.018291  0
H  H17  1  0.33822343  0.24180261  0.69054632  1  0.011957  0  0.0853  0.077695  0  1.018487  0
H  H18  1  0.11057735  0.16469902  0.73521975  1  0.055513  0  0.098156  0.095862  0  0.971285  0
H  H19  1  0.10868468  0.06041169  0.66744334  1  0.040811  0  0.097231  0.094573  0  0.974501  0
H  H20  1  0.73969421  0.19370204  0.67784863  1  0.058125  0  0.097084  0.139329  0  0.990516  0
H  H21  1  0.86659847  0.07730827  0.67221846  1  0.070526  0  0.09456  0.131516  0  1.016077  0
H  H22  1  0.87546908  0.18550925  0.73931808  1  0.025003  0  0.09637  0.131404  0  0.990894  0
H  H23  1  0.81627642  0.74348895  0.44685930  1  0.125308  0  0.106924  0.168377  0  1.008797  0
H  H24  1  0.98428840  0.08350183  0.49977483  1  0.041982  0  0.098127  0.096384  0  0.998843  0
H  H25  1  0.95055217  0.73002158  0.38357798  1  0.041751  0  0.101369  0.144315  0  0.985081  0
H  H26  1  0.80232932  0.63713885  0.37958894  1  0.110551  0  0.106928  0.169451  0  1.001768  0
H  H27  1  0.01961261  0.26529256  0.08927183  1  0.024336  0  0.086081  0.114172  0  0.997086  0
H  H28  1  0.96208849  0.26305936  0.17838345  1  0.041294  0  0.082074  0.105388  0  1.005218  0
H  H29  1  0.90718319  0.38133071  0.11835140  1  0.029791  0  0.082965  0.110195  0  1.021133  0
H  H30  1  0.08950724  0.46167791  0.19632795  1  -0.009032  0  0.082064  0.068597  0  0.983276  0
H  H31  1  0.14837707  0.45760555  0.10798758  1  0.039338  0  0.084154  0.071388  0  1.002147  0
H  H32  1  0.25956813  0.25267005  0.13589980  1  0.058661  0  0.092056  0.088414  0  1.013961  0
H  H33  1  0.20739079  0.26471846  0.22514408  1  0.039641  0  0.091551  0.09069  0  0.976558  0
H  H34  1  0.96179173  0.89393551  0.57624019  1  0.044737  0  0.097268  0.097933  0  1.000025  0
H  H35  1  0.29169323  0.89757208  0.50090881  1  0.098418  0  0.103141  0.108766  0  1.001536  0
H  H36  1  0.14637072  0.63875061  0.43010852  1  0.114669  0  0.13181  0.116509  0  0.975712  0
H  H37  1  0.25715436  0.31958190  0.58570821  1  0.149753  0  0.110982  0.131306  0  1.063763  0
H  H38  1  0.75447730  0.34540330  0.59185904  1  0.13919  0  0.110539  0.13363  0  1.057897  0
H  H39  1  0.71431220  0.38731711  0.85583882  1  0.101783  0  0.106184  0.104167  0  1.013047  0
C  C40  1  0.50952585  0.27115982  0.48778513  1  1.528326  0  0.21692  0.592012  0  4.159161  0
C  C41  1  0.47263177  0.41127040  0.14715786  1  -0.029421  0  -0.005456  -0.04193  0  3.956039  0
C  C42  1  0.76948309  0.11259392  0.49225586  1  0.007454  0  -0.097667  -0.136841  0  3.991178  0
C  C43  1  0.51430139  0.47857527  0.63674195  1  1.558392  0  0.216616  0.582411  0  4.17979  0
C  C44  1  0.88412913  0.04668022  0.51176329  1  -0.039401  0  -0.098756  -0.08224  0  4.077978  0
C  C45  1  0.87161746  0.93719372  0.55256491  1  -0.001668  0  -0.101668  -0.166089  0  4.023356  0
C  C46  1  0.74657413  0.88376603  0.56501380  1  -0.05095  0  -0.006215  0.126922  0  3.9455  0
C  C47  1  0.62889761  0.93990398  0.53280889  1  -0.028692  0  0.002437  0.004872  0  3.879115  0
C  C48  1  0.63838179  0.06457404  0.50615907  1  -0.04116  0  0.000856  0.066799  0  3.941095  0
C  C49  1  0.51458252  0.13355196  0.49430716  1  -6.8e-05  0  -0.011683  -0.076474  0  3.906892  0
C  C50  1  0.39139949  0.07398413  0.49679012  1  -0.070514  0  -0.085572  -0.095532  0  4.019072  0
C  C51  1  0.50926676  0.45654415  0.71519901  1  -0.06294  0  -0.011568  -0.025502  0  3.958791  0
C  C52  1  0.38614260  0.94635627  0.50753414  1  -0.017482  0  -0.086239  -0.097036  0  4.000123  0
C  C53  1  0.50180832  0.87895266  0.52486311  1  -0.040631  0  -0.009306  -0.062127  0  3.914746  0
C  C54  1  0.14723584  0.32405793  0.58803486  1  -0.004084  0  -0.090255  -0.21956  0  3.939553  0
C  C55  1  0.49446488  0.74245558  0.51808310  1  1.568158  0  0.216819  0.592967  0  4.171512  0
C  C56  1  0.07557576  0.24633713  0.63319051  1  -0.053189  0  0.004964  0.083194  0  3.907988  0
C  C57  1  0.93026054  0.25640843  0.63520346  1  -0.031614  0  0.006889  0.14258  0  3.938771  0
C  C58  1  0.86426374  0.34108326  0.59138406  1  0.016695  0  -0.091361  -0.226298  0  3.940303  0
C  C59  1  0.93551637  0.42169764  0.54524142  1  0.39161  0  0.117289  0.177821  0  3.97494  0
C  C60  1  0.08073067  0.41379958  0.54482611  1  0.463949  0  0.118002  0.166854  0  3.97859  0
C  C61  1  0.08591221  0.57599607  0.46300279  1  0.576206  0  0.067383  -0.000977  0  3.860396  0
C  C62  1  0.47504793  0.37696184  0.07304491  1  0.90105  0  0.241767  0.251239  0  3.990141  0
C  C63  1  0.94233885  0.58360986  0.46130177  1  0.511713  0  0.143407  0.295425  0  3.928315  0
C  C64  1  0.50174393  0.51947593  0.36266422  1  1.584997  0  0.217324  0.597873  0  4.157835  0
C  C65  1  0.62873041  0.43454851  0.75349428  1  -0.067551  0  -0.081374  -0.089264  0  3.968291  0
C  C66  1  0.62252488  0.40700628  0.82564904  1  0.010713  0  -0.080821  -0.106786  0  3.965313  0
C  C67  1  0.49629015  0.40330005  0.86072238  1  -0.047332  0  -0.004286  0.018586  0  4.006151  0
C  C68  1  0.37677160  0.42850191  0.82256228  1  -0.069809  0  -0.080533  -0.106005  0  3.963961  0
C  C69  1  0.38350026  0.45387448  0.75030876  1  0.007494  0  -0.080121  -0.088343  0  3.97926  0
C  C70  1  0.73846846  0.77714560  0.61737030  1  -0.052606  0  -0.244739  -0.409406  0  3.982278  0
C  C71  1  0.14608106  0.15189818  0.68042692  1  -0.091411  0  -0.153759  -0.183794  0  3.95244  0
C  C72  1  0.30098705  0.15021957  0.67901050  1  0.098769  0  -0.171012  -0.094477  0  3.952082  0
C  C73  1  0.48848098  0.37551341  0.93684102  1  0.955095  0  0.237046  0.241984  0  4.016232  0
C  C74  1  0.36059060  0.05608894  0.73200389  1  -0.024742  0  -0.243991  -0.351526  0  3.984244  0
C  C75  1  0.84842254  0.17426842  0.68365255  1  -0.06265  0  -0.233579  -0.41218  0  3.969105  0
C  C76  1  0.87498111  0.67898348  0.41492524  1  -0.090115  0  -0.236585  -0.472422  0  3.915387  0
C  C77  1  0.23750972  0.31821517  0.17730230  1  -0.045343  0  -0.162154  -0.207004  0  3.98246  0
C  C78  1  0.11664794  0.39958138  0.15359543  1  0.004095  0  -0.166258  -0.087816  0  3.976708  0
C  C79  1  0.99466196  0.32351718  0.13395397  1  -0.082746  0  -0.245162  -0.349227  0  3.976897  0
C  C80  1  0.58943809  0.47052147  0.17075502  1  -0.020854  0  -0.08351  -0.105362  0  4.001143  0
C  C81  1  0.59968158  0.50776771  0.23963782  1  -0.008027  0  -0.088096  -0.103636  0  4.000395  0
C  C82  1  0.49065337  0.48887482  0.28643392  1  -0.014117  0  -0.009812  -0.00476  0  3.969802  0
C  C83  1  0.37449815  0.43100666  0.26319622  1  -0.079435  0  -0.082622  -0.153532  0  3.928933  0
C  C84  1  0.36285446  0.38866290  0.19455576  1  0.049909  0  0.008144  0.112564  0  3.900596  0
N  N85  1  0.36522678  0.35956011  0.96759779  1  -0.530488  0  -0.162213  -0.166769  0  3.210808  0
N  N86  1  0.35870632  0.36307408  0.03703229  1  -0.551834  0  -0.141523  -0.119936  0  3.233821  0
N  N87  1  0.59773441  0.35175063  0.04280993  1  -0.503664  0  -0.156922  -0.155033  0  3.210051  0
N  N88  1  0.60416443  0.35414207  0.97341411  1  -0.595168  0  -0.157855  -0.150068  0  3.231981  0
N  N89  1  0.15284678  0.49429450  0.50299849  1  -1.21395  0  -0.294748  -0.184003  0  3.497381  0
N  N90  1  0.86908650  0.50636112  0.50204497  1  -1.201221  0  -0.291328  -0.268977  0  3.370919  0
O  O91  1  0.61857401  0.32860259  0.49941955  1  -1.172438  0  -0.310249  -0.548636  0  2.42539  0
O  O92  1  0.39525420  0.32256042  0.47542964  1  -1.167452  0  -0.315977  -0.54796  0  2.32186  0
O  O93  1  0.62701126  0.50758329  0.60853169  1  -1.171969  0  -0.305232  -0.545365  0  2.373436  0
O  O94  1  0.40356805  0.46384419  0.60401899  1  -1.176487  0  -0.3121  -0.549152  0  2.403001  0
O  O95  1  0.60421369  0.69040678  0.49825461  1  -1.171944  0  -0.309245  -0.545403  0  2.425924  0
O  O96  1  0.38061322  0.69022002  0.52666177  1  -1.167052  0  -0.323567  -0.556252  0  2.286976  0
O  O97  1  0.62011232  0.51189368  0.38908731  1  -1.170463  0  -0.314015  -0.549755  0  2.318963  0
O  O98  1  0.39236922  0.54598234  0.39556794  1  -1.170934  0  -0.324423  -0.560442  0  2.325633  0
