# generated using pymatgen
data_Al3H24C37Cl3O14
_symmetry_space_group_name_H-M   'P 1'
_cell_length_a   12.43057698
_cell_length_b   12.30820696
_cell_length_c   26.82479016
_cell_angle_alpha   82.01352251
_cell_angle_beta   82.86194762
_cell_angle_gamma   67.34810218
_symmetry_Int_Tables_number   1
_chemical_formula_structural   Al3H24C37Cl3O14
_chemical_formula_sum   'Al6 H48 C74 Cl6 O28'
_cell_volume   3739.56358170
_cell_formula_units_Z   2
loop_
 _symmetry_equiv_pos_site_id
 _symmetry_equiv_pos_as_xyz
  1  'x, y, z'
loop_
 _atom_site_type_symbol
 _atom_site_label
 _atom_site_symmetry_multiplicity
 _atom_site_fract_x
 _atom_site_fract_y
 _atom_site_fract_z
 _atom_site_occupancy
 _atom_site_pbe_bader_charge
 _atom_site_pbe_bader_spin_density
 _atom_site_pbe_cm5_charge
 _atom_site_pbe_ddec_charge
 _atom_site_pbe_ddec_spin_density
 _atom_site_pbe_ddec_sum_bond_order
 _atom_site_pbe_magmom
Al  Al0  1  0.40314283  0.39923749  0.51373345  1  2.493928  0  0.404329  1.681077  0  2.552722  0
Al  Al1  1  0.64641547  0.43784938  0.49560867  1  2.480014  0  0.508976  1.661608  0  2.512547  0
Al  Al2  1  0.42286048  0.65362621  0.49603956  1  2.479951  0  0.5106  1.660558  0  2.511509  0
Al  Al3  1  0.94625930  0.92892050  0.98078924  1  2.491858  0  0.404451  1.679354  0  2.55581  0
Al  Al4  1  0.90466192  0.68513605  0.99477484  1  2.478618  0  0.510604  1.661571  0  2.514366  0
Al  Al5  1  0.69285736  0.91269358  0.99384424  1  2.480174  0  0.510501  1.661357  0  2.50919  0
H  H6  1  0.33357186  0.64463178  0.25971707  1  0.035076  0  0.0969  0.074625  0  0.972687  0
H  H7  1  0.47671743  0.79269824  0.70740250  1  0.050565  0  0.101399  0.105129  0  0.966864  0
H  H8  1  0.48856197  0.64578299  0.72764789  1  0.026066  0  0.095288  0.097051  0  0.980044  0
H  H9  1  0.49489254  0.68485520  0.80966926  1  0.046962  0  0.094395  0.101173  0  0.99205  0
H  H10  1  0.50808430  0.82180856  0.78811503  1  0.050994  0  0.100789  0.104366  0  0.967469  0
H  H11  1  0.80094470  0.71627149  0.67975688  1  0.029658  0  0.099678  0.105644  0  0.975297  0
H  H12  1  0.66457638  0.83544734  0.68525168  1  0.058694  0  0.101799  0.107407  0  0.968811  0
H  H13  1  0.81452484  0.50676106  0.70572950  1  0.059062  0  0.104786  0.116087  0  0.961658  0
H  H14  1  0.82219305  0.50893782  0.79150835  1  0.073652  0  0.109945  0.088704  0  0.95949  0
H  H15  1  0.69133306  0.84102455  0.76821710  1  0.060024  0  0.101451  0.07112  0  0.955635  0
H  H16  1  0.02304619  0.82990387  0.28895704  1  0.083961  0  0.101369  0.080841  0  1.007658  0
H  H17  1  0.52550805  0.32319648  0.18383691  1  0.094783  0  0.104887  0.085184  0  0.995122  0
H  H18  1  0.98903621  0.63286204  0.24627436  1  0.064565  0  0.097301  0.07263  0  1.021818  0
H  H19  1  0.27988690  0.47426195  0.29526814  1  0.025423  0  0.094083  0.107273  0  0.990541  0
H  H20  1  0.12954177  0.50000651  0.30291206  1  0.040033  0  0.094322  0.107285  0  0.988511  0
H  H21  1  0.05378969  0.91310504  0.22433658  1  -0.001763  0  0.079007  0.102814  0  1.070954  0
H  H22  1  0.17933037  0.93315368  0.19382183  1  0.040046  0  0.089656  0.126843  0  1.002176  0
H  H23  1  0.09058183  0.89392894  0.15920068  1  0.073453  0  0.094349  0.135802  0  1.000188  0
H  H24  1  0.27977883  0.75121412  0.12930684  1  0.041526  0  0.093709  0.137556  0  0.993404  0
H  H25  1  0.35133169  0.78984628  0.17295740  1  0.009721  0  0.087093  0.121299  0  1.005018  0
H  H26  1  0.37619573  0.63974523  0.16986018  1  0.028148  0  0.080729  0.112531  0  1.066217  0
H  H27  1  0.03668342  0.48760854  0.22682917  1  0.021846  0  0.087702  0.122568  0  1.020385  0
H  H28  1  0.49832179  0.36143317  0.26719526  1  0.087732  0  0.092159  0.104154  0  1.031785  0
H  H29  1  0.13399030  0.45055951  0.17205308  1  0.057695  0  0.091836  0.131706  0  1.000252  0
H  H30  1  0.17107690  0.36588899  0.23118061  1  -0.000965  0  0.088658  0.127232  0  0.995229  0
H  H31  1  0.17509447  0.88975079  0.29109558  1  0.026745  0  0.087725  0.121219  0  1.010143  0
H  H32  1  0.30274571  0.78768334  0.31852102  1  0.05544  0  0.089674  0.126488  0  1.011987  0
H  H33  1  0.31306090  0.85648004  0.25635251  1  0.028855  0  0.089115  0.121501  0  1.005985  0
H  H34  1  0.96850146  0.08470303  0.28521256  1  0.040376  0  0.088604  0.127798  0  1.00506  0
H  H35  1  0.87036145  0.12645827  0.33955659  1  0.057863  0  0.095229  0.142772  0  0.98805  0
H  H36  1  0.87798224  0.00380420  0.30947687  1  0.052716  0  0.075915  0.111823  0  1.062376  0
H  H37  1  0.90131645  0.77309185  0.74202178  1  0.028382  0  0.091633  0.127754  0  0.99467  0
H  H38  1  0.88100543  0.71260182  0.80496087  1  0.050975  0  0.086584  0.121452  0  1.021209  0
H  H39  1  0.53058252  0.13257330  0.20953236  1  0.084681  0  0.106578  0.135495  0  0.968877  0
H  H40  1  0.91789794  0.62297489  0.75401356  1  0.005061  0  0.087761  0.117364  0  1.010888  0
H  H41  1  0.92361037  0.88118307  0.19277455  1  0.060502  0  0.08728  0.12553  0  1.043503  0
H  H42  1  0.87784300  0.76676707  0.18431302  1  0.037167  0  0.086295  0.124253  0  1.011883  0
H  H43  1  0.83411626  0.83454560  0.24156543  1  0.045213  0  0.073987  0.102993  0  1.069993  0
H  H44  1  0.34832193  0.37729619  0.21337249  1  0.000913  0  0.082184  0.10943  0  1.034068  0
H  H45  1  0.32359666  0.48324602  0.15941088  1  0.046237  0  0.094131  0.134527  0  0.985004  0
H  H46  1  0.38187142  0.50456402  0.21305798  1  0.003446  0  0.084017  0.111714  0  1.054191  0
H  H47  1  0.66261233  0.00952635  0.21817269  1  0.118702  0  0.106159  0.136134  0  0.979487  0
H  H48  1  0.80220557  0.26098232  0.26232061  1  0.065106  0  0.10319  0.087324  0  0.960023  0
H  H49  1  0.62601655  0.39469805  0.26047450  1  0.088661  0  0.101459  0.120847  0  0.98401  0
H  H50  1  0.83903982  0.03540332  0.21958803  1  0.055779  0  0.100885  0.081427  0  1.015259  0
H  H51  1  0.68634279  0.47504989  0.72021523  1  0.070428  0  0.099018  0.113519  0  0.988027  0
H  H52  1  0.29054411  0.29595788  0.49742757  1  0.576786  0  0.298025  0.389171  0  0.913395  0
H  H53  1  0.05411964  0.03733560  0.93815541  1  0.57042  0  0.298789  0.390532  0  0.911326  0
C  C54  1  0.60122054  0.30187287  0.43344528  1  1.646116  0  0.2792  0.716566  0  4.154936  0
C  C55  1  0.20394356  0.74699287  0.20707818  1  0.04629  0  -0.004001  0.174238  0  3.663063  0
C  C56  1  0.13194411  0.66648601  0.20247800  1  0.099033  0  0.013697  0.019304  0  3.71151  0
C  C57  1  0.60690247  0.62998053  0.41807321  1  1.701941  0  0.286701  0.702874  0  4.175256  0
C  C58  1  0.19464206  0.53247659  0.22411457  1  0.055203  0  -0.006735  0.206669  0  3.708614  0
C  C59  1  0.19443934  0.53323896  0.28211511  1  -0.015888  0  -0.155392  -0.264278  0  3.80464  0
C  C60  1  0.10855966  0.67527405  0.15031055  1  -0.49806  0  0.00303  0.04726  0  4.002347  0
C  C61  1  0.19235000  0.64918624  0.34933542  1  -0.460724  0  -0.00961  0.012044  0  4.006982  0
C  C62  1  0.22402783  0.63369796  0.39172332  1  0.209835  0  -0.046426  -0.220758  0  3.940351  0
C  C63  1  0.59160198  0.32803647  0.25479269  1  -0.078164  0  -0.161395  -0.251303  0  3.846148  0
C  C64  1  0.60478528  0.12011254  0.28047766  1  0.224774  0  0.070764  0.231567  0  3.690713  0
C  C65  1  0.65549021  0.67845323  0.26876855  1  0.084558  0  0.006042  0.005937  0  4.171476  0
C  C66  1  0.61721282  0.10332749  0.22376529  1  -0.066527  0  -0.155057  -0.289929  0  3.822994  0
C  C67  1  0.71431516  0.10961784  0.09939149  1  -0.163764  0  -0.032414  -0.17996  0  3.919533  0
C  C68  1  0.65713138  0.21281416  0.28834273  1  0.115105  0  0.001626  0.074493  0  3.851691  0
C  C69  1  0.27952593  0.60639614  0.43824995  1  1.654598  0  0.279091  0.725016  0  4.148573  0
C  C70  1  0.60944935  0.30621610  0.19849187  1  0.110507  0  -0.041881  0.060046  0  3.746623  0
C  C71  1  0.68651923  0.17505784  0.19213326  1  0.131298  0  0.000421  0.111918  0  3.882033  0
C  C72  1  0.80532815  0.13231489  0.21589903  1  0.135233  0  -0.04568  0.013338  0  3.757876  0
C  C73  1  0.78962958  0.17625789  0.26813436  1  -0.003526  0  -0.083451  -0.003488  0  3.804499  0
C  C74  1  0.70105391  0.14559450  0.14050465  1  -0.067083  0  -0.022212  -0.021783  0  4.019528  0
C  C75  1  0.64046976  0.23755150  0.34059157  1  -0.480027  0  -0.020865  -0.007696  0  4.036002  0
C  C76  1  0.64476181  0.66984648  0.31929674  1  -0.366002  0  -0.000647  0.03451  0  4.245222  0
C  C77  1  0.62655355  0.26075395  0.38401541  1  0.284765  0  -0.033635  -0.188435  0  3.925382  0
C  C78  1  0.72588272  0.53854403  0.72463197  1  -0.032004  0  -0.152828  -0.246511  0  3.83588  0
C  C79  1  0.53081308  0.70940494  0.72772690  1  -0.026242  0  -0.151064  -0.188902  0  3.843877  0
C  C80  1  0.54306841  0.72751607  0.78222235  1  -0.013797  0  -0.154282  -0.19032  0  3.861983  0
C  C81  1  0.61074313  0.28894564  0.57716688  1  1.650675  0  0.281956  0.688081  0  4.189742  0
C  C82  1  0.69163177  0.70156062  0.88872510  1  0.084003  0  -0.045291  -0.228458  0  3.949735  0
C  C83  1  0.65335669  0.66197782  0.69902255  1  0.156465  0  0.001559  0.169746  0  3.911254  0
C  C84  1  0.73169682  0.54553091  0.78114008  1  0.094361  0  -0.035452  0.070674  0  3.736011  0
C  C85  1  0.67351937  0.67574287  0.79351888  1  0.150321  0  0.00127  0.085099  0  3.877325  0
C  C86  1  0.73654441  0.74989216  0.75798345  1  0.005168  0  -0.072872  0.045355  0  3.772571  0
C  C87  1  0.63318484  0.65964677  0.36558257  1  0.261466  0  0.008268  -0.123158  0  3.80517  0
C  C88  1  0.71655588  0.74694393  0.70228376  1  -0.02992  0  -0.147675  -0.227727  0  3.811198  0
C  C89  1  0.68389603  0.68670652  0.84563609  1  -0.345553  0  0.006104  0.028845  0  3.996949  0
C  C90  1  0.64261121  0.65402105  0.64668345  1  -0.493172  0  0.009602  0.028185  0  3.967329  0
C  C91  1  0.63210073  0.64767241  0.60283016  1  0.28076  0  -0.049108  -0.237519  0  3.960994  0
C  C92  1  0.10105693  0.69938433  0.86311904  1  -0.218765  0  0.006979  -0.12545  0  3.811042  0
C  C93  1  0.60803909  0.62321987  0.55583880  1  1.586042  0  0.286303  0.73598  0  4.141416  0
C  C94  1  0.13219309  0.68486534  0.81849059  1  0.133662  0  -0.002879  0.029145  0  4.245431  0
C  C95  1  0.16304425  0.66976042  0.76947590  1  0.154994  0  0.004849  0.001908  0  4.179352  0
C  C96  1  0.18764486  0.65721256  0.72407156  1  -0.095125  0  0.002941  -0.002906  0  4.184589  0
C  C97  1  0.21538877  0.64216981  0.67492312  1  -0.370786  0  -0.004817  0.025875  0  4.25196  0
C  C98  1  0.24632827  0.71589985  0.26164982  1  -0.007468  0  -0.074347  -0.026253  0  3.738753  0
C  C99  1  0.24208658  0.62732090  0.63008081  1  0.191504  0  0.007898  -0.123088  0  3.815268  0
C  C100  1  0.71975250  0.10455527  0.86175084  1  0.119205  0  0.00503  -0.124873  0  3.811623  0
C  C101  1  0.70468287  0.13279656  0.81671419  1  -0.219486  0  -0.004622  0.031212  0  4.250354  0
C  C102  1  0.68888998  0.16098210  0.76736869  1  -0.248158  0  0.001141  -0.002049  0  4.192947  0
C  C103  1  0.67493270  0.18408061  0.72180146  1  0.210625  0  0.000575  -0.003706  0  4.185763  0
C  C104  1  0.65813138  0.21161331  0.67250100  1  -0.15741  0  -0.003953  0.031085  0  4.248929  0
C  C105  1  0.29074853  0.60001645  0.57972110  1  1.713715  0  0.279741  0.688157  0  4.18846  0
C  C106  1  0.64148743  0.23849943  0.62752490  1  0.143052  0  0.005762  -0.127809  0  3.817166  0
C  C107  1  0.04674558  0.71942178  0.05671241  1  1.638493  0  0.280792  0.717076  0  4.162037  0
C  C108  1  0.71718382  0.72648131  0.07278006  1  1.671771  0  0.285677  0.69975  0  4.179081  0
C  C109  1  0.03835734  0.73668496  0.28734535  1  0.073982  0  -0.038425  0.025151  0  3.732395  0
C  C110  1  0.74289541  0.05130994  0.05372282  1  1.659965  0  0.282136  0.713396  0  4.153862  0
C  C111  1  0.04877872  0.72728576  0.91303556  1  1.667536  0  0.277143  0.690904  0  4.188288  0
C  C112  1  0.71756900  0.72707291  0.93512910  1  1.653731  0  0.288394  0.736245  0  4.133914  0
C  C113  1  0.74565490  0.05246079  0.91235189  1  1.687183  0  0.277127  0.692214  0  4.185615  0
C  C114  1  0.68779027  0.70165047  0.12544592  1  0.155477  0  0.009484  -0.119523  0  3.796531  0
C  C115  1  0.67514248  0.69228268  0.17172416  1  -0.307659  0  -0.000601  0.033809  0  4.243781  0
C  C116  1  0.66366338  0.68383229  0.22225601  1  0.031347  0  0.005862  0.003146  0  4.172897  0
C  C117  1  0.12647721  0.87875875  0.19606201  1  -0.083476  0  -0.249712  -0.42933  0  3.920012  0
C  C118  1  0.30922090  0.72886122  0.16767806  1  -0.054387  0  -0.247215  -0.423836  0  3.90718  0
C  C119  1  0.12920521  0.45586178  0.21285810  1  -0.070375  0  -0.242949  -0.424035  0  3.912416  0
C  C120  1  0.01257849  0.71068136  0.23662807  1  0.011766  0  -0.082925  6.1e-05  0  3.782598  0
C  C121  1  0.25960255  0.81834147  0.28312347  1  -0.078016  0  -0.245544  -0.386456  0  3.947482  0
C  C122  1  0.88156746  0.09224419  0.30283286  1  -0.08966  0  -0.250743  -0.401891  0  3.931959  0
C  C123  1  0.86624228  0.71193811  0.76551209  1  -0.065569  0  -0.245653  -0.405046  0  3.955984  0
C  C124  1  0.90647163  0.80478897  0.21236477  1  -0.116289  0  -0.254697  -0.402974  0  3.932187  0
C  C125  1  0.31962608  0.47242088  0.20088707  1  -0.049692  0  -0.245442  -0.421851  0  3.910277  0
C  C126  1  0.08927674  0.68878024  0.10606377  1  0.241331  0  -0.042699  -0.233203  0  3.923989  0
C  C127  1  0.16715737  0.65898665  0.29709765  1  0.139265  0  0.000895  0.103191  0  3.866697  0
Cl  Cl128  1  0.67496231  0.98139225  0.31645692  1  -0.194566  0  -0.002454  -0.100209  0  1.508448  0
Cl  Cl129  1  0.45182375  0.17212229  0.30286277  1  -0.212653  0  -0.0229  -0.115595  0  1.386836  0
Cl  Cl130  1  0.91555593  0.16986719  0.17643900  1  -0.229145  0  -0.029357  -0.105597  0  1.416506  0
Cl  Cl131  1  0.66190989  0.41024588  0.16053450  1  -0.242381  0  -0.045833  -0.133254  0  1.416413  0
Cl  Cl132  1  0.66406309  0.45439665  0.82054884  1  -0.261194  0  -0.054428  -0.151838  0  1.345764  0
Cl  Cl133  1  0.93658681  0.70779193  0.33650435  1  -0.265818  0  -0.054174  -0.145858  0  1.399513  0
O  O134  1  0.30007750  0.50470364  0.46149322  1  -1.230777  0  -0.212106  -0.572601  0  2.289163  0
O  O135  1  0.64960762  0.82367564  0.05098962  1  -1.237107  0  -0.219561  -0.573286  0  2.250227  0
O  O136  1  0.66137923  0.02616916  0.03848767  1  -1.249811  0  -0.241917  -0.607349  0  2.233339  0
O  O137  1  0.50309027  0.31319740  0.45617536  1  -1.214346  0  -0.206162  -0.554843  0  2.28358  0
O  O138  1  0.84692176  0.03007481  0.92509229  1  -1.204248  0  -0.204312  -0.550236  0  2.285121  0
O  O139  1  0.03641381  0.82665813  0.92562765  1  -1.199842  0  -0.205166  -0.551366  0  2.289666  0
O  O140  1  0.01527110  0.64882216  0.93970060  1  -1.242872  0  -0.235404  -0.592416  0  2.237165  0
O  O141  1  0.80913543  0.65197442  0.95525079  1  -1.249436  0  -0.227863  -0.593653  0  2.244982  0
O  O142  1  0.65166030  0.82544913  0.95207345  1  -1.244449  0  -0.22678  -0.592043  0  2.241989  0
O  O143  1  0.66279022  0.02883501  0.93964058  1  -1.245804  0  -0.235223  -0.592967  0  2.236713  0
O  O144  1  0.84660196  0.84145793  0.98964466  1  -1.611234  0  -0.389615  -1.276167  0  2.296397  0
O  O145  1  0.68062319  0.52924226  0.53735665  1  -1.245887  0  -0.228573  -0.594879  0  2.24929  0
O  O146  1  0.68150998  0.32788748  0.44937388  1  -1.250607  0  -0.24295  -0.607176  0  2.229015  0
O  O147  1  0.67995369  0.53517438  0.43896062  1  -1.232617  0  -0.218521  -0.572916  0  2.252519  0
O  O148  1  0.50967747  0.69686341  0.43827796  1  -1.238139  0  -0.216776  -0.568356  0  2.25213  0
O  O149  1  0.30890675  0.68766809  0.45154163  1  -1.252036  0  -0.243701  -0.608267  0  2.22568  0
O  O150  1  0.31327498  0.49648802  0.56915726  1  -1.198368  0  -0.195965  -0.527127  0  2.281131  0
O  O151  1  0.51027438  0.30377410  0.56590113  1  -1.195525  0  -0.193036  -0.518786  0  2.278966  0
O  O152  1  0.68829249  0.31899046  0.54857882  1  -1.251616  0  -0.236345  -0.59573  0  2.237941  0
O  O153  1  0.51292558  0.69301447  0.53682457  1  -1.248776  0  -0.227663  -0.593806  0  2.244691  0
O  O154  1  0.31079360  0.68381274  0.55051906  1  -1.252884  0  -0.235517  -0.5953  0  2.238671  0
O  O155  1  0.49197337  0.49786099  0.50137851  1  -1.608834  0  -0.389655  -1.274816  0  2.295319  0
O  O156  1  0.84568882  0.02561465  0.03371611  1  -1.212258  0  -0.196918  -0.532703  0  2.28207  0
O  O157  1  0.03418681  0.82112085  0.03525060  1  -1.219696  0  -0.20055  -0.537918  0  2.274316  0
O  O158  1  0.02014352  0.64123861  0.03888167  1  -1.255407  0  -0.244731  -0.613147  0  2.228622  0
O  O159  1  0.81140471  0.65314388  0.05335179  1  -1.232197  0  -0.215408  -0.5667  0  2.252042  0
O  O160  1  0.32507441  0.30605044  0.52595795  1  -1.352189  0  -0.570272  -0.986365  0  1.790816  0
O  O161  1  0.03771162  0.00855450  0.97250076  1  -1.343585  0  -0.570011  -0.985913  0  1.789259  0
