# generated using pymatgen
data_CdH16C21(NO4)2
_symmetry_space_group_name_H-M   'P 1'
_cell_length_a   8.37196817
_cell_length_b   10.11272571
_cell_length_c   13.97870422
_cell_angle_alpha   99.67652924
_cell_angle_beta   101.41747165
_cell_angle_gamma   112.71290747
_symmetry_Int_Tables_number   1
_chemical_formula_structural   CdH16C21(NO4)2
_chemical_formula_sum   'Cd2 H32 C42 N4 O16'
_cell_volume   1030.23147424
_cell_formula_units_Z   2
loop_
 _symmetry_equiv_pos_site_id
 _symmetry_equiv_pos_as_xyz
  1  'x, y, z'
loop_
 _atom_site_type_symbol
 _atom_site_label
 _atom_site_symmetry_multiplicity
 _atom_site_fract_x
 _atom_site_fract_y
 _atom_site_fract_z
 _atom_site_occupancy
 _atom_site_hle17_bader_spin_density
 _atom_site_hle17_ddec_charge
 _atom_site_hle17_ddec_spin_density
 _atom_site_hle17_ddec_sum_bond_order
 _atom_site_hle17_magmom
 _atom_site_hse06_10hf_bader_spin_density
 _atom_site_hse06_10hf_ddec_charge
 _atom_site_hse06_10hf_ddec_spin_density
 _atom_site_hse06_10hf_ddec_sum_bond_order
 _atom_site_hse06_10hf_magmom
 _atom_site_hse06_bader_spin_density
 _atom_site_hse06_ddec_charge
 _atom_site_hse06_ddec_spin_density
 _atom_site_hse06_ddec_sum_bond_order
 _atom_site_hse06_magmom
 _atom_site_pbe_bader_spin_density
 _atom_site_pbe_cm5_charge
 _atom_site_pbe_ddec_charge
 _atom_site_pbe_ddec_spin_density
 _atom_site_pbe_ddec_sum_bond_order
 _atom_site_pbe_magmom
Cd  Cd0  1  0.35609405  0.10903821  0.54634684  1  0  1.171045  0  1.606461  0  0  0.986775  0  2.044406  0  0  1.045778  0  1.989304  0  0  0.772072  0.941373  0  2.084573  0
Cd  Cd1  1  0.64390645  0.89096014  0.45365477  1  0  1.171089  0  1.606449  0  0  0.986839  0  2.04436  0  0  1.045826  0  1.989291  0  0  0.772104  0.941439  0  2.084527  0
H  H2  1  0.65397915  0.43694015  0.99005830  1  0  0.082085  0  0.999735  0  0  0.086357  0  1.074849  0  0  0.088546  0  1.075138  0  0  0.093973  0.084799  0  1.074773  0
H  H3  1  0.34602501  0.56306267  0.00994144  1  0  0.082097  0  0.999772  0  0  0.086407  0  1.074847  0  0  0.088597  0  1.075133  0  0  0.093973  0.08485  0  1.07477  0
H  H4  1  0.38780529  0.26959852  0.84165561  1  0  0.090066  0  0.967364  0  0  0.100766  0  1.028619  0  0  0.103051  0  1.028339  0  0  0.098795  0.099099  0  1.02889  0
H  H5  1  0.61219706  0.73040543  0.15834404  1  0  0.090102  0  0.967301  0  0  0.100793  0  1.028565  0  0  0.103077  0  1.028283  0  0  0.098801  0.099127  0  1.028835  0
H  H6  1  0.10942437  0.08976897  0.86955408  1  0  0.092041  0  0.96846  0  0  0.099672  0  1.034448  0  0  0.103442  0  1.031802  0  0  0.098314  0.096911  0  1.036464  0
H  H7  1  0.89057561  0.91023278  0.13044215  1  0  0.091972  0  0.968549  0  0  0.099603  0  1.034533  0  0  0.103374  0  1.03189  0  0  0.098279  0.096841  0  1.036549  0
H  H8  1  0.10079437  0.08571022  0.04667790  1  0  0.091207  0  0.986705  0  0  0.101905  0  1.048985  0  0  0.104451  0  1.047554  0  0  0.101344  0.100017  0  1.05014  0
H  H9  1  0.89920319  0.91428932  0.95331776  1  0  0.091185  0  0.986775  0  0  0.101884  0  1.049051  0  0  0.104452  0  1.04759  0  0  0.101329  0.099974  0  1.050235  0
H  H10  1  0.19913850  0.13746091  0.29248812  1  0  0.402824  0  0.88974  0  0  0.370779  0  0.970488  0  0  0.383079  0  0.956807  0  0  0.301548  0.362163  0  0.979424  0
H  H11  1  0.80086504  0.86254078  0.70751284  1  0  0.402864  0  0.889661  0  0  0.370785  0  0.970458  0  0  0.383085  0  0.956791  0  0  0.301562  0.362169  0  0.979396  0
H  H12  1  0.23811104  0.02834676  0.71745859  1  0  0.402487  0  0.844676  0  0  0.385371  0  0.903141  0  0  0.392771  0  0.895056  0  0  0.310511  0.379989  0  0.909105  0
H  H13  1  0.76188764  0.97165273  0.28254293  1  0  0.402499  0  0.844697  0  0  0.385374  0  0.90318  0  0  0.392774  0  0.895095  0  0  0.310495  0.379992  0  0.909143  0
H  H14  1  0.05550674  0.99300047  0.64036120  1  0  0.43342  0  0.863503  0  0  0.401907  0  0.926814  0  0  0.412571  0  0.911388  0  0  0.290934  0.394321  0  0.937802  0
H  H15  1  0.94449317  0.00699901  0.35963976  1  0  0.433445  0  0.86348  0  0  0.401936  0  0.926781  0  0  0.4126  0  0.911357  0  0  0.290943  0.39435  0  0.93777  0
H  H16  1  0.57530547  0.42646518  0.69707296  1  0  0.105761  0  0.957507  0  0  0.109857  0  1.02559  0  0  0.112708  0  1.023305  0  0  0.124037  0.107921  0  1.026977  0
H  H17  1  0.42469441  0.57353654  0.30292898  1  0  0.105747  0  0.957498  0  0  0.109859  0  1.025568  0  0  0.112712  0  1.023283  0  0  0.124042  0.10792  0  1.026964  0
H  H18  1  0.82100386  0.56872381  0.86157731  1  0  0.11843  0  0.953989  0  0  0.122906  0  1.021854  0  0  0.125825  0  1.021491  0  0  0.114116  0.120704  0  1.022513  0
H  H19  1  0.17899667  0.43127680  0.13842242  1  0  0.118435  0  0.954035  0  0  0.122909  0  1.021893  0  0  0.125827  0  1.02153  0  0  0.114111  0.120716  0  1.02255  0
H  H20  1  0.87070659  0.16182651  0.87339430  1  0  0.124847  0  0.948426  0  0  0.132017  0  1.011971  0  0  0.135226  0  1.011053  0  0  0.115445  0.129697  0  1.012854  0
H  H21  1  0.12929693  0.83817517  0.12660808  1  0  0.124869  0  0.948401  0  0  0.132035  0  1.011955  0  0  0.135244  0  1.011038  0  0  0.115455  0.129714  0  1.012838  0
H  H22  1  0.62330820  0.03521165  0.70801323  1  0  0.097936  0  0.942842  0  0  0.104338  0  1.006493  0  0  0.107191  0  1.003727  0  0  0.120589  0.102258  0  1.008517  0
H  H23  1  0.37669230  0.96478671  0.29198838  1  0  0.097958  0  0.942811  0  0  0.10436  0  1.006461  0  0  0.107213  0  1.003694  0  0  0.120593  0.102285  0  1.008479  0
H  H24  1  0.34972834  0.58051577  0.53888771  1  0  0.129642  0  0.950746  0  0  0.133636  0  1.021309  0  0  0.137916  0  1.017635  0  0  0.109608  0.130644  0  1.023865  0
H  H25  1  0.65027152  0.41948595  0.46111494  1  0  0.129673  0  0.950724  0  0  0.133658  0  1.021296  0  0  0.137933  0  1.017635  0  0  0.109608  0.130663  0  1.023849  0
H  H26  1  0.93724312  0.21726207  0.29053539  1  0  0.101412  0  0.9589  0  0  0.110851  0  1.024387  0  0  0.115372  0  1.02016  0  0  0.103616  0.107683  0  1.027339  0
H  H27  1  0.06276099  0.78274073  0.70946720  1  0  0.101378  0  0.958909  0  0  0.110806  0  1.024412  0  0  0.115327  0  1.020183  0  0  0.103596  0.107638  0  1.027366  0
H  H28  1  0.95366488  0.65569128  0.33632691  1  0  0.124876  0  0.951581  0  0  0.133742  0  1.015272  0  0  0.137711  0  1.012468  0  0  0.109673  0.130762  0  1.017562  0
H  H29  1  0.04633565  0.34430933  0.66367282  1  0  0.124883  0  0.951574  0  0  0.133746  0  1.01527  0  0  0.137716  0  1.012464  0  0  0.109677  0.130765  0  1.017561  0
H  H30  1  0.79163357  0.54030743  0.15724618  1  0  0.055695  0  0.944311  0  0  0.065358  0  1.016947  0  0  0.065683  0  1.016362  0  0  0.095506  0.065116  0  1.017374  0
H  H31  1  0.20836635  0.45969206  0.84275407  1  0  0.055695  0  0.944285  0  0  0.065364  0  1.016931  0  0  0.065683  0  1.01634  0  0  0.095506  0.065123  0  1.017358  0
H  H32  1  0.66787126  0.51156586  0.24927245  1  0  0.083458  0  0.947147  0  0  0.093556  0  1.01277  0  0  0.095131  0  1.010432  0  0  0.109059  0.092386  0  1.014506  0
H  H33  1  0.33212504  0.48843143  0.75072637  1  0  0.08347  0  0.947127  0  0  0.093566  0  1.012755  0  0  0.095141  0  1.010414  0  0  0.109088  0.092395  0  1.014493  0
C  C34  1  0.52970609  0.35455214  0.10067602  1  0  0.07329  0  3.695837  0  0  0.085242  0  3.929873  0  0  0.086595  0  3.95229  0  0  -0.001252  0.084358  0  3.914861  0
C  C35  1  0.47029383  0.64544734  0.89932422  1  0  0.073353  0  3.695932  0  0  0.085293  0  3.92997  0  0  0.086641  0  3.952388  0  0  -0.001231  0.084409  0  3.914959  0
C  C36  1  0.53239654  0.35695585  0.00138592  1  0  -0.112775  0  3.744263  0  0  -0.13048  0  3.988132  0  0  -0.135096  0  4.011856  0  0  -0.090598  -0.127391  0  3.971893  0
C  C37  1  0.46760401  0.64304477  0.99861239  1  0  -0.112816  0  3.74441  0  0  -0.130553  0  3.988263  0  0  -0.135168  0  4.011984  0  0  -0.090605  -0.127464  0  3.972025  0
C  C38  1  0.38345618  0.26331100  0.91823444  1  0  -0.052248  0  3.759768  0  0  -0.067523  0  4.007369  0  0  -0.067638  0  4.028891  0  0  -0.089813  -0.067076  0  3.992313  0
C  C39  1  0.61654858  0.73669068  0.08176595  1  0  -0.052326  0  3.759747  0  0  -0.0676  0  4.007348  0  0  -0.067713  0  4.028868  0  0  -0.08982  -0.067152  0  3.99229  0
C  C40  1  0.22717994  0.16348703  0.93371413  1  0  -0.080974  0  3.780574  0  0  -0.094702  0  4.035669  0  0  -0.098364  0  4.056529  0  0  -0.095065  -0.092082  0  4.021035  0
C  C41  1  0.77281941  0.83651585  0.06628287  1  0  -0.080801  0  3.780715  0  0  -0.094517  0  4.035778  0  0  -0.098184  0  4.056647  0  0  -0.094998  -0.091896  0  4.021136  0
C  C42  1  0.22222485  0.15990489  0.03232651  1  0  -0.07578  0  3.757571  0  0  -0.102316  0  4.006699  0  0  -0.102075  0  4.02787  0  0  -0.09057  -0.102289  0  3.992361  0
C  C43  1  0.77777390  0.84009463  0.96767073  1  0  -0.075778  0  3.757754  0  0  -0.102323  0  4.006848  0  0  -0.102096  0  4.028008  0  0  -0.090551  -0.10228  0  3.992525  0
C  C44  1  0.37096021  0.25379674  0.11635401  1  0  -0.112586  0  3.72894  0  0  -0.095279  0  3.959226  0  0  -0.103743  0  3.981921  0  0  -0.016361  -0.089909  0  3.944645  0
C  C45  1  0.62903610  0.74620056  0.88364409  1  0  -0.112647  0  3.729085  0  0  -0.095316  0  3.959335  0  0  -0.10378  0  3.982035  0  0  -0.016389  -0.089947  0  3.94475  0
C  C46  1  0.64290898  0.37188493  0.73918352  1  0  0.133279  0  3.680186  0  0  0.103343  0  3.933523  0  0  0.109705  0  3.953277  0  0  0.053383  0.099321  0  3.919866  0
C  C47  1  0.35709154  0.62811343  0.26081666  1  0  0.133358  0  3.680128  0  0  0.103376  0  3.9335  0  0  0.109737  0  3.95325  0  0  0.053411  0.099351  0  3.919843  0
C  C48  1  0.77829026  0.45046573  0.83007632  1  0  -0.159668  0  3.673593  0  0  -0.179579  0  3.92315  0  0  -0.18717  0  3.945042  0  0  -0.070254  -0.174984  0  3.909168  0
C  C49  1  0.22170598  0.54953379  0.16992562  1  0  -0.159724  0  3.673759  0  0  -0.17962  0  3.923289  0  0  -0.18721  0  3.94518  0  0  -0.070278  -0.175037  0  3.909297  0
C  C50  1  0.86027953  0.37415594  0.88066666  1  0  0.19019  0  3.795061  0  0  0.192128  0  4.045648  0  0  0.196829  0  4.066544  0  0  0.106473  0.189137  0  4.031639  0
C  C51  1  0.13972219  0.62584464  0.11933465  1  0  0.190147  0  3.795206  0  0  0.192137  0  4.045715  0  0  0.196839  0  4.066608  0  0  0.106457  0.189144  0  4.031708  0
C  C52  1  0.80761525  0.22328450  0.83658542  1  0  -0.154895  0  3.652243  0  0  -0.174064  0  3.896928  0  0  -0.18182  0  3.917598  0  0  -0.066743  -0.169127  0  3.883316  0
C  C53  1  0.19238647  0.77671385  0.16341562  1  0  -0.154837  0  3.652196  0  0  -0.174028  0  3.89687  0  0  -0.181784  0  3.917541  0  0  -0.066717  -0.169089  0  3.883256  0
C  C54  1  0.67018409  0.15276349  0.74537401  1  0  0.135933  0  3.68845  0  0  0.106177  0  3.938551  0  0  0.113672  0  3.957069  0  0  0.052123  0.101336  0  3.925741  0
C  C55  1  0.32981700  0.84723597  0.25462852  1  0  0.135884  0  3.688402  0  0  0.106129  0  3.9385  0  0  0.113622  0  3.957017  0  0  0.052098  0.101282  0  3.925683  0
C  C56  1  0.25326340  0.79682508  0.48998180  1  0  0.638912  0  3.914004  0  0  0.587437  0  4.204397  0  0  0.622385  0  4.198898  0  0  0.197276  0.563646  0  4.207037  0
C  C57  1  0.74673895  0.20317439  0.51001802  1  0  0.638931  0  3.913869  0  0  0.587447  0  4.204278  0  0  0.622395  0  4.198776  0  0  0.197257  0.563655  0  4.206922  0
C  C58  1  0.16130935  0.63291449  0.44038604  1  0  -0.049736  0  3.780149  0  0  -0.022129  0  4.015564  0  0  -0.030652  0  4.040167  0  0  -0.019706  -0.01677  0  3.999327  0
C  C59  1  0.83869180  0.36708499  0.55961293  1  0  -0.049853  0  3.780193  0  0  -0.022245  0  4.015615  0  0  -0.030769  0  4.040221  0  0  -0.01975  -0.016886  0  3.999378  0
C  C60  1  0.23190920  0.53837521  0.47304285  1  0  -0.074971  0  3.652462  0  0  -0.117366  0  3.908915  0  0  -0.115863  0  3.928111  0  0  -0.079463  -0.118161  0  3.896365  0
C  C61  1  0.76809193  0.46162651  0.52695709  1  0  -0.07495  0  3.652429  0  0  -0.117338  0  3.908869  0  0  -0.115833  0  3.928058  0  0  -0.079461  -0.118126  0  3.896314  0
C  C62  1  0.14825949  0.38701921  0.41976308  1  0  -0.045908  0  3.777401  0  0  -0.021534  0  4.019862  0  0  -0.029097  0  4.04278  0  0  -0.016387  -0.016541  0  4.004111  0
C  C63  1  0.85174163  0.61298250  0.58023758  1  0  -0.045936  0  3.777428  0  0  -0.021566  0  4.019891  0  0  -0.029132  0  4.042807  0  0  -0.016365  -0.016573  0  4.004142  0
C  C64  1  0.00000580  0.33357694  0.33397205  1  0  -0.16412  0  3.695012  0  0  -0.201805  0  3.950443  0  0  -0.203142  0  3.967589  0  0  -0.092736  -0.200244  0  3.938467  0
C  C65  1  0.99999530  0.66642477  0.66602932  1  0  -0.164026  0  3.694975  0  0  -0.201701  0  3.950408  0  0  -0.203045  0  3.96757  0  0  -0.092718  -0.200141  0  3.938434  0
C  C66  1  0.92713658  0.42834978  0.30310029  1  0  0.26833  0  3.825146  0  0  0.265528  0  4.085922  0  0  0.274036  0  4.102974  0  0  0.081071  0.259389  0  4.074232  0
C  C67  1  0.07286271  0.57165083  0.69690072  1  0  0.268284  0  3.825202  0  0  0.265473  0  4.085984  0  0  0.273985  0  4.103029  0  0  0.081051  0.259335  0  4.074296  0
C  C68  1  0.00613846  0.57821065  0.35722438  1  0  -0.183483  0  3.692571  0  0  -0.220786  0  3.94644  0  0  -0.222761  0  3.965881  0  0  -0.095634  -0.218832  0  3.933189  0
C  C69  1  0.99386268  0.42179107  0.64277485  1  0  -0.183406  0  3.692564  0  0  -0.220707  0  3.946425  0  0  -0.222683  0  3.965866  0  0  -0.095609  -0.218753  0  3.933175  0
C  C70  1  0.21512673  0.28256968  0.45636540  1  0  0.667408  0  3.848781  0  0  0.609098  0  4.143715  0  0  0.644337  0  4.135982  0  0  0.218097  0.585136  0  4.147935  0
C  C71  1  0.78487378  0.71743092  0.54363576  1  0  0.6674  0  3.848835  0  0  0.609086  0  4.143783  0  0  0.644327  0  4.136047  0  0  0.218077  0.585122  0  4.148006  0
C  C72  1  0.69819560  0.45613793  0.18551125  1  0  0.038972  0  3.635596  0  0  -0.02796  0  3.904411  0  0  -0.019157  0  3.906769  0  0  -0.068459  -0.033931  0  3.902592  0
C  C73  1  0.30180373  0.54386045  0.81448807  1  0  0.039061  0  3.635526  0  0  -0.027892  0  3.904359  0  0  -0.019074  0  3.906701  0  0  -0.06842  -0.033862  0  3.90254  0
C  C74  1  0.35129112  0.24997224  0.21998304  1  0  0.640753  0  3.810627  0  0  0.592095  0  4.108537  0  0  0.625071  0  4.099836  0  0  0.22735  0.569716  0  4.114398  0
C  C75  1  0.64870816  0.75003061  0.78001825  1  0  0.640779  0  3.810467  0  0  0.59212  0  4.108363  0  0  0.625099  0  4.099662  0  0  0.227345  0.569742  0  4.114224  0
N  N76  1  0.58890960  0.22538958  0.69809545  1  0  -0.344519  0  3.268897  0  0  -0.265189  0  3.531042  0  0  -0.287437  0  3.552665  0  0  -0.325366  -0.249646  0  3.515469  0
N  N77  1  0.41109089  0.77460877  0.30190687  1  0  -0.344568  0  3.268896  0  0  -0.265219  0  3.531044  0  0  -0.287467  0  3.552668  0  0  -0.325379  -0.249674  0  3.51547  0
N  N78  1  0.99932895  0.44215819  0.97396266  1  0  -0.121334  0  2.950812  0  0  -0.096961  0  3.228938  0  0  -0.095794  0  3.233677  0  0  -0.122564  -0.097814  0  3.225682  0
N  N79  1  0.00067703  0.55784348  0.02603788  1  0  -0.121327  0  2.950833  0  0  -0.096971  0  3.22893  0  0  -0.095805  0  3.233669  0  0  -0.122505  -0.097824  0  3.225671  0
O  O80  1  0.16047656  0.87014188  0.47439561  1  0  -0.614019  0  1.987272  0  0  -0.543468  0  2.227303  0  0  -0.573766  0  2.218528  0  0  -0.321472  -0.52174  0  2.233573  0
O  O81  1  0.83952273  0.12985649  0.52560584  1  0  -0.614041  0  1.987273  0  0  -0.543479  0  2.227294  0  0  -0.573775  0  2.218517  0  0  -0.321441  -0.521751  0  2.233566  0
O  O82  1  0.41984319  0.85947236  0.54266834  1  0  -0.683071  0  1.990394  0  0  -0.617475  0  2.245322  0  0  -0.6459  0  2.231867  0  0  -0.340455  -0.596815  0  2.254052  0
O  O83  1  0.58015674  0.14052938  0.45733074  1  0  -0.683094  0  1.990336  0  0  -0.617492  0  2.245258  0  0  -0.645916  0  2.231804  0  0  -0.340461  -0.596832  0  2.253988  0
O  O84  1  0.32201655  0.32393573  0.54458694  1  0  -0.583016  0  1.965748  0  0  -0.513238  0  2.204866  0  0  -0.542498  0  2.196033  0  0  -0.298704  -0.492339  0  2.210092  0
O  O85  1  0.67798217  0.67606153  0.45541288  1  0  -0.582997  0  1.965707  0  0  -0.513242  0  2.204855  0  0  -0.5425  0  2.196022  0  0  -0.298698  -0.492342  0  2.210081  0
O  O86  1  0.16121697  0.14977547  0.39805656  1  0  -0.696494  0  2.054706  0  0  -0.619049  0  2.281503  0  0  -0.647198  0  2.268227  0  0  -0.32641  -0.59825  0  2.290637  0
O  O87  1  0.83878175  0.85022403  0.60194282  1  0  -0.696527  0  2.054745  0  0  -0.619041  0  2.281525  0  0  -0.647191  0  2.26825  0  0  -0.326413  -0.598242  0  2.29066  0
O  O88  1  0.78071466  0.36354944  0.21898162  1  0  -0.288469  0  2.286989  0  0  -0.221668  0  2.51756  0  0  -0.23908  0  2.51907  0  0  -0.189134  -0.209119  0  2.515851  0
O  O89  1  0.21928526  0.63645004  0.78101862  1  0  -0.288588  0  2.287048  0  0  -0.221775  0  2.517619  0  0  -0.23919  0  2.519124  0  0  -0.189208  -0.209226  0  2.515911  0
O  O90  1  0.44481069  0.35259189  0.29696072  1  0  -0.522736  0  1.961387  0  0  -0.478172  0  2.179381  0  0  -0.498333  0  2.172129  0  0  -0.270533  -0.46463  0  2.184322  0
O  O91  1  0.55517966  0.64740326  0.70303209  1  0  -0.522775  0  1.961052  0  0  -0.478195  0  2.179027  0  0  -0.498346  0  2.171743  0  0  -0.270504  -0.464653  0  2.183969  0
O  O92  1  0.21465437  0.12426409  0.22088147  1  0  -0.570785  0  2.077793  0  0  -0.518832  0  2.299531  0  0  -0.541631  0  2.284724  0  0  -0.340926  -0.502943  0  2.308897  0
O  O93  1  0.78534556  0.87573316  0.77911851  1  0  -0.570792  0  2.07786  0  0  -0.518834  0  2.299651  0  0  -0.541641  0  2.284871  0  0  -0.340952  -0.502942  0  2.309012  0
O  O94  1  0.18140813  0.07221699  0.67300741  1  0  -0.802705  0  1.813164  0  0  -0.751276  0  1.993733  0  0  -0.770874  0  1.967131  0  0  -0.57634  -0.737256  0  2.012643  0
O  O95  1  0.81859115  0.92778361  0.32699432  1  0  -0.802749  0  1.81316  0  0  -0.751321  0  1.993731  0  0  -0.770916  0  1.967132  0  0  -0.57635  -0.737305  0  2.012647  0
