# generated using pymatgen
data_Tb2H16C15O16
_symmetry_space_group_name_H-M   'P 1'
_cell_length_a   7.83494992
_cell_length_b   10.20786325
_cell_length_c   14.43066882
_cell_angle_alpha   70.82009145
_cell_angle_beta   74.23784129
_cell_angle_gamma   67.43541051
_symmetry_Int_Tables_number   1
_chemical_formula_structural   Tb2H16C15O16
_chemical_formula_sum   'Tb4 H32 C30 O32'
_cell_volume   992.50446829
_cell_formula_units_Z   2
loop_
 _symmetry_equiv_pos_site_id
 _symmetry_equiv_pos_as_xyz
  1  'x, y, z'
loop_
 _atom_site_type_symbol
 _atom_site_label
 _atom_site_symmetry_multiplicity
 _atom_site_fract_x
 _atom_site_fract_y
 _atom_site_fract_z
 _atom_site_occupancy
 _atom_site_hle17_bader_spin_density
 _atom_site_hle17_ddec_charge
 _atom_site_hle17_ddec_spin_density
 _atom_site_hle17_ddec_sum_bond_order
 _atom_site_hle17_magmom
 _atom_site_hse06_10hf_bader_spin_density
 _atom_site_hse06_10hf_ddec_charge
 _atom_site_hse06_10hf_ddec_spin_density
 _atom_site_hse06_10hf_ddec_sum_bond_order
 _atom_site_hse06_10hf_magmom
 _atom_site_hse06_bader_spin_density
 _atom_site_hse06_ddec_charge
 _atom_site_hse06_ddec_spin_density
 _atom_site_hse06_ddec_sum_bond_order
 _atom_site_hse06_magmom
 _atom_site_pbe_bader_spin_density
 _atom_site_pbe_cm5_charge
 _atom_site_pbe_ddec_charge
 _atom_site_pbe_ddec_spin_density
 _atom_site_pbe_ddec_sum_bond_order
 _atom_site_pbe_magmom
Tb  Tb0  1  0.88716459  0.87495274  0.61445309  1  0  2.277889  0  1.605477  0  0  2.126969  0  2.06967  0  0  2.252003  0  1.884149  0  0  1.495446  2.091789  0  2.099774  0
Tb  Tb1  1  0.37628576  0.62507685  0.88565170  1  0  2.278264  0  1.606561  0  0  2.127462  0  2.070786  0  0  2.252455  0  1.885304  0  0  1.496236  2.092224  0  2.101036  0
Tb  Tb2  1  0.11284124  0.12504201  0.38554825  1  0  2.277836  0  1.605505  0  0  2.126891  0  2.069714  0  0  2.25194  0  1.884181  0  0  1.495413  2.091703  0  2.09982  0
Tb  Tb3  1  0.62371146  0.37493107  0.11434524  1  0  2.278255  0  1.60661  0  0  2.127454  0  2.070826  0  0  2.252441  0  1.885348  0  0  1.496254  2.092267  0  2.100992  0
H  H4  1  0.77502664  0.59603492  0.71596369  1  0  0.433956  0  0.872124  0  0  0.400426  0  0.94044  0  0  0.412202  0  0.92366  0  0  0.297931  0.392181  0  0.952408  0
H  H5  1  0.08715413  0.90417119  0.78405062  1  0  0.434082  0  0.871923  0  0  0.401307  0  0.939101  0  0  0.413084  0  0.922308  0  0  0.2987  0.393028  0  0.951097  0
H  H6  1  0.22497533  0.40395764  0.28403883  1  0  0.433969  0  0.872083  0  0  0.400431  0  0.940417  0  0  0.412209  0  0.923635  0  0  0.297922  0.392187  0  0.952383  0
H  H7  1  0.91283895  0.09583343  0.21595243  1  0  0.434123  0  0.871861  0  0  0.401332  0  0.939068  0  0  0.41311  0  0.92227  0  0  0.298695  0.393052  0  0.951063  0
H  H8  1  0.72084099  0.66896899  0.60921152  1  0  0.438406  0  0.816463  0  0  0.417428  0  0.876826  0  0  0.426331  0  0.867007  0  0  0.320189  0.411225  0  0.884261  0
H  H9  1  0.99851762  0.83116161  0.89060211  1  0  0.43957  0  0.815036  0  0  0.418554  0  0.875637  0  0  0.427448  0  0.865798  0  0  0.320687  0.412365  0  0.883048  0
H  H10  1  0.27914066  0.33103670  0.39079840  1  0  0.438439  0  0.816367  0  0  0.417466  0  0.876721  0  0  0.426368  0  0.866905  0  0  0.320193  0.411265  0  0.884154  0
H  H11  1  0.00147784  0.16882110  0.10939541  1  0  0.439498  0  0.815058  0  0  0.418508  0  0.875603  0  0  0.427398  0  0.865771  0  0  0.320673  0.412318  0  0.883009  0
H  H12  1  0.47519904  0.01796415  0.58962884  1  0  0.438704  0  0.816942  0  0  0.418862  0  0.874502  0  0  0.426714  0  0.866538  0  0  0.324481  0.413542  0  0.880284  0
H  H13  1  0.08270550  0.48213537  0.91024301  1  0  0.438223  0  0.817104  0  0  0.417957  0  0.875284  0  0  0.425793  0  0.867373  0  0  0.324582  0.412691  0  0.880935  0
H  H14  1  0.52480552  0.98201541  0.41032673  1  0  0.438499  0  0.81715  0  0  0.418643  0  0.874735  0  0  0.426496  0  0.866777  0  0  0.324425  0.413322  0  0.880511  0
H  H15  1  0.91721441  0.51788664  0.08980343  1  0  0.438085  0  0.81712  0  0  0.417902  0  0.875225  0  0  0.425741  0  0.867294  0  0  0.324494  0.412639  0  0.880878  0
H  H16  1  0.50441402  0.87997913  0.68148936  1  0  0.431831  0  0.869919  0  0  0.400599  0  0.935336  0  0  0.411068  0  0.920446  0  0  0.305345  0.392966  0  0.946514  0
H  H17  1  0.06591243  0.62024047  0.81849933  1  0  0.431799  0  0.869977  0  0  0.4006  0  0.935178  0  0  0.411073  0  0.920283  0  0  0.305868  0.392963  0  0.946345  0
H  H18  1  0.49558013  0.12003869  0.31849553  1  0  0.431773  0  0.869959  0  0  0.400528  0  0.935424  0  0  0.410996  0  0.920534  0  0  0.305287  0.392892  0  0.94661  0
H  H19  1  0.93408271  0.37973783  0.18150911  1  0  0.431861  0  0.869904  0  0  0.400647  0  0.93513  0  0  0.411119  0  0.920236  0  0  0.305875  0.393009  0  0.946298  0
H  H20  1  0.51290535  0.36840018  0.67729463  1  0  0.130234  0  0.942535  0  0  0.135525  0  1.009729  0  0  0.140383  0  1.005589  0  0  0.115131  0.132191  0  1.012305  0
H  H21  1  0.55737351  0.13198465  0.82267723  1  0  0.129621  0  0.943522  0  0  0.135213  0  1.010269  0  0  0.140078  0  1.006134  0  0  0.116055  0.131816  0  1.012861  0
H  H22  1  0.48709390  0.63159348  0.32270732  1  0  0.13019  0  0.942536  0  0  0.135456  0  1.009784  0  0  0.14032  0  1.005627  0  0  0.115111  0.132125  0  1.012359  0
H  H23  1  0.44262211  0.86802108  0.17732128  1  0  0.129569  0  0.943541  0  0  0.135147  0  1.010312  0  0  0.140009  0  1.006186  0  0  0.116022  0.131752  0  1.012895  0
H  H24  1  0.23834984  0.23698295  0.64768064  1  0  0.102329  0  0.928565  0  0  0.117435  0  0.985888  0  0  0.119484  0  0.984958  0  0  0.097822  0.116015  0  0.986392  0
H  H25  1  0.12284861  0.26353832  0.85189912  1  0  0.102934  0  0.928244  0  0  0.118684  0  0.985047  0  0  0.120687  0  0.984168  0  0  0.098606  0.117241  0  0.985552  0
H  H26  1  0.76166276  0.76301070  0.35232521  1  0  0.102301  0  0.928621  0  0  0.117379  0  0.985977  0  0  0.119428  0  0.985045  0  0  0.097805  0.11596  0  0.986481  0
H  H27  1  0.87715517  0.73646411  0.14810111  1  0  0.102908  0  0.928262  0  0  0.118695  0  0.98506  0  0  0.1207  0  0.984178  0  0  0.098593  0.11725  0  0.985563  0
H  H28  1  0.24176377  0.07737824  0.74831748  1  0  0.114722  0  0.934726  0  0  0.13003  0  0.991636  0  0  0.132335  0  0.990994  0  0  0.104034  0.128469  0  0.991768  0
H  H29  1  0.06712828  0.42338557  0.75146199  1  0  0.114793  0  0.93637  0  0  0.13017  0  0.993047  0  0  0.132429  0  0.99249  0  0  0.104719  0.128663  0  0.993119  0
H  H30  1  0.75823183  0.92261102  0.25168671  1  0  0.114747  0  0.934641  0  0  0.130068  0  0.991546  0  0  0.132373  0  0.9909  0  0  0.104014  0.128506  0  0.99168  0
H  H31  1  0.93287574  0.57661248  0.24853790  1  0  0.114772  0  0.93638  0  0  0.130168  0  0.993068  0  0  0.132429  0  0.992509  0  0  0.104705  0.128651  0  0.993148  0
H  H32  1  0.88021020  0.32714833  0.69734686  1  0  0.07399  0  0.920729  0  0  0.093916  0  0.976534  0  0  0.094722  0  0.977122  0  0  0.096673  0.09326  0  0.976159  0
H  H33  1  0.90417281  0.17378706  0.80202348  1  0  0.072924  0  0.920921  0  0  0.092835  0  0.976762  0  0  0.093643  0  0.977315  0  0  0.095794  0.092269  0  0.976174  0
H  H34  1  0.11979060  0.67284751  0.30265756  1  0  0.074016  0  0.920642  0  0  0.093896  0  0.976478  0  0  0.094704  0  0.977066  0  0  0.096687  0.093241  0  0.976101  0
H  H35  1  0.09582912  0.82620988  0.19798185  1  0  0.072956  0  0.920963  0  0  0.092849  0  0.976769  0  0  0.093659  0  0.97732  0  0  0.095783  0.092282  0  0.976181  0
C  C36  1  0.60287929  0.35019077  0.52602391  1  0  -0.054152  0  3.706441  0  0  -0.044533  0  3.946484  0  0  -0.048506  0  3.964089  0  0  -0.002072  -0.041499  0  3.93395  0
C  C37  1  0.47900047  0.14981188  0.97403131  1  0  -0.052268  0  3.702455  0  0  -0.041863  0  3.941596  0  0  -0.045782  0  3.959177  0  0  -0.001324  -0.039325  0  3.929147  0
C  C38  1  0.39712701  0.64980727  0.47397636  1  0  -0.054101  0  3.70606  0  0  -0.044456  0  3.946077  0  0  -0.048425  0  3.963681  0  0  -0.002025  -0.041422  0  3.933542  0
C  C39  1  0.52099311  0.85019604  0.02596663  1  0  -0.052203  0  3.702537  0  0  -0.041868  0  3.941721  0  0  -0.045793  0  3.959301  0  0  -0.001329  -0.039331  0  3.92927  0
C  C40  1  0.59668973  0.42387569  0.42494893  1  0  -0.041574  0  3.663304  0  0  -0.029808  0  3.900864  0  0  -0.031886  0  3.916785  0  0  0.006602  -0.028494  0  3.889627  0
C  C41  1  0.44609906  0.07592193  0.07511094  1  0  -0.044295  0  3.661258  0  0  -0.032485  0  3.899701  0  0  -0.034576  0  3.915605  0  0  0.00587  -0.031326  0  3.888646  0
C  C42  1  0.40331382  0.57612125  0.57505343  1  0  -0.0415  0  3.663172  0  0  -0.029733  0  3.900733  0  0  -0.031808  0  3.916661  0  0  0.006643  -0.028414  0  3.889493  0
C  C43  1  0.55388994  0.92408598  0.92489028  1  0  -0.044279  0  3.661492  0  0  -0.032467  0  3.899903  0  0  -0.034554  0  3.915813  0  0  0.005782  -0.031306  0  3.888845  0
C  C44  1  0.50689801  0.42709119  0.59940336  1  0  -0.077614  0  3.665216  0  0  -0.111326  0  3.918934  0  0  -0.110945  0  3.934379  0  0  -0.068809  -0.11124  0  3.90765  0
C  C45  1  0.53260088  0.07315088  0.90057833  1  0  -0.077574  0  3.664536  0  0  -0.111951  0  3.918637  0  0  -0.11155  0  3.934024  0  0  -0.070333  -0.111315  0  3.907079  0
C  C46  1  0.49311081  0.57290028  0.40059557  1  0  -0.077502  0  3.66494  0  0  -0.111216  0  3.918682  0  0  -0.110835  0  3.934128  0  0  -0.068784  -0.111133  0  3.907401  0
C  C47  1  0.46739859  0.92685922  0.09942040  1  0  -0.077536  0  3.664351  0  0  -0.111876  0  3.91845  0  0  -0.111482  0  3.933846  0  0  -0.070344  -0.111236  0  3.906891  0
C  C48  1  0.70143304  0.18988985  0.55990494  1  0  0.668921  0  3.903758  0  0  0.622658  0  4.19581  0  0  0.656622  0  4.194088  0  0  0.209998  0.599161  0  4.20263  0
C  C49  1  0.45110111  0.31011239  0.94023043  1  0  0.668858  0  3.903836  0  0  0.622779  0  4.195392  0  0  0.65676  0  4.193622  0  0  0.210607  0.599873  0  4.201415  0
C  C50  1  0.29856891  0.81011367  0.44009649  1  0  0.668866  0  3.904119  0  0  0.622582  0  4.196188  0  0  0.656543  0  4.194476  0  0  0.209959  0.599085  0  4.203003  0
C  C51  1  0.54890364  0.68989554  0.05976293  1  0  0.668691  0  3.903839  0  0  0.62266  0  4.195332  0  0  0.656654  0  4.19355  0  0  0.210578  0.599752  0  4.201356  0
C  C52  1  0.69510556  0.35602619  0.33798356  1  0  0.73479  0  3.828325  0  0  0.682035  0  4.126976  0  0  0.71804  0  4.118883  0  0  0.245467  0.657487  0  4.135865  0
C  C53  1  0.38986562  0.14379084  0.16207084  1  0  0.740042  0  3.820671  0  0  0.686097  0  4.12137  0  0  0.722132  0  4.113146  0  0  0.247226  0.661613  0  4.13035  0
C  C54  1  0.30489299  0.64397295  0.66201854  1  0  0.734971  0  3.828089  0  0  0.682184  0  4.126797  0  0  0.718176  0  4.118722  0  0  0.245543  0.657626  0  4.135705  0
C  C55  1  0.61014294  0.85621598  0.83792733  1  0  0.739829  0  3.821  0  0  0.685985  0  4.121517  0  0  0.722009  0  4.113319  0  0  0.247263  0.661501  0  4.130492  0
C  C56  1  0.11234638  0.09766026  0.62759238  1  0  0.758339  0  3.788573  0  0  0.712487  0  4.089423  0  0  0.748009  0  4.08148  0  0  0.233493  0.688896  0  4.09611  0
C  C57  1  0.83745273  0.40261670  0.87222852  1  0  0.755041  0  3.790671  0  0  0.709348  0  4.091555  0  0  0.744892  0  4.083675  0  0  0.232224  0.685874  0  4.098335  0
C  C58  1  0.88765993  0.90234108  0.37240595  1  0  0.757982  0  3.788595  0  0  0.712175  0  4.089414  0  0  0.747696  0  4.081471  0  0  0.23331  0.688584  0  4.096101  0
C  C59  1  0.16255856  0.59738354  0.12777077  1  0  0.754988  0  3.790719  0  0  0.709376  0  4.091519  0  0  0.744914  0  4.083646  0  0  0.232321  0.6859  0  4.098294  0
C  C60  1  0.15777437  0.16387275  0.69385937  1  0  -0.28321  0  3.657594  0  0  -0.320391  0  3.907279  0  0  -0.325731  0  3.912618  0  0  -0.166939  -0.31616  0  3.902019  0
C  C61  1  0.01529365  0.33671333  0.80581983  1  0  -0.283118  0  3.657774  0  0  -0.320797  0  3.907347  0  0  -0.326089  0  3.912744  0  0  -0.167763  -0.316734  0  3.902121  0
C  C62  1  0.84222914  0.83611870  0.30614758  1  0  -0.28301  0  3.657555  0  0  -0.320215  0  3.907161  0  0  -0.325569  0  3.912534  0  0  -0.166831  -0.315981  0  3.901897  0
C  C63  1  0.98470856  0.66328472  0.19418056  1  0  -0.283102  0  3.657744  0  0  -0.320932  0  3.907404  0  0  -0.32622  0  3.912797  0  0  -0.167786  -0.31685  0  3.902167  0
C  C64  1  0.97523431  0.25041749  0.74974356  1  0  -0.03495  0  3.638334  0  0  -0.075181  0  3.894673  0  0  -0.074943  0  3.907553  0  0  -0.152646  -0.07497  0  3.885015  0
C  C65  1  0.02476813  0.74958166  0.25025595  1  0  -0.035092  0  3.638265  0  0  -0.075184  0  3.894538  0  0  -0.074947  0  3.907411  0  0  -0.15265  -0.074976  0  3.884876  0
O  O66  1  0.66110583  0.12110279  0.64849334  1  0  -0.646819  0  1.982401  0  0  -0.602711  0  2.219573  0  0  -0.633044  0  2.212258  0  0  -0.333477  -0.586195  0  2.223804  0
O  O67  1  0.43029199  0.37901166  0.85169368  1  0  -0.647811  0  1.981497  0  0  -0.604179  0  2.219037  0  0  -0.634454  0  2.211658  0  0  -0.334369  -0.587249  0  2.222791  0
O  O68  1  0.33890157  0.87889306  0.35150978  1  0  -0.646783  0  1.982469  0  0  -0.602653  0  2.219632  0  0  -0.632985  0  2.212319  0  0  -0.333439  -0.586139  0  2.223861  0
O  O69  1  0.56971095  0.62099079  0.14830072  1  0  -0.647718  0  1.981486  0  0  -0.604086  0  2.219002  0  0  -0.634366  0  2.211621  0  0  -0.334321  -0.587156  0  2.222756  0
O  O70  1  0.82432201  0.12046926  0.49704609  1  0  -0.837864  0  2.205671  0  0  -0.777619  0  2.46188  0  0  -0.821785  0  2.452195  0  0  -0.440418  -0.759295  0  2.467332  0
O  O71  1  0.44190508  0.37939822  0.00310321  1  0  -0.837749  0  2.210042  0  0  -0.777288  0  2.465424  0  0  -0.821351  0  2.455722  0  0  -0.440038  -0.759083  0  2.470967  0
O  O72  1  0.17568768  0.87952440  0.50295601  1  0  -0.837799  0  2.205898  0  0  -0.777575  0  2.462156  0  0  -0.821741  0  2.45248  0  0  -0.440399  -0.759253  0  2.467604  0
O  O73  1  0.55809793  0.62061082  0.99688325  1  0  -0.837727  0  2.209966  0  0  -0.777229  0  2.465241  0  0  -0.821299  0  2.455541  0  0  -0.440042  -0.759034  0  2.470812  0
O  O74  1  0.81799492  0.64983470  0.64660756  1  0  -0.889593  0  1.86206  0  0  -0.846258  0  2.062594  0  0  -0.872452  0  2.028104  0  0  -0.635992  -0.834018  0  2.083202  0
O  O75  1  0.11414482  0.85020124  0.85344515  1  0  -0.891033  0  1.861688  0  0  -0.848475  0  2.061539  0  0  -0.874697  0  2.027004  0  0  -0.637237  -0.836323  0  2.082149  0
O  O76  1  0.18199977  0.35016115  0.35339502  1  0  -0.889607  0  1.861942  0  0  -0.846272  0  2.062465  0  0  -0.87247  0  2.027977  0  0  -0.635948  -0.834028  0  2.083071  0
O  O77  1  0.88584690  0.14980118  0.14655789  1  0  -0.890974  0  1.86161  0  0  -0.848428  0  2.061462  0  0  -0.874645  0  2.026928  0  0  -0.637217  -0.836281  0  2.082068  0
O  O78  1  0.55327625  0.91630349  0.60996665  1  0  -0.875372  0  1.873301  0  0  -0.830503  0  2.065085  0  0  -0.856083  0  2.034446  0  0  -0.613574  -0.81787  0  2.083032  0
O  O79  1  0.07941793  0.58380486  0.89003592  1  0  -0.87478  0  1.874671  0  0  -0.829378  0  2.067777  0  0  -0.855003  0  2.037138  0  0  -0.614211  -0.816842  0  2.085406  0
O  O80  1  0.44674044  0.08368803  0.39001901  1  0  -0.875126  0  1.873419  0  0  -0.830204  0  2.065122  0  0  -0.855788  0  2.034498  0  0  -0.613488  -0.817566  0  2.083065  0
O  O81  1  0.92057554  0.41620083  0.10997277  1  0  -0.874695  0  1.874489  0  0  -0.829446  0  2.067494  0  0  -0.855062  0  2.036854  0  0  -0.61416  -0.816912  0  2.08512  0
O  O82  1  0.87306894  0.32706227  0.31383284  1  0  -0.740597  0  2.079485  0  0  -0.681911  0  2.330056  0  0  -0.718841  0  2.316741  0  0  -0.38671  -0.663138  0  2.33791  0
O  O83  1  0.51477347  0.17254554  0.18627004  1  0  -0.743224  0  2.078667  0  0  -0.684041  0  2.329817  0  0  -0.720847  0  2.31643  0  0  -0.387661  -0.665131  0  2.337811  0
O  O84  1  0.12693397  0.67293030  0.68616740  1  0  -0.7407  0  2.079486  0  0  -0.682039  0  2.330101  0  0  -0.718957  0  2.316784  0  0  -0.386779  -0.663269  0  2.337969  0
O  O85  1  0.48522220  0.82747336  0.81372068  1  0  -0.743007  0  2.078472  0  0  -0.68394  0  2.329683  0  0  -0.720748  0  2.316313  0  0  -0.387608  -0.665024  0  2.337672  0
O  O86  1  0.59426756  0.34439589  0.28833429  1  0  -0.688746  0  2.033203  0  0  -0.638246  0  2.287938  0  0  -0.672172  0  2.272849  0  0  -0.365093  -0.621261  0  2.295701  0
O  O87  1  0.22752633  0.15584275  0.21159170  1  0  -0.69042  0  2.028636  0  0  -0.639839  0  2.284256  0  0  -0.673782  0  2.269113  0  0  -0.365496  -0.622375  0  2.291633  0
O  O88  1  0.40573740  0.65561094  0.71166083  1  0  -0.688821  0  2.033145  0  0  -0.638288  0  2.287885  0  0  -0.672213  0  2.272802  0  0  -0.365122  -0.62128  0  2.295624  0
O  O89  1  0.77248426  0.84415420  0.78841023  1  0  -0.690391  0  2.028847  0  0  -0.63981  0  2.284388  0  0  -0.673741  0  2.26924  0  0  -0.365518  -0.622347  0  2.291765  0
O  O90  1  0.04919315  0.98967083  0.66918071  1  0  -0.726197  0  2.069041  0  0  -0.664361  0  2.311423  0  0  -0.699959  0  2.298893  0  0  -0.365343  -0.645723  0  2.317633  0
O  O91  1  0.70769885  0.51057461  0.83078472  1  0  -0.723781  0  2.069822  0  0  -0.662394  0  2.312829  0  0  -0.698135  0  2.300412  0  0  -0.365027  -0.644134  0  2.319359  0
O  O92  1  0.95080953  0.01033271  0.33081598  1  0  -0.726094  0  2.068992  0  0  -0.664262  0  2.311358  0  0  -0.69986  0  2.298828  0  0  -0.365263  -0.645626  0  2.317569  0
O  O93  1  0.29229973  0.48942563  0.16921402  1  0  -0.723643  0  2.06991  0  0  -0.662265  0  2.312857  0  0  -0.698  0  2.30044  0  0  -0.364992  -0.644012  0  2.319386  0
O  O94  1  0.13320293  0.15703391  0.53493283  1  0  -0.724326  0  2.027515  0  0  -0.672513  0  2.280317  0  0  -0.70843  0  2.26665  0  0  -0.397632  -0.654426  0  2.286981  0
O  O95  1  0.82518656  0.34307146  0.96486136  1  0  -0.723341  0  2.02823  0  0  -0.671432  0  2.280964  0  0  -0.707451  0  2.267366  0  0  -0.397606  -0.653809  0  2.287601  0
O  O96  1  0.86681381  0.84295865  0.46506816  1  0  -0.724192  0  2.027487  0  0  -0.672386  0  2.280253  0  0  -0.708301  0  2.266593  0  0  -0.397583  -0.654299  0  2.286915  0
O  O97  1  0.17482240  0.65693643  0.03514245  1  0  -0.723372  0  2.028191  0  0  -0.671488  0  2.280908  0  0  -0.707519  0  2.267337  0  0  -0.397738  -0.653861  0  2.287549  0
