# generated using pymatgen
data_AlH22C22N2O5
_symmetry_space_group_name_H-M   'P 1'
_cell_length_a   6.77503323
_cell_length_b   22.52702001
_cell_length_c   26.46108259
_cell_angle_alpha   101.05733181
_cell_angle_beta   89.99917187
_cell_angle_gamma   90.00015343
_symmetry_Int_Tables_number   1
_chemical_formula_structural   AlH22C22N2O5
_chemical_formula_sum   'Al4 H88 C88 N8 O20'
_cell_volume   3963.55293156
_cell_formula_units_Z   4
loop_
 _symmetry_equiv_pos_site_id
 _symmetry_equiv_pos_as_xyz
  1  'x, y, z'
loop_
 _atom_site_type_symbol
 _atom_site_label
 _atom_site_symmetry_multiplicity
 _atom_site_fract_x
 _atom_site_fract_y
 _atom_site_fract_z
 _atom_site_occupancy
 _atom_site_pbe_bader_charge
 _atom_site_pbe_bader_spin_density
 _atom_site_pbe_cm5_charge
 _atom_site_pbe_ddec_charge
 _atom_site_pbe_ddec_spin_density
 _atom_site_pbe_ddec_sum_bond_order
 _atom_site_pbe_magmom
Al  Al0  1  0.79595948  0.24964497  0.25095051  1  2.501822  0  0.403298  1.639993  0  2.574635  0
Al  Al1  1  0.20796311  0.75013002  0.74815184  1  2.503454  0  0.404647  1.641269  0  2.573538  0
Al  Al2  1  0.29596053  0.25035761  0.24904608  1  2.50164  0  0.403295  1.639968  0  2.574699  0
Al  Al3  1  0.70796497  0.74986820  0.75184804  1  2.503461  0  0.404603  1.641236  0  2.573663  0
H  H4  1  0.28989327  0.44099668  0.51057478  1  0.073845  0  0.096338  0.088364  0  1.059392  0
H  H5  1  0.69578436  0.55748533  0.48882458  1  0.072247  0  0.099119  0.095218  0  1.038175  0
H  H6  1  0.78986640  0.05900466  0.98941351  1  0.074096  0  0.09633  0.088283  0  1.05944  0
H  H7  1  0.19577582  0.94251095  0.01117520  1  0.072114  0  0.099118  0.095222  0  1.038214  0
H  H8  1  0.95607269  0.45230673  0.57530492  1  0.071392  0  0.102954  0.095491  0  0.983937  0
H  H9  1  0.03370381  0.54709663  0.42479187  1  0.06578  0  0.103495  0.097354  0  0.980956  0
H  H10  1  0.45603369  0.04769544  0.92469777  1  0.071575  0  0.102985  0.095515  0  0.983865  0
H  H11  1  0.53370741  0.95290039  0.07520658  1  0.065719  0  0.103518  0.097333  0  0.980878  0
H  H12  1  0.25742401  0.54466752  0.89873477  1  0.067964  0  0.104298  0.106504  0  1.019218  0
H  H13  1  0.75896560  0.38130032  0.04485266  1  0.103158  0  0.102811  0.099667  0  1.053537  0
H  H14  1  0.75741576  0.95533203  0.60126531  1  0.067924  0  0.104298  0.106513  0  1.019295  0
H  H15  1  0.25894297  0.11869195  0.45514136  1  0.10565  0  0.102779  0.0997  0  1.053464  0
H  H16  1  0.68209296  0.67181636  0.87883532  1  0.084375  0  0.106964  0.111596  0  1.01602  0
H  H17  1  0.32775826  0.37642565  0.15898030  1  0.091161  0  0.107149  0.113004  0  1.014042  0
H  H18  1  0.18208039  0.82819178  0.62116312  1  0.084197  0  0.107016  0.111618  0  1.016094  0
H  H19  1  0.82773340  0.12357589  0.34101579  1  0.091042  0  0.107149  0.113101  0  1.014173  0
H  H20  1  0.60626702  0.66846291  0.55433670  1  0.019405  0  0.077257  0.09927  0  1.013819  0
H  H21  1  0.37787194  0.69086317  0.58538832  1  -0.000277  0  0.082038  0.109408  0  1.011599  0
H  H22  1  0.57273893  0.66466988  0.62012047  1  0.057979  0  0.085157  0.12307  0  1.040439  0
H  H23  1  0.31605048  0.58475535  0.59656221  1  0.034235  0  0.085343  0.078939  0  1.010176  0
H  H24  1  0.53853708  0.56035337  0.56528715  1  0.017591  0  0.081031  0.066532  0  1.018448  0
H  H25  1  0.41687843  0.57534342  0.48228982  1  0.022248  0  0.087732  0.078844  0  1.012388  0
H  H26  1  0.23956255  0.62787522  0.51126888  1  0.031974  0  0.095444  0.095028  0  0.974491  0
H  H27  1  0.40851707  0.32945009  0.50664400  1  0.02163  0  0.081004  0.101954  0  1.010715  0
H  H28  1  0.44881694  0.31979561  0.43930396  1  0.023086  0  0.085859  0.111564  0  1.015443  0
H  H29  1  0.55043530  0.26732398  0.47437982  1  0.042354  0  0.086697  0.118033  0  1.005544  0
H  H30  1  0.81329169  0.33794066  0.45486025  1  0.022049  0  0.089034  0.082872  0  0.991646  0
H  H31  1  0.77394682  0.34955666  0.52203259  1  0.008345  0  0.085771  0.070469  0  0.979572  0
H  H32  1  0.55721716  0.43794493  0.51787394  1  0.016564  0  0.092138  0.086537  0  1.011543  0
H  H33  1  0.58290748  0.42547359  0.45013093  1  0.020724  0  0.097427  0.0992  0  0.967544  0
H  H34  1  0.10625983  0.83153739  0.94566009  1  0.019548  0  0.077279  0.099321  0  1.013823  0
H  H35  1  0.87787587  0.80913398  0.91460746  1  -0.000326  0  0.082056  0.109398  0  1.01164  0
H  H36  1  0.07273438  0.83533215  0.87987799  1  0.057892  0  0.085172  0.123043  0  1.040406  0
H  H37  1  0.81602709  0.91523948  0.90343688  1  0.034154  0  0.085329  0.078909  0  1.010263  0
H  H38  1  0.03850852  0.93964756  0.93471220  1  0.017652  0  0.081023  0.066462  0  1.018551  0
H  H39  1  0.91684490  0.92465530  0.01770992  1  0.022271  0  0.087763  0.078859  0  1.012306  0
H  H40  1  0.73952683  0.87212481  0.98873127  1  0.032495  0  0.095447  0.095016  0  0.974432  0
H  H41  1  0.90851081  0.17055912  0.99336618  1  0.022017  0  0.080997  0.101902  0  1.010769  0
H  H42  1  0.94881227  0.18021148  0.06070554  1  0.023303  0  0.085843  0.111539  0  1.015649  0
H  H43  1  0.05044948  0.23267913  0.02562807  1  0.042375  0  0.086695  0.118083  0  1.005495  0
H  H44  1  0.31328941  0.16205749  0.04514243  1  0.022039  0  0.089018  0.08279  0  0.991704  0
H  H45  1  0.27392665  0.15044306  0.97797230  1  0.007786  0  0.085712  0.070372  0  0.979509  0
H  H46  1  0.05720457  0.06205768  0.98213098  1  0.017141  0  0.092083  0.086501  0  1.011583  0
H  H47  1  0.08288621  0.07452461  0.04987298  1  0.020667  0  0.097418  0.099158  0  0.967521  0
H  H48  1  0.42469050  0.57187074  0.83382889  1  0.021373  0  0.08865  0.124598  0  1.002369  0
H  H49  1  0.28693805  0.59325942  0.78276930  1  0.067515  0  0.094856  0.132368  0  0.988611  0
H  H50  1  0.39968818  0.64934558  0.82861085  1  0.103387  0  0.100924  0.149275  0  1.006355  0
H  H51  1  0.59513416  0.30719531  0.07569110  1  0.00486  0  0.089946  0.128107  0  0.995444  0
H  H52  1  0.73277169  0.25650174  0.10609224  1  0.02704  0  0.093788  0.13107  0  1.014621  0
H  H53  1  0.60892254  0.31721372  0.14423259  1  0.0937  0  0.100461  0.148722  0  1.004201  0
H  H54  1  0.92468490  0.92812634  0.66616480  1  0.021679  0  0.08871  0.124584  0  1.002394  0
H  H55  1  0.78692430  0.90673824  0.71722836  1  0.067354  0  0.094776  0.132215  0  0.98864  0
H  H56  1  0.89967565  0.85064887  0.67138485  1  0.103574  0  0.10091  0.149238  0  1.006297  0
H  H57  1  0.09511993  0.19280412  0.42431046  1  0.004759  0  0.089963  0.128149  0  0.99533  0
H  H58  1  0.23277108  0.24349878  0.39390881  1  0.027122  0  0.093796  0.131087  0  1.014509  0
H  H59  1  0.10890484  0.18278793  0.35576700  1  0.093794  0  0.100489  0.148775  0  1.004175  0
H  H60  1  0.35308150  0.67480053  0.02677075  1  -0.004586  0  0.082072  0.109386  0  1.004597  0
H  H61  1  0.41729364  0.60696042  0.04696902  1  0.068568  0  0.08539  0.116705  0  1.034723  0
H  H62  1  0.50226287  0.67752105  0.08254726  1  0.025548  0  0.080982  0.105315  0  1.009771  0
H  H63  1  0.77719085  0.62507291  0.02836277  1  0.011719  0  0.081061  0.064807  0  0.996104  0
H  H64  1  0.71262154  0.69200592  0.00724845  1  0.035805  0  0.082949  0.068804  0  0.979524  0
H  H65  1  0.49869370  0.63158091  0.93798386  1  0.020784  0  0.092698  0.09695  0  0.986762  0
H  H66  1  0.57020617  0.56460343  0.95842333  1  0.099727  0  0.091332  0.088029  0  1.036962  0
H  H67  1  0.73178088  0.51253689  0.14120489  1  0.002195  0  0.081358  0.108313  0  1.009464  0
H  H68  1  0.65498775  0.54596853  0.08892811  1  0.011519  0  0.082551  0.112961  0  1.015782  0
H  H69  1  0.62377470  0.58590024  0.15312544  1  0.023328  0  0.083289  0.107587  0  1.006956  0
H  H70  1  0.30071258  0.54087271  0.11587414  1  0.013931  0  0.083557  0.067818  0  1.007109  0
H  H71  1  0.37284594  0.50895264  0.16911609  1  0.000104  0  0.083096  0.07039  0  0.978695  0
H  H72  1  0.52291222  0.42160944  0.10938817  1  0.006632  0  0.089521  0.090032  0  1.012328  0
H  H73  1  0.44635378  0.45254480  0.05586517  1  0.091875  0  0.092219  0.089187  0  1.03206  0
H  H74  1  0.85306902  0.82519472  0.47323306  1  -0.004869  0  0.082039  0.109313  0  1.004494  0
H  H75  1  0.91728283  0.89303502  0.45302994  1  0.06833  0  0.085396  0.116653  0  1.034713  0
H  H76  1  0.00226010  0.82246986  0.41745553  1  0.025566  0  0.080949  0.105283  0  1.009728  0
H  H77  1  0.27718182  0.87491903  0.47163785  1  0.011956  0  0.08108  0.064881  0  0.996122  0
H  H78  1  0.21259310  0.80799408  0.49276013  1  0.035752  0  0.083072  0.068943  0  0.979614  0
H  H79  1  0.99867802  0.86842804  0.56201958  1  0.022612  0  0.092713  0.096929  0  0.986829  0
H  H80  1  0.07019410  0.93540207  0.54157476  1  0.099624  0  0.091276  0.087923  0  1.037095  0
H  H81  1  0.23177896  0.98746138  0.35880399  1  0.002372  0  0.081311  0.108272  0  1.009507  0
H  H82  1  0.15495513  0.95402786  0.41107798  1  0.011344  0  0.082552  0.113028  0  1.015761  0
H  H83  1  0.12377586  0.91409595  0.34687961  1  0.023216  0  0.08338  0.107701  0  1.006741  0
H  H84  1  0.80069750  0.95912526  0.38412371  1  0.014139  0  0.083553  0.067817  0  1.007099  0
H  H85  1  0.87285568  0.99104086  0.33087995  1  0.000491  0  0.083123  0.070413  0  0.978631  0
H  H86  1  0.02289977  0.07838856  0.39060865  1  0.006751  0  0.089522  0.090054  0  1.012372  0
H  H87  1  0.94631458  0.04745546  0.44413163  1  0.091934  0  0.09226  0.089345  0  1.032051  0
H  H88  1  0.54635229  0.32770036  0.27270101  1  0.62435  0  0.351491  0.428259  0  0.855123  0
H  H89  1  0.45930744  0.67136761  0.73004692  1  0.614924  0  0.3523  0.428078  0  0.855669  0
H  H90  1  0.04635246  0.17230124  0.22729612  1  0.62434  0  0.351475  0.428255  0  0.855186  0
H  H91  1  0.95929861  0.82862878  0.76994779  1  0.615027  0  0.352332  0.428108  0  0.855408  0
C  C92  1  0.54213059  0.19005917  0.31641299  1  1.567899  0  0.268195  0.648173  0  4.080248  0
C  C93  1  0.46161483  0.81465145  0.68690037  1  1.578114  0  0.267471  0.648539  0  4.083448  0
C  C94  1  0.04213731  0.30994596  0.18358801  1  1.56802  0  0.268367  0.64846  0  4.079995  0
C  C95  1  0.96162589  0.68535074  0.81310243  1  1.57803  0  0.267561  0.648755  0  4.083947  0
C  C96  1  0.54825413  0.16986765  0.17534384  1  1.650867  0  0.275458  0.724425  0  4.160097  0
C  C97  1  0.45521529  0.83000345  0.82492344  1  1.637591  0  0.275664  0.716635  0  4.159852  0
C  C98  1  0.04822624  0.33013436  0.32465713  1  1.651146  0  0.275385  0.724252  0  4.159881  0
C  C99  1  0.95521368  0.66999583  0.67507823  1  1.637479  0  0.27575  0.716816  0  4.15949  0
C  C100  1  0.97367836  0.47293299  0.54134352  1  -0.037779  0  -0.069693  -0.106516  0  3.635663  0
C  C101  1  0.01424132  0.52649199  0.45870096  1  -0.024949  0  -0.068483  -0.104883  0  3.636951  0
C  C102  1  0.47365589  0.02707101  0.95865949  1  -0.037347  0  -0.069887  -0.106881  0  3.635999  0
C  C103  1  0.51423134  0.97350985  0.04129911  1  -0.025339  0  -0.068498  -0.104775  0  3.636666  0
C  C104  1  0.15966564  0.46785934  0.50621617  1  -0.04235  0  -0.073049  -0.11192  0  3.619222  0
C  C105  1  0.82836475  0.53173183  0.49379124  1  -0.041357  0  -0.072674  -0.116896  0  3.636696  0
C  C106  1  0.65965398  0.03214012  0.99378106  1  -0.043387  0  -0.07301  -0.111791  0  3.619497  0
C  C107  1  0.32835133  0.96826827  0.00621229  1  -0.041341  0  -0.072731  -0.11708  0  3.636667  0
C  C108  1  0.04982398  0.37515799  0.37105050  1  0.195292  0  -0.051261  -0.233848  0  4.00048  0
C  C109  1  0.94837757  0.62445068  0.62904930  1  0.201614  0  -0.04283  -0.221578  0  3.96639  0
C  C110  1  0.54986081  0.12484518  0.12894969  1  0.195243  0  -0.051203  -0.233813  0  4.000252  0
C  C111  1  0.44838356  0.87554932  0.87095162  1  0.20166  0  -0.04277  -0.221366  0  3.967197  0
C  C112  1  0.83456596  0.46206290  0.49326788  1  0.038096  0  0.006195  0.094531  0  3.658558  0
C  C113  1  0.15273823  0.53781491  0.50677079  1  0.019204  0  0.006354  0.099714  0  3.637482  0
C  C114  1  0.33453448  0.03793468  0.00673433  1  0.037786  0  0.006362  0.09464  0  3.658523  0
C  C115  1  0.65272396  0.96218745  0.99322352  1  0.01951  0  0.006306  0.099578  0  3.637641  0
C  C116  1  0.02354514  0.45591554  0.45682388  1  0.075701  0  0.005418  0.086295  0  3.803553  0
C  C117  1  0.96404244  0.54345439  0.54329018  1  0.089011  0  0.004406  0.077365  0  3.80855  0
C  C118  1  0.52354655  0.04408539  0.04317409  1  0.075336  0  0.005384  0.086449  0  3.803607  0
C  C119  1  0.46403367  0.95654722  0.95670607  1  0.088678  0  0.00445  0.077511  0  3.807988  0
C  C120  1  0.04530670  0.41229990  0.41117027  1  -0.473605  0  -0.019771  -0.015655  0  4.093616  0
C  C121  1  0.94584544  0.58712627  0.58904664  1  -0.483117  0  -0.01126  -0.003543  0  4.065854  0
C  C122  1  0.54534198  0.08770074  0.08882454  1  -0.472963  0  -0.019751  -0.015764  0  4.093509  0
C  C123  1  0.44586628  0.91287116  0.91094273  1  -0.483012  0  -0.011424  -0.003733  0  4.066372  0
C  C124  1  0.14015888  0.60918778  0.85670501  1  -0.003201  0  0.001646  0.166136  0  3.939198  0
C  C125  1  0.87219507  0.34304506  0.10710518  1  0.055247  0  0.001316  0.159197  0  3.947735  0
C  C126  1  0.64014772  0.89081184  0.64329089  1  0.037279  0  0.001484  0.166022  0  3.939457  0
C  C127  1  0.37219209  0.15695516  0.39289112  1  0.055495  0  0.001349  0.159328  0  3.947695  0
C  C128  1  0.13092480  0.57306847  0.89403455  1  -0.010789  0  -0.087392  -0.182915  0  3.964095  0
C  C129  1  0.88332728  0.38022630  0.07072313  1  -0.038998  0  -0.088054  -0.182588  0  3.960218  0
C  C130  1  0.63091694  0.92693742  0.60596755  1  -0.010969  0  -0.087355  -0.183067  0  3.964541  0
C  C131  1  0.38330774  0.11976958  0.42926967  1  -0.041987  0  -0.087926  -0.182594  0  3.960147  0
C  C132  1  0.96541271  0.57076539  0.92545419  1  -0.003126  0  -0.002969  -0.02473  0  3.973882  0
C  C133  1  0.04593724  0.41782345  0.06570359  1  -0.037271  0  -0.005836  -0.036008  0  3.9521  0
C  C134  1  0.46541616  0.92923892  0.57454822  1  -0.00299  0  -0.002927  -0.024981  0  3.973447  0
C  C135  1  0.54592176  0.08217375  0.43428776  1  -0.036546  0  -0.006021  -0.036144  0  3.951881  0
C  C136  1  0.79812267  0.60679524  0.92078690  1  -0.049556  0  -0.001206  0.092034  0  3.938558  0
C  C137  1  0.21501734  0.41563499  0.09707845  1  0.012364  0  0.003486  0.103047  0  3.909906  0
C  C138  1  0.29811449  0.89321373  0.57921574  1  -0.049629  0  -0.001337  0.09343  0  3.936242  0
C  C139  1  0.71500531  0.08436261  0.40291343  1  0.012048  0  0.003584  0.103169  0  3.910029  0
C  C140  1  0.80774198  0.64318577  0.88366027  1  0.008389  0  -0.082446  -0.147119  0  3.965104  0
C  C141  1  0.20199436  0.37857312  0.13369705  1  -0.053024  0  -0.083499  -0.151408  0  3.968953  0
C  C142  1  0.30773051  0.85682080  0.61633964  1  0.009156  0  -0.082392  -0.147595  0  3.964552  0
C  C143  1  0.70198414  0.12142812  0.36629912  1  -0.05317  0  -0.083533  -0.15158  0  3.969439  0
C  C144  1  0.97216579  0.64508612  0.85179663  1  -0.044284  0  -0.014322  -0.097743  0  3.927827  0
C  C145  1  0.03634873  0.34392844  0.14034801  1  -0.055776  0  -0.010277  -0.086669  0  3.925262  0
C  C146  1  0.47214936  0.85491705  0.64820267  1  -0.08501  0  -0.014315  -0.097556  0  3.927439  0
C  C147  1  0.53634727  0.15607460  0.35964954  1  -0.05581  0  -0.010317  -0.086706  0  3.925391  0
C  C148  1  0.02585049  0.45800835  0.02801892  1  0.941863  0  0.244556  0.251924  0  3.96173  0
C  C149  1  0.98083675  0.53036633  0.96302650  1  0.942214  0  0.245489  0.254135  0  3.985461  0
C  C150  1  0.52583896  0.04198949  0.47197520  1  0.941755  0  0.244523  0.251939  0  3.961066  0
C  C151  1  0.48082444  0.96963505  0.53697276  1  0.942064  0  0.245441  0.25405  0  3.985358  0
C  C152  1  0.31154820  0.58475689  0.51468609  1  -0.004148  0  -0.159871  -0.199338  0  3.986006  0
C  C153  1  0.41873883  0.59366202  0.56676983  1  -0.034851  0  -0.170748  -0.09699  0  3.965086  0
C  C154  1  0.49905473  0.65787639  0.58259666  1  -0.052462  0  -0.251822  -0.358762  0  3.97093  0
C  C155  1  0.65986093  0.42099998  0.48601658  1  -0.008443  0  -0.15995  -0.201398  0  3.989568  0
C  C156  1  0.70469669  0.35421547  0.48528385  1  0.018713  0  -0.165084  -0.085514  0  3.962612  0
C  C157  1  0.51831063  0.31543335  0.47599506  1  -0.081107  0  -0.243468  -0.351429  0  3.968567  0
C  C158  1  0.81151686  0.91524248  0.98531341  1  -0.004511  0  -0.15983  -0.199208  0  3.985741  0
C  C159  1  0.91871485  0.90633583  0.93322927  1  -0.034825  0  -0.170736  -0.09692  0  3.965177  0
C  C160  1  0.99904909  0.84212389  0.91740176  1  -0.052428  0  -0.251862  -0.358755  0  3.970977  0
C  C161  1  0.15984049  0.07900047  0.01398782  1  -0.008619  0  -0.159796  -0.201073  0  3.989338  0
C  C162  1  0.20468695  0.14578364  0.01472270  1  0.019202  0  -0.165038  -0.085346  0  3.962522  0
C  C163  1  0.01830879  0.18457079  0.02401333  1  -0.081448  0  -0.243506  -0.351528  0  3.968769  0
C  C164  1  0.32291318  0.60578888  0.82395082  1  -0.098477  0  -0.239566  -0.412796  0  3.963637  0
C  C165  1  0.69231936  0.30413984  0.10827526  1  -0.034459  0  -0.239332  -0.415617  0  3.954662  0
C  C166  1  0.82289716  0.89420722  0.67604401  1  -0.098808  0  -0.23944  -0.412525  0  3.963601  0
C  C167  1  0.19231016  0.19585988  0.39172402  1  -0.034621  0  -0.239358  -0.41575  0  3.95443  0
C  C168  1  0.62036459  0.61020465  0.95546839  1  -0.048195  0  -0.165285  -0.210387  0  3.955671  0
C  C169  1  0.65777828  0.64666153  0.01003137  1  -0.024889  0  -0.16409  -0.075869  0  3.954962  0
C  C170  1  0.47271403  0.65184318  0.04359334  1  -0.075575  0  -0.248381  -0.36167  0  3.980912  0
C  C171  1  0.40758813  0.44879990  0.09537279  1  -0.01648  0  -0.166881  -0.213892  0  3.973727  0
C  C172  1  0.41304922  0.51222422  0.12936327  1  0.018283  0  -0.165122  -0.082546  0  3.9633  0
C  C173  1  0.61709736  0.54086628  0.12827916  1  -0.038101  0  -0.246119  -0.349295  0  3.968374  0
C  C174  1  0.12035401  0.88980111  0.54453105  1  -0.050057  0  -0.165297  -0.210716  0  3.955302  0
C  C175  1  0.15776752  0.85333718  0.48997317  1  -0.025024  0  -0.164121  -0.076153  0  3.95557  0
C  C176  1  0.97271355  0.84815248  0.45641080  1  -0.075097  0  -0.248352  -0.36147  0  3.980772  0
C  C177  1  0.90757211  0.05119990  0.40462377  1  -0.01648  0  -0.166949  -0.214105  0  3.974043  0
C  C178  1  0.91304315  0.98777336  0.37063533  1  0.017334  0  -0.165145  -0.082594  0  3.963221  0
C  C179  1  0.11708647  0.95913036  0.37172591  1  -0.037688  0  -0.246158  -0.349399  0  3.968181  0
N  N180  1  0.82909508  0.49301109  0.96897900  1  -0.545377  0  -0.151716  -0.145509  0  3.212665  0
N  N181  1  0.17570140  0.49584235  0.02205950  1  -0.569566  0  -0.140039  -0.119478  0  3.228773  0
N  N182  1  0.32908043  0.00699000  0.53102030  1  -0.545155  0  -0.151807  -0.145675  0  3.212617  0
N  N183  1  0.67568400  0.00415071  0.47793174  1  -0.56987  0  -0.140022  -0.119479  0  3.228318  0
N  N184  1  0.85317563  0.45596979  0.00136714  1  -0.558102  0  -0.148838  -0.141251  0  3.221157  0
N  N185  1  0.15422011  0.53171798  0.98854741  1  -0.55406  0  -0.147747  -0.147873  0  3.217498  0
N  N186  1  0.35315415  0.04402985  0.49862846  1  -0.558097  0  -0.148746  -0.141158  0  3.22091  0
N  N187  1  0.65420738  0.96827833  0.51144766  1  -0.553531  0  -0.14768  -0.147808  0  3.217161  0
O  O188  1  0.37914473  0.18842146  0.19284447  1  -1.247494  0  -0.23016  -0.586769  0  2.279025  0
O  O189  1  0.62593941  0.81133446  0.80877484  1  -1.235728  0  -0.22686  -0.580933  0  2.279107  0
O  O190  1  0.87912724  0.31158453  0.30714989  1  -1.24755  0  -0.230025  -0.586535  0  2.27893  0
O  O191  1  0.12593781  0.68865988  0.69122918  1  -1.235586  0  -0.226855  -0.580906  0  2.279089  0
O  O192  1  0.71207433  0.20237193  0.30023955  1  -1.261104  0  -0.23881  -0.600021  0  2.342983  0
O  O193  1  0.29031616  0.79887615  0.69973513  1  -1.25835  0  -0.239376  -0.602463  0  2.339826  0
O  O194  1  0.21208414  0.29763370  0.19976043  1  -1.261094  0  -0.238883  -0.600144  0  2.342949  0
O  O195  1  0.79033731  0.70111990  0.80026136  1  -1.258241  0  -0.239423  -0.602524  0  2.340172  0
O  O196  1  0.71555038  0.18724291  0.19484891  1  -1.244601  0  -0.232599  -0.595374  0  2.297817  0
O  O197  1  0.28991021  0.81239530  0.80430094  1  -1.238465  0  -0.226039  -0.587064  0  2.315167  0
O  O198  1  0.21551876  0.31275792  0.30515144  1  -1.244717  0  -0.232682  -0.59541  0  2.29768  0
O  O199  1  0.78988865  0.68760226  0.69569632  1  -1.238432  0  -0.226187  -0.587227  0  2.314846  0
O  O200  1  0.87703432  0.29751975  0.20203660  1  -1.251884  0  -0.232326  -0.588933  0  2.378694  0
O  O201  1  0.12482337  0.70059716  0.79541404  1  -1.259651  0  -0.231815  -0.592471  0  2.393108  0
O  O202  1  0.37703841  0.20248101  0.29795815  1  -1.251906  0  -0.232221  -0.588745  0  2.378663  0
O  O203  1  0.62480441  0.79941243  0.70459463  1  -1.259483  0  -0.231756  -0.592451  0  2.393103  0
O  O204  1  0.54650140  0.28688433  0.25259151  1  -1.428111  0  -0.447975  -0.983049  0  2.160189  0
O  O205  1  0.45750678  0.71342589  0.74723652  1  -1.419326  0  -0.448231  -0.988741  0  2.177805  0
O  O206  1  0.04650888  0.21311789  0.24740446  1  -1.428054  0  -0.447932  -0.983049  0  2.160225  0
O  O207  1  0.95750667  0.78656977  0.75276090  1  -1.419378  0  -0.448223  -0.988769  0  2.177609  0
