# generated using pymatgen
data_KH6C4N7O5
_symmetry_space_group_name_H-M   'P 1'
_cell_length_a   7.64453306
_cell_length_b   11.17950407
_cell_length_c   11.34406928
_cell_angle_alpha   89.99991416
_cell_angle_beta   98.48373000
_cell_angle_gamma   89.99999463
_symmetry_Int_Tables_number   1
_chemical_formula_structural   KH6C4N7O5
_chemical_formula_sum   'K4 H24 C16 N28 O20'
_cell_volume   958.87951842
_cell_formula_units_Z   4
loop_
 _symmetry_equiv_pos_site_id
 _symmetry_equiv_pos_as_xyz
  1  'x, y, z'
loop_
 _atom_site_type_symbol
 _atom_site_label
 _atom_site_symmetry_multiplicity
 _atom_site_fract_x
 _atom_site_fract_y
 _atom_site_fract_z
 _atom_site_occupancy
 _atom_site_hle17_bader_spin_density
 _atom_site_hle17_ddec_charge
 _atom_site_hle17_ddec_spin_density
 _atom_site_hle17_ddec_sum_bond_order
 _atom_site_hle17_magmom
 _atom_site_hse06_10hf_bader_spin_density
 _atom_site_hse06_10hf_ddec_charge
 _atom_site_hse06_10hf_ddec_spin_density
 _atom_site_hse06_10hf_ddec_sum_bond_order
 _atom_site_hse06_10hf_magmom
 _atom_site_hse06_bader_spin_density
 _atom_site_hse06_ddec_charge
 _atom_site_hse06_ddec_spin_density
 _atom_site_hse06_ddec_sum_bond_order
 _atom_site_hse06_magmom
 _atom_site_pbe_bader_spin_density
 _atom_site_pbe_cm5_charge
 _atom_site_pbe_ddec_charge
 _atom_site_pbe_ddec_spin_density
 _atom_site_pbe_ddec_sum_bond_order
 _atom_site_pbe_magmom
K  K0  1  0.96582749  0.69175052  0.22067471  1  0  0.922743  0  0.44876  0  0  0.863592  0  0.64509  0  0  0.878204  0  0.62303  0  0  0.801492  0.852716  0  0.660884  0
K  K1  1  0.53417388  0.19174710  0.27932812  1  0  0.922746  0  0.448758  0  0  0.863585  0  0.645101  0  0  0.878199  0  0.62304  0  0  0.801501  0.852713  0  0.660895  0
K  K2  1  0.03416593  0.30824653  0.77932643  1  0  0.922742  0  0.448789  0  0  0.863591  0  0.645097  0  0  0.878203  0  0.623037  0  0  0.801494  0.85272  0  0.660893  0
K  K3  1  0.46583012  0.80824728  0.72067413  1  0  0.922745  0  0.448776  0  0  0.863582  0  0.645101  0  0  0.878194  0  0.62304  0  0  0.801499  0.852711  0  0.660897  0
H  H4  1  0.17211336  0.93993598  0.21635738  1  0  0.391264  0  0.92157  0  0  0.351489  0  1.005495  0  0  0.362379  0  0.989771  0  0  0.279078  0.343804  0  1.016587  0
H  H5  1  0.32788777  0.43993521  0.28364256  1  0  0.391285  0  0.92155  0  0  0.351515  0  1.005459  0  0  0.362404  0  0.989735  0  0  0.27909  0.343828  0  1.016554  0
H  H6  1  0.82788669  0.06006376  0.78364181  1  0  0.391366  0  0.921504  0  0  0.351618  0  1.005324  0  0  0.362506  0  0.989602  0  0  0.279125  0.343929  0  1.016424  0
H  H7  1  0.67211360  0.56006364  0.71635765  1  0  0.391296  0  0.921544  0  0  0.351536  0  1.005429  0  0  0.362425  0  0.989705  0  0  0.279092  0.34385  0  1.016524  0
H  H8  1  0.04105898  0.02875689  0.26462661  1  0  0.415417  0  0.852608  0  0  0.387017  0  0.929611  0  0  0.395813  0  0.919029  0  0  0.300506  0.380694  0  0.9373  0
H  H9  1  0.45894104  0.52875671  0.23537294  1  0  0.415434  0  0.852586  0  0  0.387035  0  0.929585  0  0  0.395833  0  0.919002  0  0  0.300516  0.380716  0  0.937266  0
H  H10  1  0.95894107  0.97124285  0.73537346  1  0  0.415419  0  0.852605  0  0  0.387026  0  0.929595  0  0  0.39582  0  0.919018  0  0  0.300513  0.380707  0  0.937273  0
H  H11  1  0.54105901  0.47124303  0.76462713  1  0  0.415411  0  0.852613  0  0  0.387015  0  0.92961  0  0  0.395809  0  0.919033  0  0  0.300507  0.380694  0  0.937292  0
H  H12  1  0.70910154  0.45635078  0.50929510  1  0  0.345012  0  0.904722  0  0  0.318882  0  0.981974  0  0  0.328033  0  0.9731  0  0  0.309599  0.312283  0  0.988432  0
H  H13  1  0.79089988  0.95635113  0.99070477  1  0  0.345016  0  0.904713  0  0  0.318884  0  0.98197  0  0  0.328036  0  0.973094  0  0  0.309601  0.312284  0  0.988422  0
H  H14  1  0.29090116  0.54364806  0.49070525  1  0  0.345037  0  0.904682  0  0  0.318869  0  0.981989  0  0  0.328032  0  0.973099  0  0  0.309574  0.312268  0  0.988445  0
H  H15  1  0.20909885  0.04364861  0.00929428  1  0  0.345018  0  0.904738  0  0  0.318875  0  0.982008  0  0  0.328027  0  0.97313  0  0  0.309579  0.312275  0  0.988465  0
H  H16  1  0.74369543  0.52698550  0.37798761  1  0  0.338551  0  0.872507  0  0  0.323646  0  0.932269  0  0  0.330865  0  0.926248  0  0  0.322201  0.318475  0  0.936659  0
H  H17  1  0.75630604  0.02698677  0.12201195  1  0  0.338546  0  0.872539  0  0  0.323645  0  0.932289  0  0  0.330864  0  0.926268  0  0  0.322201  0.318472  0  0.936677  0
H  H18  1  0.25630462  0.47301335  0.62201158  1  0  0.338544  0  0.872538  0  0  0.323639  0  0.932293  0  0  0.330858  0  0.926272  0  0  0.322203  0.318467  0  0.936685  0
H  H19  1  0.24369533  0.97301387  0.87798826  1  0  0.338554  0  0.872523  0  0  0.323649  0  0.932277  0  0  0.330869  0  0.926255  0  0  0.322207  0.318476  0  0.936667  0
H  H20  1  0.16466798  0.93503301  0.54617649  1  0  0.323606  0  0.941608  0  0  0.298891  0  1.018551  0  0  0.308022  0  1.010137  0  0  0.298868  0.292386  0  1.024535  0
H  H21  1  0.33533067  0.43503288  0.95382239  1  0  0.323596  0  0.941609  0  0  0.298876  0  1.018556  0  0  0.308006  0  1.010144  0  0  0.298858  0.292372  0  1.024533  0
H  H22  1  0.83533208  0.06496673  0.45382182  1  0  0.323592  0  0.941618  0  0  0.298874  0  1.018563  0  0  0.308004  0  1.010148  0  0  0.298858  0.292373  0  1.024542  0
H  H23  1  0.66466937  0.56496776  0.04617856  1  0  0.323585  0  0.941634  0  0  0.298873  0  1.018572  0  0  0.308002  0  1.01016  0  0  0.298854  0.292367  0  1.024554  0
H  H24  1  0.07423122  0.88883161  0.40165700  1  0  0.338647  0  0.932985  0  0  0.318314  0  0.997727  0  0  0.327032  0  0.990637  0  0  0.295797  0.312149  0  1.002732  0
H  H25  1  0.42576995  0.38883201  0.09834214  1  0  0.338642  0  0.933015  0  0  0.318301  0  0.997774  0  0  0.327019  0  0.990686  0  0  0.295801  0.312136  0  1.002782  0
H  H26  1  0.92576886  0.11116813  0.59834043  1  0  0.338685  0  0.93296  0  0  0.318319  0  0.997749  0  0  0.327036  0  0.990663  0  0  0.295816  0.312156  0  1.002757  0
H  H27  1  0.57423140  0.61116863  0.90165983  1  0  0.338686  0  0.932936  0  0  0.31832  0  0.997723  0  0  0.327038  0  0.990636  0  0  0.295817  0.312157  0  1.002721  0
C  C28  1  0.02280931  0.78110400  0.54239356  1  0  0.689102  0  3.837199  0  0  0.646715  0  4.1145  0  0  0.675633  0  4.117636  0  0  0.343807  0.627338  0  4.111968  0
C  C29  1  0.47718941  0.28110475  0.95760555  1  0  0.689109  0  3.837242  0  0  0.6467  0  4.114567  0  0  0.675619  0  4.117704  0  0  0.343794  0.627338  0  4.112012  0
C  C30  1  0.97718811  0.21889752  0.45760447  1  0  0.689028  0  3.837378  0  0  0.646642  0  4.114683  0  0  0.675557  0  4.117819  0  0  0.34378  0.627276  0  4.112138  0
C  C31  1  0.52281195  0.71889857  0.04239553  1  0  0.689127  0  3.837317  0  0  0.646725  0  4.114636  0  0  0.675642  0  4.117772  0  0  0.343814  0.627363  0  4.112075  0
C  C32  1  0.85337115  0.61235858  0.53146995  1  0  0.69367  0  3.827391  0  0  0.645968  0  4.110239  0  0  0.674606  0  4.114251  0  0  0.355093  0.6268  0  4.107039  0
C  C33  1  0.64662911  0.11235933  0.96853031  1  0  0.693609  0  3.827383  0  0  0.645903  0  4.110241  0  0  0.674541  0  4.114255  0  0  0.355069  0.626736  0  4.107036  0
C  C34  1  0.14662889  0.38764116  0.46853012  1  0  0.693639  0  3.827312  0  0  0.645931  0  4.110153  0  0  0.674568  0  4.114165  0  0  0.355084  0.62677  0  4.106939  0
C  C35  1  0.35337226  0.88764220  0.03147078  1  0  0.693643  0  3.827367  0  0  0.645973  0  4.110147  0  0  0.674611  0  4.114161  0  0  0.355098  0.626809  0  4.106937  0
C  C36  1  0.97143505  0.68787789  0.71207396  1  0  0.435402  0  3.903501  0  0  0.404672  0  4.183123  0  0  0.430333  0  4.187912  0  0  0.254011  0.38762  0  4.179824  0
C  C37  1  0.52856386  0.18787802  0.78792516  1  0  0.435418  0  3.903473  0  0  0.404749  0  4.183027  0  0  0.430409  0  4.187814  0  0  0.254027  0.38768  0  4.17974  0
C  C38  1  0.02856633  0.31212275  0.28792537  1  0  0.435405  0  3.90344  0  0  0.404714  0  4.183012  0  0  0.430381  0  4.187787  0  0  0.253978  0.38766  0  4.179703  0
C  C39  1  0.47143487  0.81212261  0.21207477  1  0  0.435478  0  3.903447  0  0  0.404729  0  4.183093  0  0  0.430399  0  4.187863  0  0  0.253961  0.387661  0  4.179806  0
C  C40  1  0.99537316  0.68576767  0.84498040  1  0  -0.060286  0  3.498584  0  0  -0.112609  0  3.781793  0  0  -0.122599  0  3.793146  0  0  0.185639  -0.106814  0  3.775027  0
C  C41  1  0.50462575  0.18576801  0.65501873  1  0  -0.060322  0  3.498525  0  0  -0.11265  0  3.781753  0  0  -0.122639  0  3.793104  0  0  0.18562  -0.106835  0  3.77498  0
C  C42  1  0.00462691  0.31423296  0.15501791  1  0  -0.06027  0  3.498481  0  0  -0.112615  0  3.781719  0  0  -0.122604  0  3.793068  0  0  0.185631  -0.106789  0  3.774909  0
C  C43  1  0.49537164  0.81423262  0.34498195  1  0  -0.060359  0  3.498487  0  0  -0.112685  0  3.781752  0  0  -0.122677  0  3.793101  0  0  0.185619  -0.106858  0  3.774955  0
N  N44  1  0.92595886  0.69969970  0.47285368  1  0  -0.65802  0  2.932489  0  0  -0.62034  0  3.211663  0  0  -0.644008  0  3.217198  0  0  -0.415475  -0.604672  0  3.207899  0
N  N45  1  0.57404121  0.19970023  0.02714548  1  0  -0.658015  0  2.93254  0  0  -0.62032  0  3.211714  0  0  -0.64399  0  3.217252  0  0  -0.415478  -0.604663  0  3.207948  0
N  N46  1  0.07403987  0.30030004  0.52714537  1  0  -0.65799  0  2.932583  0  0  -0.620301  0  3.211729  0  0  -0.643979  0  3.217293  0  0  -0.415469  -0.604641  0  3.207958  0
N  N47  1  0.42595884  0.80030130  0.97285459  1  0  -0.658003  0  2.932541  0  0  -0.620327  0  3.211697  0  0  -0.643999  0  3.217243  0  0  -0.415473  -0.604667  0  3.207923  0
N  N48  1  0.05629520  0.77569491  0.66478570  1  0  -0.603374  0  2.965532  0  0  -0.568554  0  3.239366  0  0  -0.590164  0  3.243369  0  0  -0.380647  -0.554284  0  3.236762  0
N  N49  1  0.44370484  0.27569495  0.83521444  1  0  -0.603403  0  2.965539  0  0  -0.568607  0  3.239371  0  0  -0.590215  0  3.243369  0  0  -0.38066  -0.554334  0  3.236757  0
N  N50  1  0.94370485  0.22430484  0.33521349  1  0  -0.603347  0  2.965637  0  0  -0.56854  0  3.239446  0  0  -0.590163  0  3.243469  0  0  -0.380629  -0.554275  0  3.236835  0
N  N51  1  0.55629519  0.72430658  0.16478739  1  0  -0.60342  0  2.96566  0  0  -0.568596  0  3.239506  0  0  -0.590217  0  3.243522  0  0  -0.380654  -0.554332  0  3.236902  0
N  N52  1  0.86648041  0.60511666  0.65325195  1  0  -0.570767  0  2.996319  0  0  -0.520737  0  3.253262  0  0  -0.543577  0  3.25815  0  0  -0.334948  -0.505633  0  3.250016  0
N  N53  1  0.63351854  0.10511760  0.84674730  1  0  -0.570748  0  2.996289  0  0  -0.520742  0  3.253214  0  0  -0.543582  0  3.258102  0  0  -0.334931  -0.505638  0  3.249973  0
N  N54  1  0.13351965  0.39488308  0.34674724  1  0  -0.570754  0  2.996299  0  0  -0.520709  0  3.253209  0  0  -0.543547  0  3.258092  0  0  -0.334911  -0.505613  0  3.249963  0
N  N55  1  0.36648018  0.89488304  0.15325352  1  0  -0.570778  0  2.9963  0  0  -0.520717  0  3.253212  0  0  -0.543559  0  3.258095  0  0  -0.334907  -0.505614  0  3.249966  0
N  N56  1  0.09499523  0.87273601  0.49214990  1  0  -0.683915  0  3.117727  0  0  -0.647052  0  3.356884  0  0  -0.670187  0  3.351332  0  0  -0.576536  -0.631039  0  3.360497  0
N  N57  1  0.40500593  0.37273655  0.00785103  1  0  -0.683904  0  3.117797  0  0  -0.647027  0  3.356954  0  0  -0.670162  0  3.351402  0  0  -0.576521  -0.631019  0  3.360556  0
N  N58  1  0.90500482  0.12726373  0.50785017  1  0  -0.683942  0  3.117732  0  0  -0.647047  0  3.356896  0  0  -0.670178  0  3.351344  0  0  -0.576561  -0.631045  0  3.360509  0
N  N59  1  0.59499543  0.62726498  0.99215094  1  0  -0.683956  0  3.117777  0  0  -0.647058  0  3.356951  0  0  -0.670187  0  3.351391  0  0  -0.576547  -0.631053  0  3.360551  0
N  N60  1  0.76060930  0.52636376  0.46823566  1  0  -0.665464  0  3.076189  0  0  -0.62871  0  3.31452  0  0  -0.65002  0  3.307831  0  0  -0.556742  -0.613871  0  3.319059  0
N  N61  1  0.73939086  0.02636427  0.03176377  1  0  -0.665437  0  3.076215  0  0  -0.62868  0  3.31455  0  0  -0.64999  0  3.307861  0  0  -0.556735  -0.613842  0  3.319081  0
N  N62  1  0.23939208  0.47363598  0.53176455  1  0  -0.665445  0  3.076115  0  0  -0.628664  0  3.314485  0  0  -0.649987  0  3.307771  0  0  -0.556711  -0.613831  0  3.319024  0
N  N63  1  0.26060787  0.97363636  0.96823529  1  0  -0.665454  0  3.076212  0  0  -0.62871  0  3.314536  0  0  -0.650021  0  3.307846  0  0  -0.556735  -0.613875  0  3.319075  0
N  N64  1  0.10864919  0.60403058  0.90716885  1  0  0.480278  0  4.003267  0  0  0.530549  0  4.274327  0  0  0.553068  0  4.284093  0  0  0.020748  0.515572  0  4.267605  0
N  N65  1  0.39134829  0.10403009  0.59283128  1  0  0.48034  0  4.00311  0  0  0.530535  0  4.274274  0  0  0.553054  0  4.284038  0  0  0.020729  0.515554  0  4.26755  0
N  N66  1  0.89135086  0.39597006  0.09283034  1  0  0.4802  0  4.003186  0  0  0.530453  0  4.274268  0  0  0.552971  0  4.284034  0  0  0.020691  0.515468  0  4.267548  0
N  N67  1  0.60865043  0.89596965  0.40716953  1  0  0.480399  0  4.003109  0  0  0.530623  0  4.274225  0  0  0.553142  0  4.283989  0  0  0.020757  0.51563  0  4.267512  0
N  N68  1  0.91087153  0.77324736  0.90071834  1  0  0.506231  0  3.97666  0  0  0.534032  0  4.276365  0  0  0.556383  0  4.286787  0  0  0.014458  0.51921  0  4.269143  0
N  N69  1  0.58912734  0.27324689  0.59928065  1  0  0.506277  0  3.976657  0  0  0.534083  0  4.276362  0  0  0.556435  0  4.286782  0  0  0.014511  0.519249  0  4.26915  0
N  N70  1  0.08912985  0.22675238  0.09928098  1  0  0.506287  0  3.97664  0  0  0.534051  0  4.276389  0  0  0.556404  0  4.286808  0  0  0.014505  0.519224  0  4.269169  0
N  N71  1  0.41087271  0.72675285  0.40072030  1  0  0.506453  0  3.976414  0  0  0.534212  0  4.276154  0  0  0.556563  0  4.286575  0  0  0.014652  0.519385  0  4.268936  0
O  O72  1  0.05909082  0.94351035  0.25111675  1  0  -0.828968  0  1.834636  0  0  -0.777917  0  2.021229  0  0  -0.795529  0  1.994874  0  0  -0.61849  -0.765402  0  2.039673  0
O  O73  1  0.44091032  0.44350963  0.24888318  1  0  -0.829005  0  1.834609  0  0  -0.777949  0  2.021176  0  0  -0.795564  0  1.994825  0  0  -0.618513  -0.765436  0  2.039618  0
O  O74  1  0.94090791  0.05648939  0.74888318  1  0  -0.829095  0  1.834631  0  0  -0.778047  0  2.021147  0  0  -0.795661  0  1.994805  0  0  -0.618551  -0.76553  0  2.039593  0
O  O75  1  0.55909105  0.55648921  0.75111702  1  0  -0.829016  0  1.834631  0  0  -0.777961  0  2.021197  0  0  -0.795575  0  1.99485  0  0  -0.618513  -0.765443  0  2.03964  0
O  O76  1  0.13652455  0.59718658  0.01846436  1  0  -0.397371  0  1.77611  0  0  -0.393259  0  1.988754  0  0  -0.404989  0  1.985027  0  0  -0.179486  -0.384865  0  1.991057  0
O  O77  1  0.36347410  0.09718640  0.48153583  1  0  -0.397361  0  1.77603  0  0  -0.393216  0  1.988706  0  0  -0.404952  0  1.984994  0  0  -0.179444  -0.384812  0  1.990997  0
O  O78  1  0.86347419  0.40281316  0.98153381  1  0  -0.397316  0  1.776019  0  0  -0.393183  0  1.988659  0  0  -0.404916  0  1.984933  0  0  -0.179424  -0.384787  0  1.99096  0
O  O79  1  0.63652594  0.90281244  0.51846512  1  0  -0.397411  0  1.775995  0  0  -0.393285  0  1.988667  0  0  -0.405015  0  1.984938  0  0  -0.179501  -0.384892  0  1.990984  0
O  O80  1  0.79826593  0.83584769  0.83292247  1  0  -0.487135  0  1.791804  0  0  -0.463332  0  2.02571  0  0  -0.478972  0  2.020223  0  0  -0.247772  -0.452098  0  2.029173  0
O  O81  1  0.70172893  0.33584890  0.66707778  1  0  -0.487162  0  1.79178  0  0  -0.463347  0  2.025655  0  0  -0.478986  0  2.020169  0  0  -0.2478  -0.452125  0  2.029162  0
O  O82  1  0.20173413  0.16415294  0.16707672  1  0  -0.487185  0  1.791848  0  0  -0.463352  0  2.025758  0  0  -0.478993  0  2.020269  0  0  -0.247791  -0.452128  0  2.029235  0
O  O83  1  0.29826846  0.66415084  0.33292378  1  0  -0.487297  0  1.79165  0  0  -0.46347  0  2.025572  0  0  -0.479112  0  2.020088  0  0  -0.247903  -0.452233  0  2.029037  0
O  O84  1  0.94105252  0.79469711  0.01041219  1  0  -0.449455  0  1.84478  0  0  -0.431862  0  2.08258  0  0  -0.445428  0  2.078317  0  0  -0.243723  -0.422048  0  2.085037  0
O  O85  1  0.55894619  0.29469694  0.48958668  1  0  -0.449462  0  1.844786  0  0  -0.43189  0  2.082616  0  0  -0.445452  0  2.078342  0  0  -0.243752  -0.42207  0  2.085079  0
O  O86  1  0.05894621  0.20530263  0.98958686  1  0  -0.449502  0  1.844823  0  0  -0.431861  0  2.082603  0  0  -0.445423  0  2.078329  0  0  -0.243743  -0.42205  0  2.085071  0
O  O87  1  0.44105385  0.70530280  0.51041427  1  0  -0.44957  0  1.844792  0  0  -0.431905  0  2.082547  0  0  -0.445468  0  2.078279  0  0  -0.243775  -0.42209  0  2.085018  0
O  O88  1  0.18510072  0.53267146  0.84225091  1  0  -0.475134  0  1.772971  0  0  -0.45939  0  1.992398  0  0  -0.474884  0  1.986481  0  0  -0.227465  -0.448314  0  1.996212  0
O  O89  1  0.31489812  0.03267089  0.65774859  1  0  -0.475169  0  1.772933  0  0  -0.459392  0  1.992388  0  0  -0.474886  0  1.986472  0  0  -0.227476  -0.448312  0  1.996198  0
O  O90  1  0.81490065  0.46732917  0.15774930  1  0  -0.475121  0  1.773003  0  0  -0.459392  0  1.992459  0  0  -0.474886  0  1.986541  0  0  -0.227479  -0.448319  0  1.996278  0
O  O91  1  0.68510061  0.96732796  0.34225135  1  0  -0.475174  0  1.772986  0  0  -0.459408  0  1.992429  0  0  -0.474903  0  1.986511  0  0  -0.227453  -0.448327  0  1.996246  0
