# generated using pymatgen
data_CdH10C14S2(NO)4
_symmetry_space_group_name_H-M   'P 1'
_cell_length_a   7.64478192
_cell_length_b   9.70720860
_cell_length_c   12.43571812
_cell_angle_alpha   112.97389632
_cell_angle_beta   92.50088010
_cell_angle_gamma   89.99866972
_symmetry_Int_Tables_number   1
_chemical_formula_structural   CdH10C14S2(NO)4
_chemical_formula_sum   'Cd2 H20 C28 S4 N8 O8'
_cell_volume   848.69618905
_cell_formula_units_Z   2
loop_
 _symmetry_equiv_pos_site_id
 _symmetry_equiv_pos_as_xyz
  1  'x, y, z'
loop_
 _atom_site_type_symbol
 _atom_site_label
 _atom_site_symmetry_multiplicity
 _atom_site_fract_x
 _atom_site_fract_y
 _atom_site_fract_z
 _atom_site_occupancy
 _atom_site_pbe_bader_spin_density
 _atom_site_pbe_cm5_charge
 _atom_site_pbe_ddec_charge
 _atom_site_pbe_ddec_spin_density
 _atom_site_pbe_ddec_sum_bond_order
 _atom_site_pbe_magmom
Cd  Cd0  1  0.99999673  0.49999620  0.49999796  1  0  0.721989  0.735535  0  2.483345  0
Cd  Cd1  1  0.50000313  0.99999856  0.50000531  1  0  0.721401  0.73484  0  2.482111  0
H  H2  1  0.42852836  0.97392297  0.06954644  1  0  0.304179  0.361982  0  0.974362  0
H  H3  1  0.07092924  0.90407082  0.93018105  1  0  0.304241  0.362335  0  0.974325  0
H  H4  1  0.57140403  0.02602659  0.93042990  1  0  0.304188  0.362036  0  0.974233  0
H  H5  1  0.92903904  0.09596938  0.06982127  1  0  0.304263  0.362442  0  0.974337  0
H  H6  1  0.21447599  0.24709762  0.28968269  1  0  0.119378  0.09752  0  1.020541  0
H  H7  1  0.28499577  0.95704865  0.70994864  1  0  0.119194  0.096984  0  1.021393  0
H  H8  1  0.78550149  0.75287684  0.71031417  1  0  0.119261  0.097378  0  1.020348  0
H  H9  1  0.71499724  0.04298275  0.29005814  1  0  0.119281  0.097194  0  1.021259  0
H  H10  1  0.42089644  0.44157586  0.06302899  1  0  0.109805  0.106952  0  1.005318  0
H  H11  1  0.07878530  0.37815729  0.93682296  1  0  0.110015  0.10703  0  1.005177  0
H  H12  1  0.57912672  0.55838875  0.93697576  1  0  0.109774  0.106911  0  1.005294  0
H  H13  1  0.92121696  0.62188374  0.06316437  1  0  0.109986  0.107054  0  1.005191  0
H  H14  1  0.26973165  0.68192332  0.18194627  1  0  0.1095  0.127484  0  0.982806  0
H  H15  1  0.23005039  0.49970817  0.81801422  1  0  0.10939  0.127343  0  0.982195  0
H  H16  1  0.73031922  0.31805144  0.81806456  1  0  0.109512  0.127487  0  0.982772  0
H  H17  1  0.76997804  0.50032973  0.18198329  1  0  0.109486  0.127613  0  0.982018  0
H  H18  1  0.10050472  0.68832499  0.35240916  1  0  0.107704  0.084186  0  1.054871  0
H  H19  1  0.39929039  0.33575870  0.64755500  1  0  0.107584  0.0838  0  1.055196  0
H  H20  1  0.89952004  0.31165623  0.64759168  1  0  0.107702  0.084119  0  1.054812  0
H  H21  1  0.60074822  0.66426260  0.35244672  1  0  0.107578  0.083765  0  1.055293  0
C  C22  1  0.22975588  0.34104658  0.26345866  1  0  0.065589  0.106834  0  3.870127  0
C  C23  1  0.27004095  0.07728510  0.73634297  1  0  0.066349  0.108323  0  3.868272  0
C  C24  1  0.77022806  0.65892343  0.73653865  1  0  0.065784  0.107387  0  3.869948  0
C  C25  1  0.72995728  0.92274519  0.26366442  1  0  0.066187  0.107922  0  3.868424  0
C  C26  1  0.32830032  0.32783357  0.16788973  1  0  -0.016915  -0.101913  0  4.00476  0
C  C27  1  0.17160618  0.15961850  0.83196793  1  0  -0.015867  -0.101595  0  4.003765  0
C  C28  1  0.67168478  0.67212967  0.83210240  1  0  -0.016987  -0.102401  0  4.005309  0
C  C29  1  0.82838816  0.84041506  0.16803550  1  0  -0.015786  -0.101304  0  4.003649  0
C  C30  1  0.34407964  0.45135195  0.13732290  1  0  -0.057502  -0.040941  0  3.953835  0
C  C31  1  0.15580730  0.31372574  0.86261645  1  0  -0.058467  -0.041497  0  3.954381  0
C  C32  1  0.65593434  0.54861263  0.86268000  1  0  -0.057391  -0.040593  0  3.953993  0
C  C33  1  0.84420278  0.68631102  0.13738027  1  0  -0.058331  -0.041649  0  3.95425  0
C  C34  1  0.26119218  0.58296320  0.20271719  1  0  -0.082591  -0.128213  0  3.954904  0
C  C35  1  0.23866036  0.37998731  0.79725604  1  0  -0.082356  -0.128106  0  3.955755  0
C  C36  1  0.73884295  0.41701249  0.79728468  1  0  -0.082568  -0.128417  0  3.955515  0
C  C37  1  0.76136414  0.62004849  0.20274800  1  0  -0.082559  -0.12842  0  3.955744  0
C  C38  1  0.16653275  0.58739483  0.29735225  1  0  0.055166  0.113263  0  3.906904  0
C  C39  1  0.33339675  0.28984303  0.70263244  1  0  0.054573  0.113498  0  3.908316  0
C  C40  1  0.83348676  0.41258532  0.70265055  1  0  0.055038  0.113442  0  3.906951  0
C  C41  1  0.66663146  0.71018165  0.29737163  1  0  0.054667  0.11356  0  3.908627  0
C  C42  1  0.41152323  0.18518883  0.09693247  1  0  0.237275  0.585337  0  4.130958  0
C  C43  1  0.08831354  0.08783182  0.90280788  1  0  0.237974  0.586324  0  4.12975  0
C  C44  1  0.58843017  0.81476200  0.90305120  1  0  0.237301  0.585491  0  4.131693  0
C  C45  1  0.91166659  0.91221176  0.09719653  1  0  0.237899  0.586363  0  4.129531  0
C  C46  1  0.11884155  0.13984895  0.43369558  1  0  0.149688  0.279341  0  4.292831  0
C  C47  1  0.38122895  0.70596719  0.56645589  1  0  0.150044  0.27876  0  4.294224  0
C  C48  1  0.88117943  0.86014110  0.56630133  1  0  0.149678  0.279353  0  4.293127  0
C  C49  1  0.61878592  0.29404208  0.43355698  1  0  0.150037  0.278918  0  4.29429  0
S  S50  1  0.19461233  0.97300678  0.36655527  1  0  -0.148045  -0.296625  0  2.4926  0
S  S51  1  0.30540587  0.60621442  0.63355415  1  0  -0.148354  -0.296416  0  2.492042  0
S  S52  1  0.80540093  0.02699000  0.63344503  1  0  -0.148014  -0.296616  0  2.492388  0
S  S53  1  0.69457491  0.39379151  0.36645929  1  0  -0.148328  -0.296366  0  2.492584  0
N  N54  1  0.15091625  0.46857427  0.32674966  1  0  -0.319919  -0.228061  0  3.477533  0
N  N55  1  0.34901272  0.14160493  0.67315264  1  0  -0.31977  -0.228036  0  3.476632  0
N  N56  1  0.84908756  0.53140694  0.67325065  1  0  -0.319937  -0.228311  0  3.477454  0
N  N57  1  0.65100622  0.85841418  0.32685117  1  0  -0.319831  -0.227983  0  3.47666  0
N  N58  1  0.06274720  0.26108441  0.48263156  1  0  -0.392914  -0.471125  0  3.175703  0
N  N59  1  0.43725126  0.77827252  0.51750952  1  0  -0.39301  -0.470953  0  3.175271  0
N  N60  1  0.93727286  0.73892469  0.51737254  1  0  -0.392944  -0.471163  0  3.176231  0
N  N61  1  0.56276732  0.22172245  0.48251209  1  0  -0.393001  -0.471154  0  3.17495  0
O  O62  1  0.37622753  0.07254061  0.12682269  1  0  -0.315305  -0.465068  0  2.336442  0
O  O63  1  0.12312979  0.94519088  0.87271650  1  0  -0.316042  -0.466027  0  2.334886  0
O  O64  1  0.62367721  0.92740423  0.87314031  1  0  -0.315183  -0.465056  0  2.336684  0
O  O65  1  0.87684094  0.05484251  0.12727905  1  0  -0.315901  -0.465976  0  2.335189  0
O  O66  1  0.50257954  0.17618774  0.01343219  1  0  -0.286185  -0.498879  0  2.192866  0
O  O67  1  0.99762865  0.16246019  0.98648027  1  0  -0.286155  -0.499108  0  2.194576  0
O  O68  1  0.49740540  0.82376557  0.98656426  1  0  -0.286269  -0.498932  0  2.193212  0
O  O69  1  0.00236185  0.83757884  0.01351905  1  0  -0.286232  -0.499202  0  2.194239  0
