# generated using pymatgen
data_CdH18C22(NO)4
_symmetry_space_group_name_H-M   'P 1'
_cell_length_a   8.09184969
_cell_length_b   11.41464963
_cell_length_c   12.95934428
_cell_angle_alpha   116.10585883
_cell_angle_beta   108.22705691
_cell_angle_gamma   90.00997416
_symmetry_Int_Tables_number   1
_chemical_formula_structural   CdH18C22(NO)4
_chemical_formula_sum   'Cd2 H36 C44 N8 O8'
_cell_volume   1007.53622182
_cell_formula_units_Z   2
loop_
 _symmetry_equiv_pos_site_id
 _symmetry_equiv_pos_as_xyz
  1  'x, y, z'
loop_
 _atom_site_type_symbol
 _atom_site_label
 _atom_site_symmetry_multiplicity
 _atom_site_fract_x
 _atom_site_fract_y
 _atom_site_fract_z
 _atom_site_occupancy
 _atom_site_hle17_bader_spin_density
 _atom_site_hle17_ddec_charge
 _atom_site_hle17_ddec_spin_density
 _atom_site_hle17_ddec_sum_bond_order
 _atom_site_hle17_magmom
 _atom_site_hse06_10hf_bader_spin_density
 _atom_site_hse06_10hf_ddec_charge
 _atom_site_hse06_10hf_ddec_spin_density
 _atom_site_hse06_10hf_ddec_sum_bond_order
 _atom_site_hse06_10hf_magmom
 _atom_site_hse06_bader_spin_density
 _atom_site_hse06_ddec_charge
 _atom_site_hse06_ddec_spin_density
 _atom_site_hse06_ddec_sum_bond_order
 _atom_site_hse06_magmom
 _atom_site_pbe_bader_spin_density
 _atom_site_pbe_cm5_charge
 _atom_site_pbe_ddec_charge
 _atom_site_pbe_ddec_spin_density
 _atom_site_pbe_ddec_sum_bond_order
 _atom_site_pbe_magmom
Cd  Cd0  1  0.00010187  0.08294052  0.99986973  1  0  1.07418  0  1.744014  0  0  0.865112  0  2.19892  0  0  0.920889  0  2.150113  0  0  0.777467  0.825741  0  2.232134  0
Cd  Cd1  1  0.49990613  0.58369986  0.00018748  1  0  1.073429  0  1.745134  0  0  0.863966  0  2.200932  0  0  0.919748  0  2.152091  0  0  0.777278  0.824603  0  2.234178  0
H  H2  1  0.59255356  0.89716740  0.15536845  1  0  0.316551  0  0.927752  0  0  0.295685  0  0.991974  0  0  0.304632  0  0.984741  0  0  0.310293  0.289335  0  0.997209  0
H  H3  1  0.40721449  0.74129153  0.84485406  1  0  0.316007  0  0.928916  0  0  0.29505  0  0.993035  0  0  0.303982  0  0.98581  0  0  0.310031  0.288679  0  0.9983  0
H  H4  1  0.06234204  0.39652927  0.15486572  1  0  0.316274  0  0.929223  0  0  0.295293  0  0.993258  0  0  0.304216  0  0.986018  0  0  0.310249  0.288994  0  0.998384  0
H  H5  1  0.93759550  0.24169965  0.84489491  1  0  0.316107  0  0.927826  0  0  0.295569  0  0.991616  0  0  0.304476  0  0.984382  0  0  0.310438  0.289277  0  0.996777  0
H  H6  1  0.60031072  0.30211040  0.19928623  1  0  0.115017  0  0.912311  0  0  0.133313  0  0.962999  0  0  0.135217  0  0.96264  0  0  0.103708  0.131973  0  0.963281  0
H  H7  1  0.39950187  0.10172738  0.80060189  1  0  0.11507  0  0.911818  0  0  0.132889  0  0.963216  0  0  0.134826  0  0.96291  0  0  0.103532  0.131549  0  0.963464  0
H  H8  1  0.09923945  0.80295373  0.19961241  1  0  0.114771  0  0.911915  0  0  0.133006  0  0.962755  0  0  0.134938  0  0.962444  0  0  0.103586  0.131659  0  0.963016  0
H  H9  1  0.90065278  0.60282559  0.80043784  1  0  0.114913  0  0.911681  0  0  0.133029  0  0.962609  0  0  0.134955  0  0.962327  0  0  0.103542  0.131681  0  0.962864  0
H  H10  1  0.47017628  0.42783934  0.19848408  1  0  0.113371  0  0.944181  0  0  0.125115  0  1.00918  0  0  0.127636  0  1.007625  0  0  0.098293  0.123318  0  1.010299  0
H  H11  1  0.52912089  0.22866686  0.80154773  1  0  0.113128  0  0.944939  0  0  0.125286  0  1.009455  0  0  0.127791  0  1.008007  0  0  0.098331  0.123513  0  1.010534  0
H  H12  1  0.22923889  0.92856850  0.19909900  1  0  0.113334  0  0.944245  0  0  0.124999  0  1.009396  0  0  0.127546  0  1.007865  0  0  0.098367  0.123205  0  1.0105  0
H  H13  1  0.77077609  0.72903235  0.80090953  1  0  0.113583  0  0.94464  0  0  0.125864  0  1.008724  0  0  0.128409  0  1.007246  0  0  0.098559  0.12407  0  1.009799  0
H  H14  1  0.67850201  0.25697171  0.38638681  1  0  0.089653  0  0.964434  0  0  0.098846  0  1.029798  0  0  0.101684  0  1.028821  0  0  0.094628  0.096806  0  1.030588  0
H  H15  1  0.32130771  0.87005682  0.61341472  1  0  0.08989  0  0.963657  0  0  0.098996  0  1.029148  0  0  0.101811  0  1.02823  0  0  0.094859  0.096973  0  1.029889  0
H  H16  1  0.20786585  0.75679052  0.38625897  1  0  0.089891  0  0.963802  0  0  0.098899  0  1.029485  0  0  0.101738  0  1.028481  0  0  0.094674  0.096874  0  1.030253  0
H  H17  1  0.79214375  0.37062688  0.61346958  1  0  0.089652  0  0.963839  0  0  0.098556  0  1.029589  0  0  0.101385  0  1.028608  0  0  0.094762  0.096546  0  1.03034  0
H  H18  1  0.46452575  0.60194657  0.38554423  1  0  0.094967  0  0.957728  0  0  0.10497  0  1.022279  0  0  0.108014  0  1.020888  0  0  0.096394  0.102778  0  1.023348  0
H  H19  1  0.53532252  0.21624951  0.61464290  1  0  0.095244  0  0.957112  0  0  0.105334  0  1.021639  0  0  0.108412  0  1.020217  0  0  0.096309  0.103104  0  1.022761  0
H  H20  1  0.42155172  0.10247226  0.38660219  1  0  0.094291  0  0.957913  0  0  0.104531  0  1.022341  0  0  0.107599  0  1.020967  0  0  0.096405  0.102314  0  1.023412  0
H  H21  1  0.57830823  0.71591882  0.61354552  1  0  0.094441  0  0.957655  0  0  0.104766  0  1.021891  0  0  0.107842  0  1.02047  0  0  0.096411  0.102559  0  1.022955  0
H  H22  1  0.64607673  0.92552313  0.98154270  1  0  0.098339  0  0.970427  0  0  0.104352  0  1.03988  0  0  0.107186  0  1.036333  0  0  0.132957  0.102215  0  1.042477  0
H  H23  1  0.35367102  0.94358694  0.01842444  1  0  0.098632  0  0.969819  0  0  0.104478  0  1.039559  0  0  0.107333  0  1.035963  0  0  0.132743  0.102336  0  1.042171  0
H  H24  1  0.83473339  0.42522376  0.98119690  1  0  0.097823  0  0.972732  0  0  0.104185  0  1.041732  0  0  0.107019  0  1.038198  0  0  0.133016  0.102057  0  1.044295  0
H  H25  1  0.16467988  0.44416449  0.01867780  1  0  0.098482  0  0.971729  0  0  0.104365  0  1.041322  0  0  0.107219  0  1.037735  0  0  0.133023  0.102228  0  1.043915  0
H  H26  1  0.09264273  0.13550509  0.29833185  1  0  0.109526  0  0.962371  0  0  0.118991  0  1.026511  0  0  0.121248  0  1.025702  0  0  0.119675  0.117376  0  1.027151  0
H  H27  1  0.90719241  0.83660425  0.70151116  1  0  0.10919  0  0.962697  0  0  0.118781  0  1.026745  0  0  0.121035  0  1.025946  0  0  0.119491  0.117169  0  1.027381  0
H  H28  1  0.70634245  0.63544551  0.29824272  1  0  0.109409  0  0.961366  0  0  0.118895  0  1.025514  0  0  0.121145  0  1.024671  0  0  0.11953  0.117277  0  1.02621  0
H  H29  1  0.29487781  0.33711615  0.70221105  1  0  0.109309  0  0.961718  0  0  0.118801  0  1.02584  0  0  0.121028  0  1.02507  0  0  0.119535  0.117196  0  1.026477  0
H  H30  1  0.68900449  0.83542228  0.30343129  1  0  0.08508  0  0.984811  0  0  0.094973  0  1.051387  0  0  0.097573  0  1.050194  0  0  0.09847  0.093097  0  1.052288  0
H  H31  1  0.31081318  0.53156264  0.69672887  1  0  0.08565  0  0.984216  0  0  0.095659  0  1.050765  0  0  0.098333  0  1.049473  0  0  0.098771  0.093736  0  1.0517  0
H  H32  1  0.11473442  0.33514785  0.30323059  1  0  0.085579  0  0.985401  0  0  0.095705  0  1.051488  0  0  0.09834  0  1.050224  0  0  0.098812  0.093764  0  1.052471  0
H  H33  1  0.88609393  0.03187190  0.69694011  1  0  0.085461  0  0.983997  0  0  0.095505  0  1.050331  0  0  0.098203  0  1.048992  0  0  0.098734  0.093562  0  1.051325  0
H  H34  1  0.70375825  0.84293242  0.50016252  1  0  0.087679  0  0.950394  0  0  0.100017  0  1.0096  0  0  0.102137  0  1.009562  0  0  0.102066  0.098394  0  1.009866  0
H  H35  1  0.29669626  0.34265042  0.50008244  1  0  0.08768  0  0.950059  0  0  0.099843  0  1.009659  0  0  0.101966  0  1.009596  0  0  0.102135  0.098293  0  1.009847  0
H  H36  1  0.03074579  0.21190500  0.50027739  1  0  0.093826  0  0.966066  0  0  0.103689  0  1.033298  0  0  0.106041  0  1.033363  0  0  0.102162  0.102009  0  1.033318  0
H  H37  1  0.96957265  0.71146601  0.49982839  1  0  0.093678  0  0.966382  0  0  0.103593  0  1.033507  0  0  0.105907  0  1.033703  0  0  0.101912  0.101936  0  1.033449  0
C  C38  1  0.33250299  0.24999822  0.17054183  1  0  0.697886  0  3.843564  0  0  0.656721  0  4.134094  0  0  0.68948  0  4.12778  0  0  0.202953  0.63448  0  4.137509  0
C  C39  1  0.66740684  0.07896235  0.82921883  1  0  0.700828  0  3.842769  0  0  0.658292  0  4.135495  0  0  0.691163  0  4.129122  0  0  0.202615  0.635996  0  4.13895  0
C  C40  1  0.33799621  0.75040552  0.17097783  1  0  0.70009  0  3.839831  0  0  0.657323  0  4.132969  0  0  0.690186  0  4.126541  0  0  0.202733  0.635033  0  4.136458  0
C  C41  1  0.66154357  0.57902864  0.82887285  1  0  0.699661  0  3.841776  0  0  0.656791  0  4.134894  0  0  0.689662  0  4.12853  0  0  0.203015  0.634499  0  4.138347  0
C  C42  1  0.49772641  0.35401735  0.23143239  1  0  -0.30674  0  3.693769  0  0  -0.350485  0  3.934402  0  0  -0.356034  0  3.941822  0  0  -0.162474  -0.346576  0  3.929234  0
C  C43  1  0.50195648  0.12187208  0.76851052  1  0  -0.307926  0  3.696069  0  0  -0.351335  0  3.937454  0  0  -0.357149  0  3.945255  0  0  -0.162234  -0.347355  0  3.932156  0
C  C44  1  0.23418369  0.85466986  0.23192709  1  0  -0.307222  0  3.692353  0  0  -0.350399  0  3.933143  0  0  -0.35615  0  3.940888  0  0  -0.162346  -0.346421  0  3.927818  0
C  C45  1  0.76572431  0.62232265  0.76808753  1  0  -0.308201  0  3.694555  0  0  -0.35134  0  3.934915  0  0  -0.357159  0  3.942695  0  0  -0.162704  -0.34734  0  3.929606  0
C  C46  1  0.56304855  0.42129592  0.36999250  1  0  0.110022  0  3.755026  0  0  0.12927  0  3.992122  0  0  0.129039  0  4.01784  0  0  -0.01538  0.129362  0  3.974722  0
C  C47  1  0.43680737  0.05086105  0.62995882  1  0  0.111425  0  3.754014  0  0  0.130855  0  3.990788  0  0  0.130728  0  4.016499  0  0  -0.014998  0.130915  0  3.97337  0
C  C48  1  0.30733486  0.92153292  0.37049681  1  0  0.110549  0  3.753081  0  0  0.129939  0  3.989896  0  0  0.129803  0  4.015599  0  0  -0.014956  0.129994  0  3.972486  0
C  C49  1  0.69262096  0.55103817  0.62949016  1  0  0.110714  0  3.753758  0  0  0.129432  0  3.991369  0  0  0.129325  0  4.017031  0  0  -0.014927  0.129473  0  3.973997  0
C  C50  1  0.65453939  0.35720951  0.43593043  1  0  -0.119724  0  3.750484  0  0  -0.138519  0  3.998814  0  0  -0.140876  0  4.02028  0  0  -0.095736  -0.136829  0  3.984238  0
C  C51  1  0.34536285  0.92083137  0.56389204  1  0  -0.121057  0  3.75073  0  0  -0.139785  0  3.9991  0  0  -0.14214  0  4.02052  0  0  -0.096412  -0.138093  0  3.984532  0
C  C52  1  0.28156331  0.85705385  0.43608047  1  0  -0.119661  0  3.748631  0  0  -0.138373  0  3.996997  0  0  -0.140694  0  4.018398  0  0  -0.096099  -0.136701  0  3.982435  0
C  C53  1  0.71841853  0.42115913  0.56373733  1  0  -0.119514  0  3.750686  0  0  -0.137864  0  3.999109  0  0  -0.1402  0  4.020517  0  0  -0.096596  -0.136197  0  3.984552  0
C  C54  1  0.53641011  0.55085076  0.43555618  1  0  -0.132209  0  3.762321  0  0  -0.150558  0  4.010982  0  0  -0.153533  0  4.033446  0  0  -0.099682  -0.148424  0  3.995693  0
C  C55  1  0.46358027  0.11512006  0.56457934  1  0  -0.131778  0  3.760387  0  0  -0.150104  0  4.008818  0  0  -0.1531  0  4.031281  0  0  -0.098879  -0.147957  0  3.993513  0
C  C56  1  0.39959657  0.05117739  0.43642704  1  0  -0.130537  0  3.760502  0  0  -0.148938  0  4.008641  0  0  -0.151965  0  4.031154  0  0  -0.099629  -0.146764  0  3.993305  0
C  C57  1  0.60031846  0.61489978  0.56369364  1  0  -0.129954  0  3.759774  0  0  -0.148228  0  4.00808  0  0  -0.151234  0  4.030536  0  0  -0.098868  -0.146063  0  3.992782  0
C  C58  1  0.73339569  0.96886405  0.07615657  1  0  0.22632  0  3.679616  0  0  0.163554  0  3.947703  0  0  0.178728  0  3.960037  0  0  0.140919  0.153711  0  3.939037  0
C  C59  1  0.26634581  0.89216974  0.92380426  1  0  0.226239  0  3.680771  0  0  0.163392  0  3.948797  0  0  0.178548  0  3.961145  0  0  0.140739  0.153555  0  3.940117  0
C  C60  1  0.84226255  0.46847846  0.07582125  1  0  0.226525  0  3.679952  0  0  0.163244  0  3.948197  0  0  0.178352  0  3.960591  0  0  0.140569  0.153442  0  3.9395  0
C  C61  1  0.15748996  0.39282452  0.92412647  1  0  0.225371  0  3.680552  0  0  0.162661  0  3.949032  0  0  0.177792  0  3.961385  0  0  0.140153  0.152856  0  3.940357  0
C  C62  1  0.96214203  0.07833603  0.24243791  1  0  -0.040261  0  3.709027  0  0  -0.080764  0  3.975571  0  0  -0.079282  0  3.996142  0  0  0.001796  -0.081762  0  3.961687  0
C  C63  1  0.03767061  0.83534456  0.75748297  1  0  -0.039376  0  3.708646  0  0  -0.08055  0  3.975072  0  0  -0.079077  0  3.995637  0  0  0.00186  -0.081547  0  3.961203  0
C  C64  1  0.78083343  0.57835683  0.24229105  1  0  -0.040345  0  3.710289  0  0  -0.080902  0  3.976748  0  0  -0.079404  0  3.997328  0  0  0.002261  -0.081916  0  3.962859  0
C  C65  1  0.22007130  0.33596267  0.75798300  1  0  -0.040235  0  3.709582  0  0  -0.080816  0  3.976267  0  0  -0.079309  0  3.996814  0  0  0.002027  -0.081831  0  3.962397  0
C  C66  1  0.84802803  0.02062272  0.27339057  1  0  0.124934  0  3.762548  0  0  0.115153  0  4.011789  0  0  0.118176  0  4.033547  0  0  0.088381  0.113081  0  3.997195  0
C  C67  1  0.15176973  0.74665432  0.72667549  1  0  0.123806  0  3.764063  0  0  0.11532  0  4.011447  0  0  0.118364  0  4.033172  0  0  0.088458  0.113229  0  3.996881  0
C  C68  1  0.92571266  0.52038478  0.27308544  1  0  0.124476  0  3.765551  0  0  0.115036  0  4.014143  0  0  0.118082  0  4.03588  0  0  0.08823  0.112944  0  3.999576  0
C  C69  1  0.07503059  0.24723577  0.72700483  1  0  0.124091  0  3.765629  0  0  0.114671  0  4.014502  0  0  0.117675  0  4.036293  0  0  0.088153  0.112619  0  3.999895  0
C  C70  1  0.86155826  0.02211060  0.38870687  1  0  0.037092  0  3.840813  0  0  0.055641  0  4.072465  0  0  0.055706  0  4.095972  0  0  -0.006408  0.055534  0  4.056591  0
C  C71  1  0.13842988  0.63301629  0.61139091  1  0  0.038021  0  3.842119  0  0  0.056083  0  4.073803  0  0  0.056137  0  4.097327  0  0  -0.005461  0.055981  0  4.057925  0
C  C72  1  0.02732296  0.52163865  0.38832837  1  0  0.037736  0  3.841233  0  0  0.056161  0  4.072916  0  0  0.056213  0  4.096453  0  0  -0.005792  0.056063  0  4.057017  0
C  C73  1  0.97332377  0.13341634  0.61177191  1  0  0.038189  0  3.842492  0  0  0.056847  0  4.073893  0  0  0.056917  0  4.097426  0  0  -0.005501  0.056737  0  4.058008  0
C  C74  1  0.76933884  0.91848870  0.38968263  1  0  -0.108176  0  3.730439  0  0  -0.133433  0  3.980557  0  0  -0.135789  0  4.001377  0  0  -0.092113  -0.131755  0  3.966444  0
C  C75  1  0.23075581  0.52848129  0.61042248  1  0  -0.110309  0  3.731377  0  0  -0.135912  0  3.982003  0  0  -0.138334  0  4.002832  0  0  -0.093451  -0.13419  0  3.967936  0
C  C76  1  0.12044807  0.41805718  0.38941437  1  0  -0.108737  0  3.730947  0  0  -0.134132  0  3.980677  0  0  -0.136511  0  4.001531  0  0  -0.09247  -0.132406  0  3.96659  0
C  C77  1  0.88013528  0.02880150  0.61074135  1  0  -0.1091  0  3.731944  0  0  -0.134601  0  3.982055  0  0  -0.137019  0  4.002864  0  0  -0.09292  -0.132881  0  3.967958  0
C  C78  1  0.77930049  0.92212721  0.50020113  1  0  -0.057899  0  3.805423  0  0  -0.068659  0  4.057962  0  0  -0.070187  0  4.080032  0  0  -0.08954  -0.067571  0  4.043054  0
C  C79  1  0.22110664  0.42174528  0.49995956  1  0  -0.05744  0  3.803299  0  0  -0.068002  0  4.055782  0  0  -0.069513  0  4.07782  0  0  -0.089849  -0.066981  0  4.040883  0
C  C80  1  0.96369271  0.12903191  0.50025900  1  0  -0.128126  0  3.683739  0  0  -0.15342  0  3.921097  0  0  -0.156428  0  3.942167  0  0  -0.079657  -0.151287  0  3.906857  0
C  C81  1  0.03658805  0.62858414  0.49980579  1  0  -0.127534  0  3.683776  0  0  -0.152824  0  3.92127  0  0  -0.155831  0  3.942337  0  0  -0.079207  -0.150695  0  3.907042  0
N  N82  1  0.88888144  0.04531559  0.11989188  1  0  -0.410631  0  3.317938  0  0  -0.322964  0  3.607572  0  0  -0.346043  0  3.623976  0  0  -0.375072  -0.307233  0  3.595951  0
N  N83  1  0.11094439  0.92492861  0.87997044  1  0  -0.410989  0  3.319714  0  0  -0.32346  0  3.609812  0  0  -0.346545  0  3.626196  0  0  -0.374904  -0.307724  0  3.598208  0
N  N84  1  0.73105556  0.54531727  0.11974988  1  0  -0.409897  0  3.318473  0  0  -0.32212  0  3.608298  0  0  -0.345184  0  3.624716  0  0  -0.374674  -0.306397  0  3.596671  0
N  N85  1  0.26918352  0.42561792  0.88041877  1  0  -0.40968  0  3.319613  0  0  -0.321744  0  3.609137  0  0  -0.344819  0  3.625545  0  0  -0.374667  -0.306012  0  3.59751  0
N  N86  1  0.70492140  0.95197241  0.16606746  1  0  -0.318362  0  3.407268  0  0  -0.253473  0  3.639989  0  0  -0.269613  0  3.652203  0  0  -0.373487  -0.242692  0  3.631702  0
N  N87  1  0.29479135  0.78529976  0.83402720  1  0  -0.317989  0  3.409231  0  0  -0.252818  0  3.640865  0  0  -0.268943  0  3.653071  0  0  -0.373333  -0.242024  0  3.632614  0
N  N88  1  0.96077845  0.45142335  0.16564623  1  0  -0.317815  0  3.407261  0  0  -0.25266  0  3.640002  0  0  -0.268755  0  3.652218  0  0  -0.373505  -0.241909  0  3.631711  0
N  N89  1  0.03926484  0.28585817  0.83424164  1  0  -0.31693  0  3.407874  0  0  -0.252517  0  3.64081  0  0  -0.268619  0  3.65306  0  0  -0.37324  -0.241799  0  3.63253  0
O  O90  1  0.33624769  0.14344755  0.17657799  1  0  -0.630079  0  1.884533  0  0  -0.579548  0  2.107934  0  0  -0.603841  0  2.099307  0  0  -0.328981  -0.562566  0  2.113223  0
O  O91  1  0.66407447  0.96629297  0.82301058  1  0  -0.631489  0  1.883202  0  0  -0.580538  0  2.107711  0  0  -0.604825  0  2.098987  0  0  -0.32923  -0.563562  0  2.113073  0
O  O92  1  0.34000427  0.64387682  0.17700070  1  0  -0.630137  0  1.884441  0  0  -0.579188  0  2.108709  0  0  -0.603489  0  2.100119  0  0  -0.328368  -0.562211  0  2.113993  0
O  O93  1  0.65887688  0.46632494  0.82252501  1  0  -0.630267  0  1.883961  0  0  -0.579399  0  2.108218  0  0  -0.603616  0  2.099522  0  0  -0.328959  -0.562466  0  2.113541  0
O  O94  1  0.19016440  0.27736192  0.10913926  1  0  -0.688491  0  2.028873  0  0  -0.611041  0  2.277687  0  0  -0.641395  0  2.266094  0  0  -0.345501  -0.589729  0  2.284811  0
O  O95  1  0.80955562  0.16788886  0.89063349  1  0  -0.688948  0  2.027013  0  0  -0.611716  0  2.277152  0  0  -0.642011  0  2.265399  0  0  -0.345412  -0.590402  0  2.284305  0
O  O96  1  0.41877253  0.77756920  0.10940272  1  0  -0.690173  0  2.026119  0  0  -0.612548  0  2.276673  0  0  -0.642981  0  2.264989  0  0  -0.346325  -0.591178  0  2.283853  0
O  O97  1  0.58121228  0.66792901  0.89066506  1  0  -0.68915  0  2.025384  0  0  -0.611614  0  2.27596  0  0  -0.641936  0  2.264167  0  0  -0.346062  -0.590252  0  2.283117  0
