# generated using pymatgen
data_CaH9C11Br(NO3)2
_symmetry_space_group_name_H-M   'P 1'
_cell_length_a   6.93089981
_cell_length_b   12.94691590
_cell_length_c   15.18108953
_cell_angle_alpha   104.04001091
_cell_angle_beta   90.00008889
_cell_angle_gamma   89.99991776
_symmetry_Int_Tables_number   1
_chemical_formula_structural   CaH9C11Br(NO3)2
_chemical_formula_sum   'Ca4 H36 C44 Br4 N8 O24'
_cell_volume   1321.56120078
_cell_formula_units_Z   4
loop_
 _symmetry_equiv_pos_site_id
 _symmetry_equiv_pos_as_xyz
  1  'x, y, z'
loop_
 _atom_site_type_symbol
 _atom_site_label
 _atom_site_symmetry_multiplicity
 _atom_site_fract_x
 _atom_site_fract_y
 _atom_site_fract_z
 _atom_site_occupancy
 _atom_site_hle17_bader_spin_density
 _atom_site_hle17_ddec_charge
 _atom_site_hle17_ddec_spin_density
 _atom_site_hle17_ddec_sum_bond_order
 _atom_site_hle17_magmom
 _atom_site_hse06_10hf_bader_spin_density
 _atom_site_hse06_10hf_ddec_charge
 _atom_site_hse06_10hf_ddec_spin_density
 _atom_site_hse06_10hf_ddec_sum_bond_order
 _atom_site_hse06_10hf_magmom
 _atom_site_hse06_bader_spin_density
 _atom_site_hse06_ddec_charge
 _atom_site_hse06_ddec_spin_density
 _atom_site_hse06_ddec_sum_bond_order
 _atom_site_hse06_magmom
 _atom_site_pbe_bader_spin_density
 _atom_site_pbe_cm5_charge
 _atom_site_pbe_ddec_charge
 _atom_site_pbe_ddec_spin_density
 _atom_site_pbe_ddec_sum_bond_order
 _atom_site_pbe_magmom
Ca  Ca0  1  0.65064249  0.76739322  0.43249121  1  0  1.58011  0  1.087109  0  0  1.451846  0  1.434862  0  0  1.496833  0  1.386657  0  0  0.87848  1.418275  0  1.468698  0
Ca  Ca1  1  0.15063987  0.73261277  0.56751907  1  0  1.580094  0  1.08717  0  0  1.451943  0  1.434736  0  0  1.49683  0  1.386708  0  0  0.878521  1.41837  0  1.468576  0
Ca  Ca2  1  0.34936366  0.23260212  0.56751178  1  0  1.580057  0  1.08723  0  0  1.451872  0  1.434877  0  0  1.496785  0  1.386794  0  0  0.87848  1.418295  0  1.468717  0
Ca  Ca3  1  0.84935618  0.26739114  0.43247309  1  0  1.580046  0  1.087303  0  0  1.451939  0  1.434799  0  0  1.496767  0  1.386869  0  0  0.878482  1.418363  0  1.468647  0
H  H4  1  0.52015427  0.63598252  0.25872980  1  0  0.386933  0  0.938883  0  0  0.344768  0  1.023908  0  0  0.356114  0  1.007821  0  0  0.281006  0.336803  0  1.035171  0
H  H5  1  0.02015044  0.86401864  0.74126955  1  0  0.386939  0  0.938878  0  0  0.344775  0  1.023896  0  0  0.356123  0  1.007805  0  0  0.281003  0.33681  0  1.035158  0
H  H6  1  0.47984900  0.36401676  0.74127067  1  0  0.386928  0  0.938859  0  0  0.34476  0  1.02391  0  0  0.356108  0  1.007819  0  0  0.280999  0.336795  0  1.035173  0
H  H7  1  0.97984994  0.13597981  0.25872878  1  0  0.386948  0  0.93884  0  0  0.344782  0  1.023881  0  0  0.356131  0  1.007788  0  0  0.281004  0.336816  0  1.035145  0
H  H8  1  0.08214577  0.62093860  0.84074499  1  0  0.094495  0  0.959535  0  0  0.102913  0  1.026525  0  0  0.106385  0  1.024132  0  0  0.099585  0.100387  0  1.028337  0
H  H9  1  0.58215005  0.87905935  0.15925509  1  0  0.094519  0  0.959594  0  0  0.102937  0  1.026585  0  0  0.10641  0  1.02419  0  0  0.099583  0.100408  0  1.028395  0
H  H10  1  0.91785749  0.37906307  0.15925661  1  0  0.094479  0  0.959583  0  0  0.102812  0  1.02665  0  0  0.106284  0  1.024257  0  0  0.099566  0.100295  0  1.028457  0
H  H11  1  0.41785755  0.12093829  0.84074243  1  0  0.094457  0  0.959583  0  0  0.102802  0  1.026647  0  0  0.106274  0  1.024253  0  0  0.099548  0.100281  0  1.028453  0
H  H12  1  0.31913834  0.54533887  0.92979226  1  0  0.097588  0  0.978573  0  0  0.101641  0  1.052453  0  0  0.105434  0  1.049962  0  0  0.091434  0.098893  0  1.054379  0
H  H13  1  0.81913922  0.95466133  0.07020843  1  0  0.097622  0  0.978561  0  0  0.101661  0  1.052447  0  0  0.105452  0  1.049955  0  0  0.091449  0.098914  0  1.05437  0
H  H14  1  0.68086348  0.45466200  0.07020852  1  0  0.097599  0  0.978582  0  0  0.101627  0  1.052486  0  0  0.105422  0  1.049997  0  0  0.091439  0.098881  0  1.054408  0
H  H15  1  0.18086116  0.04534111  0.92979135  1  0  0.097604  0  0.978518  0  0  0.101652  0  1.052408  0  0  0.105444  0  1.049918  0  0  0.091442  0.098905  0  1.054331  0
H  H16  1  0.98601022  0.25536519  0.88329323  1  0  0.103139  0  0.964811  0  0  0.114421  0  1.025174  0  0  0.117493  0  1.023689  0  0  0.094204  0.112172  0  1.026374  0
H  H17  1  0.48600314  0.24463376  0.11670603  1  0  0.103085  0  0.964823  0  0  0.114399  0  1.025156  0  0  0.117472  0  1.02367  0  0  0.094191  0.112135  0  1.026377  0
H  H18  1  0.01399016  0.74463888  0.11670950  1  0  0.103188  0  0.964657  0  0  0.114404  0  1.025099  0  0  0.117477  0  1.023613  0  0  0.094184  0.112171  0  1.02628  0
H  H19  1  0.51398714  0.75536391  0.88329346  1  0  0.103148  0  0.96478  0  0  0.114442  0  1.02513  0  0  0.117515  0  1.023644  0  0  0.094197  0.112188  0  1.026335  0
H  H20  1  0.74761957  0.33133847  0.79604871  1  0  0.109837  0  0.965518  0  0  0.119862  0  1.027056  0  0  0.123146  0  1.02497  0  0  0.109184  0.117484  0  1.028606  0
H  H21  1  0.24761588  0.16865982  0.20395026  1  0  0.109852  0  0.965526  0  0  0.119889  0  1.027031  0  0  0.123166  0  1.024961  0  0  0.109184  0.117512  0  1.028585  0
H  H22  1  0.25238226  0.66866480  0.20395320  1  0  0.109915  0  0.96555  0  0  0.119875  0  1.027146  0  0  0.12319  0  1.025029  0  0  0.109188  0.117498  0  1.028695  0
H  H23  1  0.75238018  0.83133466  0.79604795  1  0  0.109843  0  0.965501  0  0  0.119843  0  1.027062  0  0  0.123141  0  1.024965  0  0  0.109171  0.117465  0  1.028614  0
H  H24  1  0.47800551  0.91947392  0.58352324  1  0  0.418007  0  0.895146  0  0  0.383494  0  0.966264  0  0  0.395658  0  0.948467  0  0  0.297419  0.374837  0  0.978917  0
H  H25  1  0.97800858  0.58052614  0.41647490  1  0  0.417949  0  0.895213  0  0  0.383438  0  0.966334  0  0  0.395603  0  0.948535  0  0  0.29738  0.37478  0  0.978987  0
H  H26  1  0.52198622  0.08052611  0.41647474  1  0  0.417952  0  0.895221  0  0  0.383433  0  0.966352  0  0  0.395602  0  0.948548  0  0  0.297377  0.374776  0  0.979005  0
H  H27  1  0.02198892  0.41947473  0.58352588  1  0  0.417958  0  0.895206  0  0  0.383442  0  0.966332  0  0  0.395606  0  0.948536  0  0  0.297385  0.374784  0  0.978986  0
H  H28  1  0.62071986  0.99164853  0.54562984  1  0  0.413783  0  0.851739  0  0  0.388844  0  0.922625  0  0  0.397538  0  0.912329  0  0  0.317802  0.382572  0  0.930062  0
H  H29  1  0.12072034  0.50835179  0.45437074  1  0  0.413787  0  0.851716  0  0  0.388867  0  0.922608  0  0  0.397559  0  0.912312  0  0  0.317794  0.382591  0  0.930052  0
H  H30  1  0.37927764  0.00834992  0.45436849  1  0  0.413775  0  0.851755  0  0  0.388892  0  0.922614  0  0  0.397566  0  0.912342  0  0  0.317779  0.382632  0  0.930037  0
H  H31  1  0.87927859  0.49164909  0.54563071  1  0  0.413751  0  0.851747  0  0  0.388821  0  0.92263  0  0  0.397511  0  0.912336  0  0  0.31778  0.382546  0  0.930071  0
H  H32  1  0.91828227  0.64408240  0.71476255  1  0  0.331274  0  0.87704  0  0  0.310336  0  0.942985  0  0  0.318836  0  0.935458  0  0  0.32728  0.304277  0  0.948495  0
H  H33  1  0.41827691  0.85591453  0.28523625  1  0  0.331288  0  0.877038  0  0  0.310356  0  0.94296  0  0  0.318854  0  0.93544  0  0  0.327297  0.304296  0  0.948468  0
H  H34  1  0.08172532  0.35592165  0.28523886  1  0  0.331276  0  0.877113  0  0  0.310332  0  0.943056  0  0  0.318833  0  0.935527  0  0  0.327291  0.304272  0  0.948568  0
H  H35  1  0.58171770  0.14408077  0.71476410  1  0  0.331252  0  0.877064  0  0  0.310313  0  0.943011  0  0  0.318813  0  0.935485  0  0  0.327285  0.304253  0  0.948521  0
H  H36  1  0.69292823  0.70166338  0.23115901  1  0  0.397078  0  0.8767  0  0  0.374957  0  0.945242  0  0  0.382095  0  0.937586  0  0  0.298732  0.369877  0  0.950709  0
H  H37  1  0.19292468  0.79833528  0.76883997  1  0  0.397137  0  0.876606  0  0  0.374985  0  0.945219  0  0  0.382122  0  0.937561  0  0  0.298735  0.369902  0  0.950694  0
H  H38  1  0.30707070  0.29833588  0.76884080  1  0  0.397096  0  0.876648  0  0  0.374965  0  0.945217  0  0  0.382103  0  0.93756  0  0  0.298728  0.369883  0  0.950689  0
H  H39  1  0.80707282  0.20166400  0.23116049  1  0  0.397086  0  0.876667  0  0  0.374955  0  0.945237  0  0  0.382093  0  0.937579  0  0  0.29874  0.369873  0  0.95071  0
C  C40  1  0.64218367  0.68137200  0.59865963  1  0  0.662822  0  3.958458  0  0  0.615789  0  4.250639  0  0  0.651251  0  4.241003  0  0  0.229311  0.591555  0  4.256549  0
C  C41  1  0.14217737  0.81862830  0.40134030  1  0  0.662938  0  3.958315  0  0  0.615868  0  4.250519  0  0  0.651333  0  4.240879  0  0  0.229386  0.591635  0  4.256428  0
C  C42  1  0.35781959  0.31862804  0.40133835  1  0  0.662852  0  3.95835  0  0  0.615816  0  4.250557  0  0  0.651285  0  4.240912  0  0  0.229351  0.591584  0  4.256472  0
C  C43  1  0.85781436  0.18137019  0.59866068  1  0  0.662859  0  3.958265  0  0  0.615788  0  4.250497  0  0  0.651256  0  4.240856  0  0  0.229367  0.591555  0  4.256403  0
C  C44  1  0.63144501  0.61587452  0.66610663  1  0  -0.003222  0  3.674834  0  0  -0.017169  0  3.936939  0  0  -0.020025  0  3.954779  0  0  0.090494  -0.015436  0  3.925172  0
C  C45  1  0.13144407  0.88412496  0.33389182  1  0  -0.003251  0  3.674928  0  0  -0.01712  0  3.936937  0  0  -0.019975  0  3.954767  0  0  0.090517  -0.015384  0  3.925159  0
C  C46  1  0.36856114  0.38412636  0.33389482  1  0  -0.003057  0  3.674643  0  0  -0.017046  0  3.936811  0  0  -0.019926  0  3.954674  0  0  0.090504  -0.015316  0  3.925047  0
C  C47  1  0.86855343  0.11587430  0.66610799  1  0  -0.003325  0  3.675  0  0  -0.0172  0  3.937028  0  0  -0.020071  0  3.954889  0  0  0.090437  -0.015466  0  3.925256  0
C  C48  1  0.50084882  0.53863743  0.67928327  1  0  0.032253  0  3.712925  0  0  0.022915  0  3.976618  0  0  0.023504  0  3.993107  0  0  0.100057  0.02249  0  3.965643  0
C  C49  1  0.00084474  0.96136293  0.32071525  1  0  0.032208  0  3.712909  0  0  0.022847  0  3.976586  0  0  0.023453  0  3.993045  0  0  0.100006  0.022424  0  3.965602  0
C  C50  1  0.49915733  0.46136102  0.32071506  1  0  0.032135  0  3.712769  0  0  0.022796  0  3.976515  0  0  0.023411  0  3.992973  0  0  0.099968  0.022374  0  3.965537  0
C  C51  1  0.99915132  0.03863792  0.67928421  1  0  0.032289  0  3.712983  0  0  0.022919  0  3.976679  0  0  0.023509  0  3.993173  0  0  0.100084  0.022495  0  3.965702  0
C  C52  1  0.30228006  0.51363205  0.64245774  1  0  0.683908  0  3.903335  0  0  0.634417  0  4.197188  0  0  0.669219  0  4.18625  0  0  0.234052  0.610651  0  4.204014  0
C  C53  1  0.80227895  0.98636653  0.35753999  1  0  0.684094  0  3.903512  0  0  0.634591  0  4.197353  0  0  0.669388  0  4.186409  0  0  0.234058  0.610825  0  4.204181  0
C  C54  1  0.69771888  0.48637834  0.35754294  1  0  0.684109  0  3.903141  0  0  0.63459  0  4.197044  0  0  0.669387  0  4.186101  0  0  0.234067  0.610825  0  4.203873  0
C  C55  1  0.19770989  0.01362552  0.64245511  1  0  0.683941  0  3.903249  0  0  0.634464  0  4.197097  0  0  0.669267  0  4.186155  0  0  0.234069  0.610697  0  4.203924  0
C  C56  1  0.75881836  0.52189474  0.75645346  1  0  0.341087  0  3.746106  0  0  0.303668  0  4.020933  0  0  0.318343  0  4.033294  0  0  0.225836  0.294114  0  4.012279  0
C  C57  1  0.25881686  0.97810388  0.24354556  1  0  0.341176  0  3.746018  0  0  0.303748  0  4.020859  0  0  0.318424  0  4.033219  0  0  0.225835  0.294109  0  4.012323  0
C  C58  1  0.24118346  0.47810530  0.24354518  1  0  0.341239  0  3.745997  0  0  0.303797  0  4.020853  0  0  0.318474  0  4.033213  0  0  0.225857  0.2942  0  4.012258  0
C  C59  1  0.74118352  0.02189221  0.75645429  1  0  0.341078  0  3.746118  0  0  0.303695  0  4.020911  0  0  0.31837  0  4.03327  0  0  0.225844  0.294139  0  4.012258  0
C  C60  1  0.89811644  0.48122276  0.81142954  1  0  -0.002576  0  3.790282  0  0  0.012296  0  4.031756  0  0  0.010861  0  4.052303  0  0  -0.003799  0.013004  0  4.017857  0
C  C61  1  0.39811311  0.01877546  0.18857017  1  0  -0.002546  0  3.790313  0  0  0.012311  0  4.031798  0  0  0.010876  0  4.052345  0  0  -0.003769  0.013046  0  4.017912  0
C  C62  1  0.10189115  0.51877809  0.18856992  1  0  -0.002615  0  3.790181  0  0  0.01224  0  4.031653  0  0  0.010804  0  4.05221  0  0  -0.003807  0.012961  0  4.017765  0
C  C63  1  0.60188872  0.98122143  0.81142982  1  0  -0.0026  0  3.790235  0  0  0.012235  0  4.031718  0  0  0.010803  0  4.052269  0  0  -0.003826  0.012945  0  4.017818  0
C  C64  1  0.06026418  0.54065403  0.84951644  1  0  -0.067297  0  3.703226  0  0  -0.091323  0  3.955604  0  0  -0.092093  0  3.975074  0  0  -0.083334  -0.090592  0  3.942358  0
C  C65  1  0.56026532  0.95934473  0.15048379  1  0  -0.067377  0  3.703363  0  0  -0.091403  0  3.955753  0  0  -0.092171  0  3.975219  0  0  -0.083368  -0.090666  0  3.942494  0
C  C66  1  0.93973620  0.45934921  0.15048415  1  0  -0.067252  0  3.703206  0  0  -0.091191  0  3.955589  0  0  -0.091961  0  3.97506  0  0  -0.083263  -0.090473  0  3.942356  0
C  C67  1  0.43973362  0.04065138  0.84951738  1  0  -0.067297  0  3.703314  0  0  -0.091256  0  3.95571  0  0  -0.092027  0  3.975179  0  0  -0.08327  -0.090532  0  3.94247  0
C  C68  1  0.19393528  0.49902734  0.90016106  1  0  -0.112471  0  3.763518  0  0  -0.131701  0  4.013148  0  0  -0.134919  0  4.034159  0  0  -0.097573  -0.129525  0  3.999002  0
C  C69  1  0.69393460  0.00097101  0.09983986  1  0  -0.112434  0  3.763478  0  0  -0.131674  0  4.013115  0  0  -0.134889  0  4.034122  0  0  -0.097571  -0.129498  0  3.998968  0
C  C70  1  0.80606222  0.50097514  0.09984202  1  0  -0.112451  0  3.763499  0  0  -0.131655  0  4.013118  0  0  -0.134876  0  4.034131  0  0  -0.097584  -0.129482  0  3.99898  0
C  C71  1  0.30606434  0.99902904  0.90015945  1  0  -0.11237  0  3.763478  0  0  -0.131599  0  4.013086  0  0  -0.134816  0  4.034096  0  0  -0.097581  -0.129424  0  3.998945  0
C  C72  1  0.16527393  0.39670360  0.91223686  1  0  0.084877  0  3.742287  0  0  0.103294  0  3.999184  0  0  0.106792  0  4.021286  0  0  -0.017454  0.100832  0  3.984286  0
C  C73  1  0.66527582  0.10329633  0.08776171  1  0  0.08479  0  3.742289  0  0  0.103271  0  3.999116  0  0  0.106768  0  4.021216  0  0  -0.017477  0.100809  0  3.984217  0
C  C74  1  0.83472645  0.60329966  0.08776439  1  0  0.0848  0  3.742422  0  0  0.103195  0  3.999338  0  0  0.106693  0  4.021437  0  0  -0.017489  0.100731  0  3.984446  0
C  C75  1  0.33472456  0.89670373  0.91223759  1  0  0.084764  0  3.742296  0  0  0.103221  0  3.999144  0  0  0.106718  0  4.021243  0  0  -0.017476  0.100758  0  3.984247  0
C  C76  1  0.00586752  0.33575940  0.87466949  1  0  -0.141283  0  3.798685  0  0  -0.16034  0  4.047598  0  0  -0.163481  0  4.068081  0  0  -0.103005  -0.158133  0  4.033738  0
C  C77  1  0.50586504  0.16423822  0.12532786  1  0  -0.141216  0  3.798739  0  0  -0.160328  0  4.047629  0  0  -0.163468  0  4.068113  0  0  -0.102985  -0.158109  0  4.033785  0
C  C78  1  0.99412998  0.66424383  0.12533044  1  0  -0.141265  0  3.798679  0  0  -0.160253  0  4.047574  0  0  -0.163396  0  4.068066  0  0  -0.102971  -0.158059  0  4.033707  0
C  C79  1  0.49412957  0.83575945  0.87467164  1  0  -0.141313  0  3.798796  0  0  -0.160389  0  4.04768  0  0  -0.163531  0  4.068168  0  0  -0.103015  -0.158178  0  4.033824  0
C  C80  1  0.87228446  0.37855909  0.82504980  1  0  -0.058083  0  3.689181  0  0  -0.081504  0  3.936199  0  0  -0.081883  0  3.954821  0  0  -0.07786  -0.081054  0  3.923554  0
C  C81  1  0.37228369  0.12143911  0.17494791  1  0  -0.058098  0  3.689315  0  0  -0.081504  0  3.936321  0  0  -0.081883  0  3.954957  0  0  -0.077846  -0.081056  0  3.923674  0
C  C82  1  0.12771448  0.62144575  0.17495176  1  0  -0.058177  0  3.689248  0  0  -0.081521  0  3.936244  0  0  -0.081926  0  3.954857  0  0  -0.077862  -0.081064  0  3.923583  0
C  C83  1  0.62771381  0.87855776  0.82505076  1  0  -0.058035  0  3.68923  0  0  -0.081412  0  3.936247  0  0  -0.081808  0  3.954871  0  0  -0.077801  -0.080963  0  3.923603  0
Br  Br84  1  0.34817246  0.33644705  0.97927958  1  0  -0.069857  0  1.291593  0  0  -0.060451  0  1.544395  0  0  -0.065225  0  1.537248  0  0  0.05314  -0.056852  0  1.549483  0
Br  Br85  1  0.84816530  0.16355116  0.02071812  1  0  -0.069824  0  1.291671  0  0  -0.060436  0  1.544446  0  0  -0.065209  0  1.537298  0  0  0.05314  -0.056845  0  1.549543  0
Br  Br86  1  0.65182937  0.66355382  0.02072120  1  0  -0.069835  0  1.291633  0  0  -0.060429  0  1.544451  0  0  -0.065202  0  1.537304  0  0  0.053153  -0.056833  0  1.549542  0
Br  Br87  1  0.15183075  0.83644891  0.97928250  1  0  -0.069832  0  1.291637  0  0  -0.060431  0  1.54441  0  0  -0.065204  0  1.537264  0  0  0.053151  -0.056836  0  1.549501  0
N  N88  1  0.79138827  0.60355315  0.71643639  1  0  -0.335536  0  3.420825  0  0  -0.277574  0  3.654406  0  0  -0.292672  0  3.667844  0  0  -0.364236  -0.267484  0  3.645424  0
N  N89  1  0.29138280  0.89644545  0.28356265  1  0  -0.335546  0  3.42092  0  0  -0.277602  0  3.654483  0  0  -0.292703  0  3.667921  0  0  -0.36426  -0.267486  0  3.645523  0
N  N90  1  0.20861355  0.39644455  0.28356509  1  0  -0.335666  0  3.420762  0  0  -0.277665  0  3.654339  0  0  -0.29276  0  3.66778  0  0  -0.364277  -0.267565  0  3.645374  0
N  N91  1  0.70860893  0.10355303  0.71643766  1  0  -0.335405  0  3.420829  0  0  -0.277455  0  3.65435  0  0  -0.292548  0  3.66779  0  0  -0.364207  -0.267366  0  3.645366  0
N  N92  1  0.58224535  0.48118014  0.73443460  1  0  -0.407693  0  3.068856  0  0  -0.360711  0  3.326255  0  0  -0.376083  0  3.339681  0  0  -0.31223  -0.350266  0  3.317054  0
N  N93  1  0.08224083  0.01882142  0.26556423  1  0  -0.407788  0  3.068804  0  0  -0.360785  0  3.3262  0  0  -0.376162  0  3.339619  0  0  -0.312211  -0.350319  0  3.317029  0
N  N94  1  0.41776080  0.51881990  0.26556404  1  0  -0.407835  0  3.068815  0  0  -0.36082  0  3.326215  0  0  -0.376199  0  3.339637  0  0  -0.312221  -0.350361  0  3.317026  0
N  N95  1  0.91775811  0.98117862  0.73443441  1  0  -0.40778  0  3.06894  0  0  -0.360805  0  3.326345  0  0  -0.376177  0  3.339772  0  0  -0.312263  -0.350363  0  3.317147  0
O  O96  1  0.48975027  0.70132284  0.55887045  1  0  -0.724707  0  2.011057  0  0  -0.661566  0  2.25381  0  0  -0.690442  0  2.244069  0  0  -0.376467  -0.641006  0  2.259816  0
O  O97  1  0.98975139  0.79867882  0.44112867  1  0  -0.724696  0  2.011152  0  0  -0.661562  0  2.253935  0  0  -0.69044  0  2.244192  0  0  -0.376439  -0.641004  0  2.259943  0
O  O98  1  0.51026021  0.29867720  0.44112820  1  0  -0.724766  0  2.010921  0  0  -0.661638  0  2.25368  0  0  -0.690501  0  2.243941  0  0  -0.376478  -0.641074  0  2.259678  0
O  O99  1  0.01024755  0.20132049  0.55887444  1  0  -0.724638  0  2.01094  0  0  -0.66153  0  2.253736  0  0  -0.69039  0  2.243993  0  0  -0.37643  -0.640972  0  2.259742  0
O  O100  1  0.80878823  0.71017009  0.57897618  1  0  -0.698253  0  1.985681  0  0  -0.638601  0  2.229793  0  0  -0.665364  0  2.218872  0  0  -0.35504  -0.619547  0  2.236692  0
O  O101  1  0.30879217  0.78982529  0.42102026  1  0  -0.69836  0  1.985464  0  0  -0.638708  0  2.229624  0  0  -0.665479  0  2.218694  0  0  -0.35512  -0.619666  0  2.236553  0
O  O102  1  0.19121648  0.28983077  0.42102394  1  0  -0.698255  0  1.985815  0  0  -0.638604  0  2.229903  0  0  -0.665351  0  2.218978  0  0  -0.355034  -0.619534  0  2.236769  0
O  O103  1  0.69120388  0.21017555  0.57897854  1  0  -0.698277  0  1.985469  0  0  -0.638633  0  2.229626  0  0  -0.665387  0  2.2187  0  0  -0.355073  -0.619599  0  2.236568  0
O  O104  1  0.19293483  0.58999717  0.63762134  1  0  -0.699239  0  2.038805  0  0  -0.645647  0  2.290993  0  0  -0.67225  0  2.280129  0  0  -0.366592  -0.626748  0  2.297928  0
O  O105  1  0.69294260  0.91000707  0.36237939  1  0  -0.699286  0  2.039183  0  0  -0.645648  0  2.291311  0  0  -0.67229  0  2.280495  0  0  -0.36655  -0.62675  0  2.298249  0
O  O106  1  0.80707276  0.41000213  0.36238045  1  0  -0.699348  0  2.03837  0  0  -0.645732  0  2.290569  0  0  -0.672326  0  2.279697  0  0  -0.366612  -0.626829  0  2.297504  0
O  O107  1  0.30705778  0.09000094  0.63762148  1  0  -0.699219  0  2.038493  0  0  -0.645608  0  2.29066  0  0  -0.672226  0  2.279804  0  0  -0.366584  -0.626706  0  2.297594  0
O  O108  1  0.25153638  0.41586891  0.62010062  1  0  -0.692691  0  2.009469  0  0  -0.627995  0  2.240497  0  0  -0.656268  0  2.230245  0  0  -0.345304  -0.607976  0  2.24701  0
O  O109  1  0.75153499  0.08413176  0.37989882  1  0  -0.692818  0  2.009414  0  0  -0.628121  0  2.24044  0  0  -0.656383  0  2.230191  0  0  -0.345357  -0.608101  0  2.246956  0
O  O110  1  0.74846545  0.58412562  0.37990155  1  0  -0.692771  0  2.00998  0  0  -0.628064  0  2.241056  0  0  -0.65635  0  2.230805  0  0  -0.345309  -0.608048  0  2.247571  0
O  O111  1  0.24845674  0.91587137  0.62009450  1  0  -0.692743  0  2.009752  0  0  -0.628071  0  2.240811  0  0  -0.656338  0  2.230555  0  0  -0.345376  -0.608055  0  2.247329  0
O  O112  1  0.60791067  0.92000691  0.55441065  1  0  -0.86606  0  1.858275  0  0  -0.819073  0  2.058692  0  0  -0.838855  0  2.030887  0  0  -0.620533  -0.804799  0  2.078187  0
O  O113  1  0.10791381  0.57999263  0.44559042  1  0  -0.865981  0  1.858255  0  0  -0.819044  0  2.058576  0  0  -0.838814  0  2.030781  0  0  -0.620477  -0.804768  0  2.078076  0
O  O114  1  0.39208683  0.07999397  0.44559079  1  0  -0.865969  0  1.858388  0  0  -0.819083  0  2.058664  0  0  -0.838828  0  2.030921  0  0  -0.620486  -0.804832  0  2.07811  0
O  O115  1  0.89208657  0.42000665  0.55441071  1  0  -0.865951  0  1.858244  0  0  -0.81899  0  2.05861  0  0  -0.838746  0  2.030821  0  0  -0.620478  -0.804713  0  2.078109  0
O  O116  1  0.57249803  0.71079932  0.26524436  1  0  -0.858173  0  1.919544  0  0  -0.81179  0  2.123457  0  0  -0.829872  0  2.096316  0  0  -0.604575  -0.798777  0  2.142316  0
O  O117  1  0.07249727  0.78920100  0.73475420  1  0  -0.858274  0  1.919498  0  0  -0.811894  0  2.123443  0  0  -0.829967  0  2.096305  0  0  -0.604607  -0.798872  0  2.142288  0
O  O118  1  0.42750235  0.28920075  0.73475627  1  0  -0.858204  0  1.919485  0  0  -0.811834  0  2.123445  0  0  -0.829907  0  2.0963  0  0  -0.604577  -0.798816  0  2.142299  0
O  O119  1  0.92750456  0.21079825  0.26524428  1  0  -0.858209  0  1.919516  0  0  -0.811874  0  2.123513  0  0  -0.829939  0  2.096373  0  0  -0.604618  -0.798854  0  2.14236  0
