# generated using pymatgen
data_Zn3H18(C14O5)2
_symmetry_space_group_name_H-M   'P 1'
_cell_length_a   11.96840118
_cell_length_b   15.59530395
_cell_length_c   15.59531135
_cell_angle_alpha   84.36406494
_cell_angle_beta   74.90941704
_cell_angle_gamma   74.90945247
_symmetry_Int_Tables_number   1
_chemical_formula_structural   Zn3H18(C14O5)2
_chemical_formula_sum   'Zn6 H36 C56 O20'
_cell_volume   2712.13363955
_cell_formula_units_Z   2
loop_
 _symmetry_equiv_pos_site_id
 _symmetry_equiv_pos_as_xyz
  1  'x, y, z'
loop_
 _atom_site_type_symbol
 _atom_site_label
 _atom_site_symmetry_multiplicity
 _atom_site_fract_x
 _atom_site_fract_y
 _atom_site_fract_z
 _atom_site_occupancy
 _atom_site_pbe_bader_charge
 _atom_site_pbe_bader_spin_density
 _atom_site_pbe_cm5_charge
 _atom_site_pbe_ddec_charge
 _atom_site_pbe_ddec_spin_density
 _atom_site_pbe_ddec_sum_bond_order
 _atom_site_pbe_magmom
Zn  Zn0  1  0.99999921  0.00000042  0.99999932  1  1.392545  0  0.663241  1.031378  0  2.32232  0
Zn  Zn1  1  0.49999984  0.99999983  0.00000036  1  1.392542  0  0.663236  1.031413  0  2.322316  0
Zn  Zn2  1  0.25000062  0.07454853  0.92545050  1  1.307312  0  0.677075  0.988662  0  2.252292  0
Zn  Zn3  1  0.24999978  0.92936990  0.07063021  1  1.314152  0  0.681639  0.997444  0  2.212723  0
Zn  Zn4  1  0.74999996  0.92545085  0.07454962  1  1.30732  0  0.677107  0.988718  0  2.252226  0
Zn  Zn5  1  0.74999948  0.07063080  0.92936877  1  1.31415  0  0.681634  0.997427  0  2.212721  0
H  H6  1  0.09224928  0.35436134  0.92298691  1  0.077965  0  0.106476  0.112613  0  0.997814  0
H  H7  1  0.95816456  0.50618519  0.93444540  1  0.061608  0  0.099415  0.097391  0  1.024496  0
H  H8  1  0.65265003  0.39255524  0.00299912  1  0.065349  0  0.097615  0.094883  0  1.04302  0
H  H9  1  0.78705088  0.24225789  0.98721564  1  0.121364  0  0.098887  0.101746  0  1.038392  0
H  H10  1  0.82896624  0.61274623  0.87610172  1  0.070106  0  0.103936  0.104295  0  1.00018  0
H  H11  1  0.68898363  0.76206212  0.89077752  1  0.078877  0  0.10286  0.102382  0  1.002454  0
H  H12  1  0.43964202  0.66077379  0.10017160  1  0.103343  0  0.109446  0.114908  0  0.993313  0
H  H13  1  0.57872500  0.51089585  0.08660222  1  0.086314  0  0.104178  0.105892  0  1.001252  0
H  H14  1  0.20582082  0.92151528  0.91434406  1  0.621079  0  0.314627  0.408533  0  0.882916  0
H  H15  1  0.40775079  0.07701378  0.64564017  1  0.077966  0  0.10648  0.112634  0  0.997783  0
H  H16  1  0.54183385  0.06555714  0.49381470  1  0.061617  0  0.099407  0.097375  0  1.024525  0
H  H17  1  0.84735025  0.99700263  0.60744310  1  0.065345  0  0.097611  0.0949  0  1.043046  0
H  H18  1  0.71295071  0.01278517  0.75774153  1  0.121353  0  0.098874  0.101718  0  1.038376  0
H  H19  1  0.67103429  0.12389865  0.38725339  1  0.070108  0  0.103969  0.104341  0  1.000145  0
H  H20  1  0.81101673  0.10922189  0.23793682  1  0.07884  0  0.102868  0.102383  0  1.002461  0
H  H21  1  0.06035751  0.89982628  0.33922656  1  0.103315  0  0.109465  0.114934  0  0.993339  0
H  H22  1  0.92127346  0.91339840  0.48910480  1  0.08631  0  0.104188  0.105908  0  1.001223  0
H  H23  1  0.29418008  0.08565544  0.07848515  1  0.620978  0  0.314648  0.408587  0  0.882851  0
H  H24  1  0.90775000  0.64563936  0.07701399  1  0.077965  0  0.106482  0.112663  0  0.997727  0
H  H25  1  0.04183496  0.49381484  0.06555679  1  0.061621  0  0.099422  0.0974  0  1.024514  0
H  H26  1  0.34734992  0.60744347  0.99700184  1  0.065356  0  0.097602  0.094885  0  1.043009  0
H  H27  1  0.21294970  0.75774149  0.01278384  1  0.121382  0  0.098881  0.101721  0  1.0384  0
H  H28  1  0.17103436  0.38725314  0.12389968  1  0.070097  0  0.103962  0.104325  0  1.00015  0
H  H29  1  0.31101719  0.23793659  0.10922326  1  0.078844  0  0.102859  0.102354  0  1.002462  0
H  H30  1  0.56035723  0.33922691  0.89982674  1  0.103328  0  0.109454  0.114909  0  0.993319  0
H  H31  1  0.42127340  0.48910485  0.91339822  1  0.086318  0  0.104159  0.105895  0  1.001187  0
H  H32  1  0.79417909  0.07848609  0.08565536  1  0.620953  0  0.314646  0.408564  0  0.882892  0
H  H33  1  0.59225022  0.92298692  0.35436101  1  0.077954  0  0.106476  0.112635  0  0.997769  0
H  H34  1  0.45816411  0.93444488  0.50618570  1  0.061602  0  0.099437  0.097431  0  1.024458  0
H  H35  1  0.15265052  0.00299874  0.39255614  1  0.065363  0  0.097606  0.094892  0  1.042994  0
H  H36  1  0.28705094  0.98721621  0.24225817  1  0.121384  0  0.098884  0.101721  0  1.038419  0
H  H37  1  0.32896694  0.87610140  0.61274781  1  0.070101  0  0.10397  0.104336  0  1.000132  0
H  H38  1  0.18898191  0.89077814  0.76206428  1  0.07884  0  0.102861  0.102359  0  1.00246  0
H  H39  1  0.93964111  0.10017376  0.66077262  1  0.103322  0  0.109445  0.114897  0  0.993292  0
H  H40  1  0.07872583  0.08659964  0.51089443  1  0.086225  0  0.104168  0.105889  0  1.00127  0
H  H41  1  0.70582051  0.91434394  0.92151498  1  0.620993  0  0.314629  0.40854  0  0.882904  0
C  C42  1  0.02757784  0.19690346  0.94847659  1  1.567153  0  0.21854  0.606625  0  4.167509  0
C  C43  1  0.94828252  0.28856503  0.95554117  1  -0.030506  0  -0.021209  -0.042897  0  3.975255  0
C  C44  1  0.99570538  0.36360628  0.94003028  1  -0.006823  0  -0.082984  -0.086098  0  3.977169  0
C  C45  1  0.92003048  0.44850739  0.94646041  1  -0.048047  0  -0.091136  -0.136426  0  3.983163  0
C  C46  1  0.79522576  0.46079122  0.97082861  1  -0.071273  0  -0.004157  0.071488  0  3.99695  0
C  C47  1  0.74887384  0.38495057  0.98632714  1  -0.000151  0  -0.092647  -0.134759  0  3.974945  0
C  C48  1  0.82417361  0.30020326  0.97775225  1  -0.071505  0  -0.083764  -0.077038  0  3.9724  0
C  C49  1  0.71394012  0.55047568  0.97990577  1  -0.011765  0  -0.001568  0.076005  0  3.9924  0
C  C50  1  0.74425417  0.62289143  0.92602551  1  -0.086703  0  -0.087688  -0.130905  0  3.976378  0
C  C51  1  0.66597582  0.70665151  0.93385976  1  0.008005  0  -0.081534  -0.077798  0  3.983321  0
C  C52  1  0.55509157  0.72073959  0.99590062  1  -0.013576  0  -0.022794  -0.04871  0  3.976515  0
C  C53  1  0.52486498  0.64928330  0.05088523  1  -0.058399  0  -0.081383  -0.083036  0  3.985312  0
C  C54  1  0.60299915  0.56552086  0.04276466  1  -0.070913  0  -0.08844  -0.136036  0  3.981218  0
C  C55  1  0.47074464  0.81044253  0.00325382  1  1.55566  0  0.21605  0.59882  0  4.169423  0
C  C56  1  0.47242340  0.05152264  0.80309723  1  1.56781  0  0.218495  0.606563  0  4.167621  0
C  C57  1  0.55171840  0.04445831  0.71143583  1  -0.030526  0  -0.021249  -0.042919  0  3.975291  0
C  C58  1  0.50429442  0.05997006  0.63639337  1  -0.006522  0  -0.082939  -0.086049  0  3.977068  0
C  C59  1  0.57996927  0.05354097  0.55149379  1  -0.048358  0  -0.091178  -0.136515  0  3.983312  0
C  C60  1  0.70477183  0.02917282  0.53920789  1  -0.071266  0  -0.004155  0.071532  0  3.996812  0
C  C61  1  0.75112697  0.01367290  0.61504936  1  -9.8e-05  0  -0.092591  -0.134757  0  3.974787  0
C  C62  1  0.67582724  0.02224764  0.69979641  1  -0.071541  0  -0.08376  -0.076999  0  3.972402  0
C  C63  1  0.78606015  0.02009395  0.44952411  1  -0.011744  0  -0.001589  0.075975  0  3.992327  0
C  C64  1  0.75574643  0.07397505  0.37710690  1  -0.086689  0  -0.087655  -0.130875  0  3.976261  0
C  C65  1  0.83402578  0.06613902  0.29334800  1  0.00802  0  -0.081659  -0.077962  0  3.983585  0
C  C66  1  0.94490774  0.00409884  0.27926034  1  -0.013583  0  -0.022743  -0.048528  0  3.976437  0
C  C67  1  0.97513481  0.94911331  0.35071670  1  -0.058378  0  -0.081397  -0.083122  0  3.985343  0
C  C68  1  0.89699958  0.95723489  0.43447872  1  -0.070922  0  -0.088455  -0.136038  0  3.981287  0
C  C69  1  0.02925655  0.99674441  0.18955715  1  1.555633  0  0.21599  0.598648  0  4.169542  0
C  C70  1  0.97242252  0.80309658  0.05152287  1  1.567198  0  0.218509  0.606537  0  4.167523  0
C  C71  1  0.05171849  0.71143568  0.04445874  1  -0.030526  0  -0.021232  -0.042873  0  3.975255  0
C  C72  1  0.00429521  0.63639310  0.05997048  1  -0.006499  0  -0.082967  -0.086139  0  3.977074  0
C  C73  1  0.07996966  0.55149331  0.05354031  1  -0.048375  0  -0.09117  -0.136489  0  3.983264  0
C  C74  1  0.20477310  0.53920814  0.02917250  1  -0.071261  0  -0.004167  0.071504  0  3.996916  0
C  C75  1  0.25112567  0.61504946  0.01367378  1  -0.000127  0  -0.092581  -0.134717  0  3.974856  0
C  C76  1  0.17582525  0.69979610  0.02224822  1  -0.07152  0  -0.083788  -0.077055  0  3.972477  0
C  C77  1  0.28606046  0.44952370  0.02009435  1  -0.011767  0  -0.001596  0.075994  0  3.992382  0
C  C78  1  0.25574665  0.37710728  0.07397591  1  -0.086743  0  -0.087664  -0.13087  0  3.976263  0
C  C79  1  0.33402628  0.29334853  0.06614063  1  0.00806  0  -0.081592  -0.077844  0  3.983513  0
C  C80  1  0.44490792  0.27926045  0.00409966  1  -0.013585  0  -0.022761  -0.048666  0  3.976565  0
C  C81  1  0.47513451  0.35071674  0.94911441  1  -0.058375  0  -0.081369  -0.083004  0  3.985324  0
C  C82  1  0.39699884  0.43447850  0.95723599  1  -0.070914  0  -0.088428  -0.136085  0  3.981288  0
C  C83  1  0.52925743  0.18955752  0.99674465  1  1.555642  0  0.216007  0.598736  0  4.169531  0
C  C84  1  0.52757783  0.94847741  0.19690398  1  1.567158  0  0.218519  0.606585  0  4.167642  0
C  C85  1  0.44828174  0.95554239  0.28856489  1  -0.030489  0  -0.021236  -0.042875  0  3.97526  0
C  C86  1  0.49570571  0.94003065  0.36360671  1  -0.006807  0  -0.082975  -0.086137  0  3.977045  0
C  C87  1  0.42003066  0.94646040  0.44850756  1  -0.04806  0  -0.091161  -0.136457  0  3.983124  0
C  C88  1  0.29522680  0.97082721  0.46079192  1  -0.071278  0  -0.004197  0.071428  0  3.99695  0
C  C89  1  0.24887448  0.98632647  0.38495058  1  -0.000131  0  -0.092583  -0.134708  0  3.974863  0
C  C90  1  0.32417486  0.97775241  0.30020397  1  -0.071519  0  -0.083788  -0.077061  0  3.972455  0
C  C91  1  0.21394175  0.97990410  0.55047651  1  -0.011733  0  -0.001532  0.076022  0  3.992267  0
C  C92  1  0.24425308  0.92602498  0.62289402  1  -0.08678  0  -0.087709  -0.130912  0  3.976319  0
C  C93  1  0.16597369  0.93386102  0.70665036  1  0.008086  0  -0.081615  -0.077898  0  3.983555  0
C  C94  1  0.05509110  0.99590053  0.72073886  1  -0.013576  0  -0.022735  -0.04853  0  3.976339  0
C  C95  1  0.02486685  0.05088540  0.64928198  1  -0.058394  0  -0.081387  -0.083085  0  3.985268  0
C  C96  1  0.10299927  0.04276448  0.56552048  1  -0.070818  0  -0.088433  -0.136  0  3.981214  0
C  C97  1  0.97074185  0.00325628  0.81044264  1  1.555847  0  0.215981  0.598621  0  4.16967  0
O  O98  1  0.18552350  0.96502789  0.96002255  1  -1.229726  0  -0.55863  -0.872472  0  2.322436  0
O  O99  1  0.13913778  0.19023050  0.94234142  1  -1.166564  0  -0.326912  -0.564009  0  2.307166  0
O  O100  1  0.98201974  0.13230055  0.94824947  1  -1.201166  0  -0.316344  -0.580008  0  2.357315  0
O  O101  1  0.36721365  0.81599808  0.05714829  1  -1.160638  0  -0.317239  -0.550906  0  2.320364  0
O  O102  1  0.50359894  0.87487721  0.95647273  1  -1.196117  0  -0.324574  -0.583236  0  2.31023  0
O  O103  1  0.31447723  0.03997663  0.03497153  1  -1.229602  0  -0.558608  -0.872497  0  2.322376  0
O  O104  1  0.36086340  0.05765722  0.80976914  1  -1.167173  0  -0.326908  -0.563996  0  2.307218  0
O  O105  1  0.51798035  0.05174920  0.86769983  1  -1.201163  0  -0.316327  -0.580009  0  2.357358  0
O  O106  1  0.13278789  0.94285097  0.18400296  1  -1.160662  0  -0.317193  -0.550791  0  2.320398  0
O  O107  1  0.99640375  0.04352468  0.12512242  1  -1.196066  0  -0.32457  -0.5832  0  2.310316  0
O  O108  1  0.81447597  0.03497214  0.03997581  1  -1.229562  0  -0.558618  -0.872472  0  2.322387  0
O  O109  1  0.86086279  0.80976888  0.05765742  1  -1.166614  0  -0.326929  -0.564034  0  2.307212  0
O  O110  1  0.01797952  0.86770015  0.05174951  1  -1.201141  0  -0.316323  -0.579946  0  2.357277  0
O  O111  1  0.63278713  0.18400329  0.94285159  1  -1.160663  0  -0.3172  -0.550831  0  2.320436  0
O  O112  1  0.49640336  0.12512217  0.04352640  1  -1.196069  0  -0.324579  -0.58322  0  2.310289  0
O  O113  1  0.68552421  0.96002275  0.96502777  1  -1.229619  0  -0.55862  -0.872467  0  2.322386  0
O  O114  1  0.63913783  0.94234282  0.19023142  1  -1.166638  0  -0.32694  -0.564048  0  2.307205  0
O  O115  1  0.48202002  0.94825083  0.13230091  1  -1.201113  0  -0.316308  -0.579972  0  2.357355  0
O  O116  1  0.86721223  0.05714973  0.81599584  1  -1.160699  0  -0.317215  -0.550827  0  2.320453  0
O  O117  1  0.00359464  0.95647602  0.87487674  1  -1.19623  0  -0.324538  -0.58315  0  2.310433  0
