# generated using pymatgen
data_Zn4H16C48O29F4
_symmetry_space_group_name_H-M   'P 1'
_cell_length_a   23.64651042
_cell_length_b   23.64812304
_cell_length_c   23.64607380
_cell_angle_alpha   67.07771131
_cell_angle_beta   72.23365002
_cell_angle_gamma   107.77915804
_symmetry_Int_Tables_number   1
_chemical_formula_structural   Zn4H16C48O29F4
_chemical_formula_sum   'Zn8 H32 C96 O58 F8'
_cell_volume   10151.26470118
_cell_formula_units_Z   2
loop_
 _symmetry_equiv_pos_site_id
 _symmetry_equiv_pos_as_xyz
  1  'x, y, z'
loop_
 _atom_site_type_symbol
 _atom_site_label
 _atom_site_symmetry_multiplicity
 _atom_site_fract_x
 _atom_site_fract_y
 _atom_site_fract_z
 _atom_site_occupancy
 _atom_site_pbe_bader_charge
 _atom_site_pbe_bader_spin_density
 _atom_site_pbe_cm5_charge
 _atom_site_pbe_ddec_charge
 _atom_site_pbe_ddec_spin_density
 _atom_site_pbe_ddec_sum_bond_order
 _atom_site_pbe_magmom
Zn  Zn0  1  0.05847976  0.95733942  0.48913334  1  1.323168  0  0.687104  0.978377  0  2.353731  0
Zn  Zn1  1  0.05848000  0.10113622  0.45239445  1  1.320889  0  0.687174  0.978332  0  2.35361  0
Zn  Zn2  1  0.94150820  0.98912146  0.45733279  1  1.323112  0  0.687123  0.978473  0  2.35371  0
Zn  Zn3  1  0.94152117  0.95239046  0.60113956  1  1.32098  0  0.68719  0.978481  0  2.353408  0
Zn  Zn4  1  0.94646929  0.54760547  0.01087061  1  1.320256  0  0.687191  0.978371  0  2.353441  0
Zn  Zn5  1  0.05353913  0.51086549  0.04761581  1  1.320404  0  0.68717  0.978343  0  2.353753  0
Zn  Zn6  1  0.94645943  0.39885699  0.04265652  1  1.32074  0  0.687074  0.97829  0  2.354059  0
Zn  Zn7  1  0.05352682  0.54265173  0.89885864  1  1.320944  0  0.687095  0.978376  0  2.353973  0
H  H8  1  0.94172984  0.73687556  0.15543887  1  0.110461  0  0.117663  0.127004  0  0.973468  0
H  H9  1  0.05826753  0.65541743  0.23692927  1  0.109562  0  0.117643  0.12701  0  0.973239  0
H  H10  1  0.90656187  0.80336095  0.31087707  1  0.104592  0  0.118698  0.128528  0  0.976043  0
H  H11  1  0.09339348  0.81084262  0.30343965  1  0.103612  0  0.118583  0.128452  0  0.976134  0
H  H12  1  0.05825369  0.40280887  0.70483844  1  0.106997  0  0.117565  0.126808  0  0.973549  0
H  H13  1  0.94171976  0.20481275  0.90285773  1  0.106464  0  0.117623  0.126965  0  0.973376  0
H  H14  1  0.09339096  0.28255540  0.60318383  1  0.096311  0  0.118649  0.128523  0  0.97602  0
H  H15  1  0.90659388  0.10316592  0.78255465  1  0.09493  0  0.118585  0.128508  0  0.97601  0
H  H16  1  0.61427251  0.39682407  0.19656841  1  0.100743  0  0.118661  0.12856  0  0.976046  0
H  H17  1  0.61425488  0.21744489  0.18914901  1  0.110875  0  0.118679  0.128592  0  0.976003  0
H  H18  1  0.39232229  0.29517505  0.26307933  1  0.111445  0  0.117583  0.12698  0  0.973482  0
H  H19  1  0.39234650  0.09718636  0.34454131  1  0.106712  0  0.117627  0.126915  0  0.973474  0
H  H20  1  0.38574522  0.69658524  0.89682956  1  0.099891  0  0.118632  0.12852  0  0.975852  0
H  H21  1  0.38571994  0.68913072  0.71745860  1  0.110531  0  0.118604  0.128501  0  0.975995  0
H  H22  1  0.60768765  0.76309672  0.79517305  1  0.111553  0  0.117565  0.126963  0  0.973505  0
H  H23  1  0.60763378  0.84452173  0.59718118  1  0.100173  0  0.117651  0.126916  0  0.973604  0
H  H24  1  0.85468987  0.59474052  0.13312062  1  0.653078  0  0.325351  0.3777  0  0.899238  0
H  H25  1  0.14530373  0.63312445  0.09475289  1  0.653008  0  0.325405  0.377872  0  0.89914  0
H  H26  1  0.92119406  0.93780629  0.28932741  1  0.610028  0  0.351094  0.38469  0  0.848589  0
H  H27  1  0.07876813  0.78931211  0.43788547  1  0.609713  0  0.35091  0.384336  0  0.848878  0
H  H28  1  0.14530048  0.51216952  0.75995357  1  0.642235  0  0.32531  0.377734  0  0.899118  0
H  H29  1  0.85469257  0.25994296  0.01218162  1  0.641562  0  0.325409  0.377805  0  0.899028  0
H  H30  1  0.07876905  0.28946410  0.48336354  1  0.617522  0  0.350871  0.384303  0  0.848814  0
H  H31  1  0.92122201  0.98337669  0.78947240  1  0.617663  0  0.350936  0.38433  0  0.848734  0
H  H32  1  0.72715603  0.51662504  0.06214837  1  0.611677  0  0.350957  0.384412  0  0.848767  0
H  H33  1  0.72715320  0.21052985  0.21069516  1  0.618917  0  0.351005  0.384402  0  0.848911  0
H  H34  1  0.22787984  0.24004758  0.40524163  1  0.647117  0  0.3254  0.377738  0  0.899162  0
H  H35  1  0.22785860  0.98781269  0.36687879  1  0.641313  0  0.325295  0.380695  0  0.896681  0
H  H36  1  0.27284493  0.56214820  0.01664507  1  0.61177  0  0.350931  0.384366  0  0.848779  0
H  H37  1  0.27282300  0.71066339  0.71054674  1  0.618671  0  0.351052  0.384654  0  0.848591  0
H  H38  1  0.77213982  0.90525190  0.74005278  1  0.647086  0  0.325373  0.377769  0  0.899252  0
H  H39  1  0.77209817  0.86683177  0.48783650  1  0.642446  0  0.325293  0.380333  0  0.896479  0
C  C40  1  0.18283202  0.09141670  0.40858289  1  1.593154  0  0.232995  0.611542  0  4.167186  0
C  C41  1  0.99999764  0.13796951  0.36201582  1  1.596826  0  0.232732  0.64211  0  4.147456  0
C  C42  1  0.99997735  0.91198874  0.41202424  1  1.536296  0  0.229971  0.609039  0  4.174124  0
C  C43  1  0.81716216  0.90857575  0.59141230  1  1.593408  0  0.233065  0.611707  0  4.167427  0
C  C44  1  0.00000446  0.86202245  0.63797800  1  1.595793  0  0.232483  0.641868  0  4.147758  0
C  C45  1  0.99999931  0.08798998  0.58798778  1  1.539613  0  0.230013  0.609011  0  4.174098  0
C  C46  1  0.00000854  0.59141212  0.09141569  1  1.576198  0  0.232906  0.611416  0  4.167761  0
C  C47  1  0.00000113  0.36201739  0.13797783  1  1.574869  0  0.23257  0.641912  0  4.14755  0
C  C48  1  0.82401582  0.41201071  0.08798909  1  1.560199  0  0.229998  0.60895  0  4.174146  0
C  C49  1  0.99999109  0.40857791  0.90858302  1  1.583829  0  0.233132  0.612016  0  4.167028  0
C  C50  1  0.00000117  0.63797578  0.86202075  1  1.5753  0  0.23255  0.641971  0  4.147594  0
C  C51  1  0.17597909  0.58798094  0.91201929  1  1.559684  0  0.229815  0.608875  0  4.174626  0
C  C52  1  0.00000761  0.80482476  0.69517381  1  0.100448  0  -0.019989  -0.207311  0  3.968829  0
C  C53  1  0.00000318  0.69517231  0.80482087  1  0.100888  0  -0.020029  -0.207452  0  3.969088  0
C  C54  1  0.95718563  0.77685550  0.76630912  1  0.624754  0  0.104472  0.171998  0  4.061138  0
C  C55  1  0.04316430  0.72348709  0.73368780  1  0.621212  0  0.104446  0.172165  0  4.061346  0
C  C56  1  0.95683891  0.72314190  0.81967586  1  0.53437  0  0.104627  0.17233  0  4.061076  0
C  C57  1  0.04282332  0.77650616  0.68032374  1  0.538236  0  0.104353  0.171995  0  4.061286  0
C  C58  1  0.99999460  0.19516994  0.30482187  1  0.100139  0  -0.020044  -0.207451  0  3.968839  0
C  C59  1  0.99999541  0.30481510  0.19517623  1  0.102658  0  -0.019969  -0.207245  0  3.968721  0
C  C60  1  0.95716845  0.18031819  0.27650287  1  0.54614  0  0.104263  0.171932  0  4.061137  0
C  C61  1  0.04316504  0.31966646  0.22315108  1  0.533249  0  0.104327  0.171918  0  4.061336  0
C  C62  1  0.95682412  0.23368297  0.22348499  1  0.611565  0  0.104435  0.172083  0  4.061277  0
C  C63  1  0.04281954  0.26630000  0.27686079  1  0.626122  0  0.104553  0.17218  0  4.061393  0
C  C64  1  0.00001130  0.62902024  0.12903688  1  0.074054  0  -0.008603  -0.085848  0  3.928672  0
C  C65  1  0.96612017  0.66920520  0.12462941  1  -0.023941  0  0.002411  -0.034289  0  3.952516  0
C  C66  1  0.96634298  0.70442569  0.16011401  1  -0.031368  0  -0.069997  -0.14164  0  3.897926  0
C  C67  1  0.00000066  0.70026198  0.20029470  1  0.143534  0  0.011316  0.153696  0  4.118533  0
C  C68  1  0.03365989  0.66009250  0.20446688  1  -0.031744  0  -0.0698  -0.141417  0  3.897828  0
C  C69  1  0.03389687  0.62461968  0.16923307  1  -0.025152  0  0.002317  -0.034532  0  3.952663  0
C  C70  1  0.99998941  0.73614394  0.23619657  1  -0.2691  0  -0.023945  -0.070638  0  4.081174  0
C  C71  1  0.99997756  0.76709559  0.26716250  1  -0.164218  0  -0.039195  -0.112615  0  4.0928  0
C  C72  1  0.99997419  0.80295740  0.30301978  1  0.169888  0  0.013889  0.172988  0  4.096584  0
C  C73  1  0.94758222  0.81954651  0.32268913  1  0.002812  0  -0.071561  -0.151338  0  3.902315  0
C  C74  1  0.94724008  0.85439013  0.35854606  1  -0.08977  0  -0.003565  -0.06059  0  4.00136  0
C  C75  1  0.99997409  0.87428649  0.37433442  1  0.115783  0  -0.003973  -0.064899  0  3.931747  0
C  C76  1  0.05271043  0.85850372  0.35445569  1  -0.090568  0  -0.003822  -0.060693  0  4.001042  0
C  C77  1  0.05236488  0.82263706  0.31962060  1  0.004957  0  -0.071388  -0.151257  0  3.901336  0
C  C78  1  0.99999299  0.37095877  0.87097573  1  0.079754  0  -0.008701  -0.086062  0  3.928631  0
C  C79  1  0.03387583  0.40924205  0.79690029  1  -0.025935  0  0.002346  -0.034271  0  3.952741  0
C  C80  1  0.03364503  0.37353052  0.76190856  1  0.021796  0  -0.069823  -0.14139  0  3.897839  0
C  C81  1  0.99998087  0.29969644  0.79973841  1  0.04067  0  0.011395  0.153656  0  4.118015  0
C  C82  1  0.96632972  0.26188003  0.87356936  1  0.022192  0  -0.069803  -0.141425  0  3.897848  0
C  C83  1  0.96610038  0.29688104  0.90927698  1  -0.026943  0  0.002352  -0.034631  0  3.952722  0
C  C84  1  0.99998834  0.26380500  0.76384288  1  -0.270217  0  -0.023716  -0.069915  0  4.080717  0
C  C85  1  0.99998852  0.23284955  0.73287860  1  -0.16385  0  -0.03953  -0.113469  0  4.092876  0
C  C86  1  0.99999354  0.19700299  0.69700934  1  0.21407  0  0.013935  0.173446  0  4.096381  0
C  C87  1  0.05237257  0.22972415  0.62802224  1  -0.010098  0  -0.071471  -0.15159  0  3.901526  0
C  C88  1  0.05272203  0.19421131  0.59283681  1  -0.076631  0  -0.003731  -0.060366  0  4.000845  0
C  C89  1  0.99999684  0.12568547  0.62568495  1  0.105039  0  -0.003982  -0.065178  0  3.931992  0
C  C90  1  0.94726929  0.09283497  0.69420423  1  -0.077285  0  -0.003674  -0.060194  0  4.000981  0
C  C91  1  0.94761510  0.12801383  0.72972406  1  -0.008567  0  -0.071471  -0.151625  0  3.901857  0
C  C92  1  0.74862678  0.37431229  0.12568321  1  0.091365  0  -0.004113  -0.065919  0  3.932072  0
C  C93  1  0.71295645  0.40716113  0.14556037  1  0.007474  0  -0.003643  -0.060239  0  4.001095  0
C  C94  1  0.64225705  0.37197974  0.18039300  1  -0.058357  0  -0.071497  -0.151634  0  3.90159  0
C  C95  1  0.60598136  0.30299301  0.19699770  1  0.048537  0  0.013867  0.173401  0  4.096256  0
C  C96  1  0.64224794  0.27027634  0.17733631  1  -0.036193  0  -0.071399  -0.152084  0  3.901477  0
C  C97  1  0.71294625  0.30578938  0.14148067  1  -0.066126  0  -0.003734  -0.058673  0  3.998984  0
C  C98  1  0.53426547  0.26713972  0.23285056  1  -0.088282  0  -0.039436  -0.113166  0  4.092793  0
C  C99  1  0.47234425  0.23618786  0.26380754  1  -0.237299  0  -0.023763  -0.070261  0  4.080916  0
C  C100  1  0.40056057  0.20029312  0.29969641  1  0.153276  0  0.011345  0.153726  0  4.118666  0
C  C101  1  0.36454689  0.23811184  0.29553446  1  -0.008542  0  -0.069734  -0.141488  0  3.898064  0
C  C102  1  0.29383960  0.20311074  0.33076730  1  -0.046997  0  0.00225  -0.034663  0  3.952856  0
C  C103  1  0.25805792  0.12903617  0.37096169  1  0.06149  0  -0.008677  -0.085677  0  3.928506  0
C  C104  1  0.29384713  0.09075037  0.37535904  1  -0.058484  0  0.002408  -0.034315  0  3.952132  0
C  C105  1  0.36455348  0.12646160  0.33987188  1  0.024458  0  -0.069817  -0.141373  0  3.897832  0
C  C106  1  0.25137003  0.62567337  0.87432188  1  0.092002  0  -0.004171  -0.065425  0  3.932104  0
C  C107  1  0.28705210  0.64555847  0.90717253  1  0.004525  0  -0.003664  -0.060281  0  4.000947  0
C  C108  1  0.35775156  0.68039505  0.87198888  1  -0.055052  0  -0.071357  -0.151437  0  3.902008  0
C  C109  1  0.39401216  0.69699355  0.80300592  1  0.048236  0  0.013881  0.173301  0  4.09691  0
C  C110  1  0.35773463  0.67731724  0.77029177  1  -0.034865  0  -0.07151  -0.151549  0  3.901981  0
C  C111  1  0.28703890  0.64146035  0.80580412  1  -0.06784  0  -0.003579  -0.060153  0  4.000926  0
C  C112  1  0.46572940  0.73285291  0.76714900  1  -0.091743  0  -0.039521  -0.11337  0  4.092893  0
C  C113  1  0.52764911  0.76380744  0.73618762  1  -0.233263  0  -0.023703  -0.070044  0  4.080862  0
C  C114  1  0.59943437  0.79969270  0.70029016  1  0.15297  0  0.011361  0.153756  0  4.118397  0
C  C115  1  0.63545601  0.79554424  0.73810465  1  -0.008246  0  -0.069724  -0.141388  0  3.89806  0
C  C116  1  0.70616390  0.83077446  0.70310100  1  -0.046972  0  0.002274  -0.034716  0  3.953088  0
C  C117  1  0.74193515  0.87096039  0.62902630  1  0.061526  0  -0.008622  -0.08552  0  3.928486  0
C  C118  1  0.70613610  0.87534920  0.59074201  1  -0.058191  0  0.002183  -0.034988  0  3.952716  0
C  C119  1  0.63542959  0.83985842  0.62645606  1  0.030501  0  -0.069755  -0.141247  0  3.897776  0
C  C120  1  0.93711976  0.68638816  0.07497096  1  1.585968  0  0.230557  0.583713  0  4.130863  0
C  C121  1  0.06291334  0.57498926  0.18641969  1  1.586731  0  0.23065  0.583882  0  4.130928  0
C  C122  1  0.88685548  0.86508132  0.38461803  1  1.580949  0  0.239936  0.590897  0  4.121304  0
C  C123  1  0.11310037  0.88459597  0.36514747  1  1.581307  0  0.239937  0.590961  0  4.120599  0
C  C124  1  0.06288662  0.48789202  0.75070132  1  1.584039  0  0.230518  0.58372  0  4.131243  0
C  C125  1  0.93710334  0.25070247  0.98791961  1  1.582797  0  0.230459  0.583911  0  4.131179  0
C  C126  1  0.11310861  0.22851677  0.52176413  1  1.551964  0  0.239984  0.590871  0  4.120967  0
C  C127  1  0.88688923  0.02175630  0.72850259  1  1.548879  0  0.239771  0.590503  0  4.12127  0
C  C128  1  0.74973231  0.47823743  0.13487196  1  1.556915  0  0.239788  0.590668  0  4.121098  0
C  C129  1  0.74971318  0.27148242  0.11540448  1  1.560785  0  0.239841  0.590255  0  4.121129  0
C  C130  1  0.26137197  0.24928687  0.31359287  1  1.588986  0  0.230654  0.583941  0  4.130805  0
C  C131  1  0.26140096  0.01210096  0.42500436  1  1.574234  0  0.230615  0.58429  0  4.13114  0
C  C132  1  0.25028489  0.63487254  0.97824618  1  1.557764  0  0.239875  0.590904  0  4.121035  0
C  C133  1  0.25025393  0.61537439  0.77150485  1  1.561807  0  0.239785  0.590615  0  4.121075  0
C  C134  1  0.73863466  0.81360323  0.74928244  1  1.589494  0  0.230609  0.58379  0  4.131114  0
C  C135  1  0.73857030  0.92497332  0.51209064  1  1.57607  0  0.230874  0.584736  0  4.129987  0
O  O136  1  0.99999424  0.99999433  0.49999595  1  -1.232504  0  -0.576873  -1.044099  0  2.54893  0
O  O137  1  0.15355254  0.02852503  0.42358306  1  -1.168794  0  -0.302118  -0.53699  0  2.378581  0
O  O138  1  0.05320883  0.15375899  0.36847796  1  -1.147692  0  -0.305633  -0.530748  0  2.334194  0
O  O139  1  0.97424515  0.95256362  0.39985316  1  -1.153117  0  -0.302774  -0.534739  0  2.345889  0
O  O140  1  0.15356199  0.12502772  0.42286205  1  -1.170531  0  -0.302  -0.537085  0  2.378745  0
O  O141  1  0.02571772  0.89983402  0.45260034  1  -1.15266  0  -0.302728  -0.534781  0  2.345931  0
O  O142  1  0.94678481  0.07829879  0.39941895  1  -1.158044  0  -0.305704  -0.530919  0  2.333856  0
O  O143  1  0.84643385  0.92358276  0.52851634  1  -1.168587  0  -0.302082  -0.537038  0  2.378811  0
O  O144  1  0.94680199  0.86849110  0.65377215  1  -1.146811  0  -0.305495  -0.530675  0  2.334273  0
O  O145  1  0.84644297  0.92285549  0.62502393  1  -1.170798  0  -0.3021  -0.537296  0  2.379109  0
O  O146  1  0.05321643  0.89943552  0.57830627  1  -1.15813  0  -0.305589  -0.530797  0  2.333909  0
O  O147  1  0.02573006  0.12588646  0.52167539  1  -1.153621  0  -0.302809  -0.534793  0  2.345883  0
O  O148  1  0.97427298  0.02168367  0.62588559  1  -1.153433  0  -0.302764  -0.534753  0  2.345967  0
O  O149  1  0.00000128  0.49999593  0.99999821  1  -1.228581  0  -0.576829  -1.044028  0  2.549022  0
O  O150  1  0.95211253  0.57712892  0.07642211  1  -1.166639  0  -0.302024  -0.537082  0  2.378824  0
O  O151  1  0.02226094  0.42168677  0.13151775  1  -1.143074  0  -0.305544  -0.530692  0  2.334222  0
O  O152  1  0.85243272  0.37411318  0.10015322  1  -1.154393  0  -0.302791  -0.534733  0  2.345657  0
O  O153  1  0.04789490  0.57640554  0.07715426  1  -1.166774  0  -0.302052  -0.537109  0  2.378848  0
O  O154  1  0.85242731  0.47831652  0.04741024  1  -1.163662  0  -0.302706  -0.534635  0  2.346066  0
O  O155  1  0.97773511  0.34622294  0.10056187  1  -1.145036  0  -0.305654  -0.53081  0  2.333769  0
O  O156  1  0.95209979  0.37496739  0.97146823  1  -1.169904  0  -0.302147  -0.537346  0  2.378674  0
O  O157  1  0.02225611  0.60056101  0.84622386  1  -1.144894  0  -0.305609  -0.530875  0  2.333776  0
O  O158  1  0.04788397  0.47146653  0.87497086  1  -1.16969  0  -0.302033  -0.537316  0  2.378804  0
O  O159  1  0.97774259  0.63151163  0.92168850  1  -1.143357  0  -0.305535  -0.530664  0  2.334326  0
O  O160  1  0.14757236  0.54740995  0.97832579  1  -1.163062  0  -0.302696  -0.534681  0  2.346459  0
O  O161  1  0.14756549  0.60015060  0.87411475  1  -1.154435  0  -0.302668  -0.534636  0  2.345741  0
O  O162  1  0.87250517  0.64334934  0.09570346  1  -1.141737  0  -0.336144  -0.476046  0  2.261537  0
O  O163  1  0.97058049  0.74282264  0.01958767  1  -1.099023  0  -0.285526  -0.448653  0  2.010849  0
O  O164  1  0.12751624  0.59572634  0.14336095  1  -1.142012  0  -0.336055  -0.476077  0  2.261768  0
O  O165  1  0.02947970  0.51962865  0.24287461  1  -1.099311  0  -0.285748  -0.448904  0  2.010708  0
O  O166  1  0.88028011  0.91167307  0.33476003  1  -1.086216  0  -0.319054  -0.451791  0  2.201851  0
O  O167  1  0.84376278  0.83139570  0.44610939  1  -1.128413  0  -0.271599  -0.449915  0  2.065377  0
O  O168  1  0.11968246  0.83475033  0.41174611  1  -1.085758  0  -0.318912  -0.451478  0  2.201474  0
O  O169  1  0.15617900  0.94609297  0.33145106  1  -1.128179  0  -0.271443  -0.449708  0  2.06551  0
O  O170  1  0.12749658  0.53176437  0.72914151  1  -1.129437  0  -0.335899  -0.475869  0  2.26163  0
O  O171  1  0.02943609  0.50981716  0.72770425  1  -1.098697  0  -0.285758  -0.44894  0  2.011051  0
O  O172  1  0.87249808  0.22914370  0.03179178  1  -1.128425  0  -0.335992  -0.47605  0  2.26171  0
O  O173  1  0.97055465  0.22771453  0.00984543  1  -1.098635  0  -0.285621  -0.448746  0  2.010944  0
O  O174  1  0.11968257  0.28494307  0.46858941  1  -1.092264  0  -0.318926  -0.451575  0  2.201913  0
O  O175  1  0.15619501  0.21011232  0.51237623  1  -1.109475  0  -0.271478  -0.449836  0  2.064151  0
O  O176  1  0.88030840  0.96859141  0.78494480  1  -1.092429  0  -0.318876  -0.451405  0  2.20188  0
O  O177  1  0.84380110  0.01235505  0.71008837  1  -1.106207  0  -0.271381  -0.449777  0  2.064297  0
O  O178  1  0.74646399  0.53140581  0.08828216  1  -1.088778  0  -0.318958  -0.451615  0  2.201817  0
O  O179  1  0.77754420  0.48763246  0.16856225  1  -1.105573  0  -0.271355  -0.449765  0  2.064486  0
O  O180  1  0.74645154  0.21505203  0.16525999  1  -1.098069  0  -0.319049  -0.451702  0  2.202162  0
O  O181  1  0.77751020  0.28988327  0.05391181  1  -1.111138  0  -0.271379  -0.449784  0  2.06455  0
O  O182  1  0.23906890  0.27085088  0.35663579  1  -1.137238  0  -0.336086  -0.475987  0  2.26176  0
O  O183  1  0.26242753  0.27227397  0.25715485  1  -1.103998  0  -0.285742  -0.44886  0  2.010687  0
O  O184  1  0.23907804  0.96821986  0.40427677  1  -1.134938  0  -0.335951  -0.480018  0  2.256862  0
O  O185  1  0.26248206  0.99018256  0.48037458  1  -1.098725  0  -0.285768  -0.449008  0  2.010599  0
O  O186  1  0.25354644  0.58828285  0.03142091  1  -1.089143  0  -0.318971  -0.451722  0  2.201851  0
O  O187  1  0.22248553  0.66856309  0.98763833  1  -1.105969  0  -0.271443  -0.449835  0  2.064333  0
O  O188  1  0.25351539  0.66522651  0.71506982  1  -1.097466  0  -0.319017  -0.451807  0  2.201723  0
O  O189  1  0.22244659  0.55387968  0.78991258  1  -1.112065  0  -0.271378  -0.449817  0  2.064352  0
O  O190  1  0.76094656  0.85664653  0.77085226  1  -1.136925  0  -0.336188  -0.476128  0  2.261569  0
O  O191  1  0.73758195  0.75716984  0.77226091  1  -1.104607  0  -0.285607  -0.448653  0  2.010992  0
O  O192  1  0.76089418  0.90423470  0.46822520  1  -1.136685  0  -0.336006  -0.479419  0  2.256943  0
O  O193  1  0.73749252  0.98033914  0.49015529  1  -1.100562  0  -0.285933  -0.449238  0  2.010007  0
F  F194  1  0.91567103  0.80156959  0.78595574  1  -0.607268  0  -0.077794  -0.088839  0  1.390821  0
F  F195  1  0.08752181  0.70161541  0.71404404  1  -0.605784  0  -0.077647  -0.088745  0  1.390738  0
F  F196  1  0.91248089  0.69843105  0.88590230  1  -0.605974  0  -0.077804  -0.088914  0  1.390848  0
F  F197  1  0.08433949  0.79838196  0.61409123  1  -0.603695  0  -0.077642  -0.088767  0  1.390877  0
F  F198  1  0.91564701  0.11408731  0.29837279  1  -0.603342  0  -0.077595  -0.088717  0  1.391041  0
F  F199  1  0.08752728  0.38589822  0.19844363  1  -0.605976  0  -0.077714  -0.088826  0  1.390873  0
F  F200  1  0.91246256  0.21404022  0.20161097  1  -0.605869  0  -0.077551  -0.088644  0  1.391226  0
F  F201  1  0.08433915  0.28594703  0.30157912  1  -0.607634  0  -0.077666  -0.088726  0  1.390756  0
