# generated using pymatgen
data_CdH6C9(SN3)2
_symmetry_space_group_name_H-M   'P 1'
_cell_length_a   8.18839222
_cell_length_b   10.84761005
_cell_length_c   15.26268222
_cell_angle_alpha   90.00002334
_cell_angle_beta   89.99987703
_cell_angle_gamma   106.88281776
_symmetry_Int_Tables_number   1
_chemical_formula_structural   CdH6C9(SN3)2
_chemical_formula_sum   'Cd4 H24 C36 S8 N24'
_cell_volume   1297.27020766
_cell_formula_units_Z   4
loop_
 _symmetry_equiv_pos_site_id
 _symmetry_equiv_pos_as_xyz
  1  'x, y, z'
loop_
 _atom_site_type_symbol
 _atom_site_label
 _atom_site_symmetry_multiplicity
 _atom_site_fract_x
 _atom_site_fract_y
 _atom_site_fract_z
 _atom_site_occupancy
 _atom_site_hle17_bader_spin_density
 _atom_site_hle17_ddec_charge
 _atom_site_hle17_ddec_spin_density
 _atom_site_hle17_ddec_sum_bond_order
 _atom_site_hle17_magmom
 _atom_site_hse06_10hf_bader_spin_density
 _atom_site_hse06_10hf_ddec_charge
 _atom_site_hse06_10hf_ddec_spin_density
 _atom_site_hse06_10hf_ddec_sum_bond_order
 _atom_site_hse06_10hf_magmom
 _atom_site_hse06_bader_spin_density
 _atom_site_hse06_ddec_charge
 _atom_site_hse06_ddec_spin_density
 _atom_site_hse06_ddec_sum_bond_order
 _atom_site_hse06_magmom
 _atom_site_pbe_bader_spin_density
 _atom_site_pbe_cm5_charge
 _atom_site_pbe_ddec_charge
 _atom_site_pbe_ddec_spin_density
 _atom_site_pbe_ddec_sum_bond_order
 _atom_site_pbe_magmom
Cd  Cd0  1  0.42220344  0.16123724  0.13590381  1  0  0.966134  0  1.989861  0  0  0.784419  0  2.45698  0  0  0.829381  0  2.418921  0  0  0.726689  0.751481  0  2.48483  0
Cd  Cd1  1  0.57779923  0.33876553  0.63590302  1  0  0.96614  0  1.989866  0  0  0.784412  0  2.457015  0  0  0.829375  0  2.418955  0  0  0.726688  0.751475  0  2.484866  0
Cd  Cd2  1  0.57779855  0.83876489  0.86409692  1  0  0.966126  0  1.989844  0  0  0.784399  0  2.456985  0  0  0.829362  0  2.418925  0  0  0.726685  0.75146  0  2.484836  0
Cd  Cd3  1  0.42220031  0.66123658  0.36409575  1  0  0.966108  0  1.989918  0  0  0.78439  0  2.457055  0  0  0.829353  0  2.418995  0  0  0.726677  0.75145  0  2.484908  0
H  H4  1  0.81836661  0.43879666  0.46487922  1  0  0.08548  0  0.951606  0  0  0.090918  0  1.01856  0  0  0.093067  0  1.017146  0  0  0.113892  0.089405  0  1.019439  0
H  H5  1  0.18163362  0.06120312  0.96487684  1  0  0.085495  0  0.951584  0  0  0.090915  0  1.018566  0  0  0.093064  0  1.017152  0  0  0.113898  0.089401  0  1.019446  0
H  H6  1  0.18162940  0.56120255  0.53512348  1  0  0.085516  0  0.951655  0  0  0.090936  0  1.018631  0  0  0.093085  0  1.017216  0  0  0.113911  0.089424  0  1.019509  0
H  H7  1  0.81836325  0.93879514  0.03512258  1  0  0.085505  0  0.951623  0  0  0.090935  0  1.018596  0  0  0.093082  0  1.01718  0  0  0.113896  0.089421  0  1.019474  0
H  H8  1  0.97894846  0.36177412  0.34816961  1  0  0.121641  0  0.986162  0  0  0.124512  0  1.056737  0  0  0.128284  0  1.055265  0  0  0.109444  0.121737  0  1.058039  0
H  H9  1  0.02104894  0.13822663  0.84817006  1  0  0.121662  0  0.98616  0  0  0.124545  0  1.056719  0  0  0.128314  0  1.055257  0  0  0.109456  0.121771  0  1.058022  0
H  H10  1  0.02104913  0.63822606  0.65183243  1  0  0.121619  0  0.986165  0  0  0.1245  0  1.056734  0  0  0.128271  0  1.055269  0  0  0.109435  0.121726  0  1.058036  0
H  H11  1  0.97895391  0.86177455  0.15182936  1  0  0.121677  0  0.986129  0  0  0.124565  0  1.056685  0  0  0.128338  0  1.055213  0  0  0.109459  0.12179  0  1.057989  0
H  H12  1  0.85032617  0.99464098  0.48350576  1  0  0.108663  0  1.004629  0  0  0.115333  0  1.074961  0  0  0.118668  0  1.073875  0  0  0.095276  0.112938  0  1.075975  0
H  H13  1  0.14967429  0.50535951  0.98350733  1  0  0.108655  0  1.004633  0  0  0.115333  0  1.074947  0  0  0.118668  0  1.07386  0  0  0.095274  0.112937  0  1.075961  0
H  H14  1  0.14967546  0.00536018  0.51649498  1  0  0.10865  0  1.004634  0  0  0.115324  0  1.074962  0  0  0.118659  0  1.073877  0  0  0.095278  0.112929  0  1.075976  0
H  H15  1  0.85032576  0.49464069  0.01649406  1  0  0.108669  0  1.004623  0  0  0.115346  0  1.074941  0  0  0.118681  0  1.073855  0  0  0.095292  0.11295  0  1.075956  0
H  H16  1  0.69241589  0.08676909  0.59215438  1  0  0.08494  0  0.951088  0  0  0.089558  0  1.018648  0  0  0.091936  0  1.016879  0  0  0.112691  0.087966  0  1.019644  0
H  H17  1  0.30758516  0.41322888  0.09215406  1  0  0.084864  0  0.951065  0  0  0.089479  0  1.018638  0  0  0.091858  0  1.016864  0  0  0.112661  0.087886  0  1.019638  0
H  H18  1  0.30758307  0.91322822  0.40784635  1  0  0.084903  0  0.951044  0  0  0.089521  0  1.018613  0  0  0.091901  0  1.016836  0  0  0.112677  0.087927  0  1.019613  0
H  H19  1  0.69241467  0.58676747  0.90784536  1  0  0.084888  0  0.950993  0  0  0.089529  0  1.018556  0  0  0.091908  0  1.016785  0  0  0.112659  0.087937  0  1.019553  0
H  H20  1  0.19693025  0.29606829  0.28914439  1  0  0.11874  0  0.956341  0  0  0.1189  0  1.033773  0  0  0.121743  0  1.030416  0  0  0.142567  0.116754  0  1.036259  0
H  H21  1  0.80307034  0.20393057  0.78914461  1  0  0.118725  0  0.956336  0  0  0.118887  0  1.033771  0  0  0.121731  0  1.030413  0  0  0.142563  0.11674  0  1.036259  0
H  H22  1  0.80306907  0.70392998  0.71085634  1  0  0.118714  0  0.956381  0  0  0.118899  0  1.033789  0  0  0.121742  0  1.030432  0  0  0.14258  0.116752  0  1.036276  0
H  H23  1  0.19692934  0.79606866  0.21085416  1  0  0.118734  0  0.95635  0  0  0.118898  0  1.033779  0  0  0.121741  0  1.030423  0  0  0.142572  0.116751  0  1.036266  0
H  H24  1  0.90764914  0.91519817  0.35558979  1  0  0.109268  0  0.935514  0  0  0.116484  0  1.001186  0  0  0.119022  0  0.998776  0  0  0.138038  0.11459  0  1.003009  0
H  H25  1  0.09235148  0.58480140  0.85559014  1  0  0.109245  0  0.935535  0  0  0.116464  0  1.001203  0  0  0.119001  0  0.998793  0  0  0.13803  0.114571  0  1.003028  0
H  H26  1  0.09235508  0.08480013  0.64441094  1  0  0.109239  0  0.935524  0  0  0.116468  0  1.001172  0  0  0.119005  0  0.998764  0  0  0.138032  0.114577  0  1.002996  0
H  H27  1  0.90764856  0.41519880  0.14440862  1  0  0.109249  0  0.935519  0  0  0.116465  0  1.001193  0  0  0.119001  0  0.998785  0  0  0.138031  0.114572  0  1.003018  0
C  C28  1  0.82990849  0.34114520  0.46659777  1  0  0.153453  0  3.678712  0  0  0.124714  0  3.925521  0  0  0.132537  0  3.943142  0  0  0.05276  0.119645  0  3.913418  0
C  C29  1  0.17009296  0.15885458  0.96659674  1  0  0.153467  0  3.678635  0  0  0.12472  0  3.925489  0  0  0.132542  0  3.94311  0  0  0.052742  0.119651  0  3.91339  0
C  C30  1  0.17009119  0.65885404  0.53340296  1  0  0.153384  0  3.678763  0  0  0.124645  0  3.925601  0  0  0.132469  0  3.94322  0  0  0.052725  0.119575  0  3.913497  0
C  C31  1  0.82990831  0.84114562  0.03340268  1  0  0.153486  0  3.678639  0  0  0.124718  0  3.925508  0  0  0.132544  0  3.943126  0  0  0.052755  0.11965  0  3.913406  0
C  C32  1  0.91863825  0.29791260  0.40144468  1  0  -0.177688  0  3.680977  0  0  -0.195324  0  3.930302  0  0  -0.204511  0  3.950557  0  0  -0.079106  -0.189377  0  3.916871  0
C  C33  1  0.08136383  0.20208817  0.90144442  1  0  -0.177719  0  3.68098  0  0  -0.19537  0  3.930328  0  0  -0.204557  0  3.950582  0  0  -0.079106  -0.189419  0  3.916884  0
C  C34  1  0.08136425  0.70208761  0.59855671  1  0  -0.177639  0  3.680923  0  0  -0.195279  0  3.930261  0  0  -0.204468  0  3.950516  0  0  -0.079085  -0.189333  0  3.91683  0
C  C35  1  0.91863621  0.79791203  0.09855566  1  0  -0.177765  0  3.680933  0  0  -0.195427  0  3.930266  0  0  -0.204613  0  3.950518  0  0  -0.079111  -0.189474  0  3.916822  0
C  C36  1  0.92822601  0.17186472  0.40725425  1  0  0.233429  0  3.78024  0  0  0.219635  0  4.030235  0  0  0.229791  0  4.050804  0  0  0.113715  0.212981  0  4.016366  0
C  C37  1  0.07177568  0.32813507  0.90725469  1  0  0.233416  0  3.780246  0  0  0.219641  0  4.030231  0  0  0.229796  0  4.050803  0  0  0.113719  0.212988  0  4.016364  0
C  C38  1  0.07177525  0.82813548  0.59274714  1  0  0.233453  0  3.780175  0  0  0.219644  0  4.030194  0  0  0.2298  0  4.050765  0  0  0.113722  0.212989  0  4.016324  0
C  C39  1  0.92822559  0.67186513  0.09274604  1  0  0.23346  0  3.780202  0  0  0.219711  0  4.030152  0  0  0.229865  0  4.050722  0  0  0.113735  0.213056  0  4.016285  0
C  C40  1  0.84672050  0.09361289  0.47625002  1  0  -0.20506  0  3.720645  0  0  -0.224783  0  3.975082  0  0  -0.234247  0  3.995849  0  0  -0.092235  -0.218843  0  3.961333  0
C  C41  1  0.15327968  0.40638688  0.97625105  1  0  -0.205055  0  3.72067  0  0  -0.224775  0  3.9751  0  0  -0.234239  0  3.995867  0  0  -0.092237  -0.218835  0  3.961352  0
C  C42  1  0.15327954  0.90638730  0.52375071  1  0  -0.205039  0  3.72066  0  0  -0.224745  0  3.97509  0  0  -0.23421  0  3.995858  0  0  -0.092228  -0.218805  0  3.96134  0
C  C43  1  0.84672158  0.59361333  0.02375034  1  0  -0.205026  0  3.720676  0  0  -0.224744  0  3.975086  0  0  -0.234206  0  3.995854  0  0  -0.092228  -0.218804  0  3.961339  0
C  C44  1  0.75926505  0.14475388  0.53754665  1  0  0.142534  0  3.712971  0  0  0.114017  0  3.963011  0  0  0.121625  0  3.98099  0  0  0.043524  0.109337  0  3.950384  0
C  C45  1  0.24073499  0.35524409  0.03754705  1  0  0.142577  0  3.713029  0  0  0.114054  0  3.963087  0  0  0.121664  0  3.981066  0  0  0.043525  0.109374  0  3.95046  0
C  C46  1  0.24073427  0.85524438  0.46245409  1  0  0.142498  0  3.713046  0  0  0.113973  0  3.963106  0  0  0.121581  0  3.981088  0  0  0.043489  0.109293  0  3.950475  0
C  C47  1  0.75926311  0.64475417  0.96245368  1  0  0.142524  0  3.712992  0  0  0.113969  0  3.963058  0  0  0.121577  0  3.981039  0  0  0.043515  0.10929  0  3.95043  0
C  C48  1  0.15021970  0.19152325  0.29126460  1  0  0.185228  0  3.601035  0  0  0.119681  0  3.872912  0  0  0.133915  0  3.883851  0  0  0.167068  0.110471  0  3.865162  0
C  C49  1  0.84978002  0.30847657  0.79126611  1  0  0.185246  0  3.601  0  0  0.119695  0  3.872882  0  0  0.133928  0  3.88382  0  0  0.167063  0.110485  0  3.865135  0
C  C50  1  0.84977998  0.80847598  0.70873547  1  0  0.185275  0  3.60113  0  0  0.119702  0  3.873  0  0  0.133937  0  3.883937  0  0  0.167064  0.110492  0  3.865251  0
C  C51  1  0.15021880  0.69152362  0.20873331  1  0  0.185222  0  3.600966  0  0  0.119678  0  3.872846  0  0  0.133911  0  3.883783  0  0  0.167062  0.110468  0  3.865098  0
C  C52  1  0.00263357  0.99539948  0.32553205  1  0  0.158059  0  3.63816  0  0  0.100224  0  3.915998  0  0  0.111997  0  3.926862  0  0  0.158402  0.092597  0  3.908455  0
C  C53  1  0.99736596  0.50460009  0.82553264  1  0  0.158138  0  3.638116  0  0  0.100293  0  3.915966  0  0  0.112066  0  3.926829  0  0  0.158441  0.092663  0  3.90843  0
C  C54  1  0.99736856  0.00459977  0.67446934  1  0  0.158153  0  3.638171  0  0  0.100311  0  3.915997  0  0  0.112085  0  3.926861  0  0  0.158438  0.092678  0  3.908461  0
C  C55  1  0.00263286  0.49540010  0.17446678  1  0  0.158131  0  3.638135  0  0  0.10029  0  3.915991  0  0  0.112063  0  3.926855  0  0  0.15843  0.092658  0  3.908453  0
C  C56  1  0.67227734  0.13352343  0.96134704  1  0  0.30882  0  4.011468  0  0  0.287341  0  4.315172  0  0  0.309136  0  4.329593  0  0  0.147327  0.272521  0  4.304702  0
C  C57  1  0.32772154  0.36647922  0.46134407  1  0  0.308936  0  4.011608  0  0  0.287468  0  4.315288  0  0  0.309265  0  4.329708  0  0  0.147355  0.272646  0  4.304818  0
C  C58  1  0.32772479  0.86647581  0.03865369  1  0  0.308781  0  4.011521  0  0  0.287304  0  4.31522  0  0  0.309099  0  4.329644  0  0  0.147324  0.272483  0  4.304748  0
C  C59  1  0.67227469  0.63352384  0.53865339  1  0  0.308827  0  4.011574  0  0  0.287347  0  4.315278  0  0  0.309142  0  4.329698  0  0  0.147325  0.272527  0  4.304804  0
C  C60  1  0.57928332  0.95845449  0.26122715  1  0  0.319873  0  3.987772  0  0  0.300951  0  4.28794  0  0  0.323559  0  4.300823  0  0  0.145284  0.285142  0  4.278933  0
C  C61  1  0.42071293  0.54154220  0.76122514  1  0  0.31989  0  3.9879  0  0  0.300964  0  4.288069  0  0  0.323574  0  4.30095  0  0  0.145258  0.285156  0  4.279066  0
C  C62  1  0.42071830  0.04154668  0.73877358  1  0  0.319804  0  3.987843  0  0  0.300875  0  4.288017  0  0  0.323483  0  4.300898  0  0  0.145215  0.285068  0  4.279014  0
C  C63  1  0.57928711  0.45845800  0.23877231  1  0  0.319859  0  3.987857  0  0  0.300934  0  4.288028  0  0  0.323544  0  4.300913  0  0  0.145245  0.285125  0  4.279023  0
S  S64  1  0.66485283  0.26707680  0.00733978  1  0  -0.358394  0  2.193238  0  0  -0.326676  0  2.514609  0  0  -0.343951  0  2.509503  0  0  -0.156817  -0.31409  0  2.517758  0
S  S65  1  0.33515145  0.23292890  0.50733531  1  0  -0.358404  0  2.193207  0  0  -0.326705  0  2.514611  0  0  -0.343981  0  2.509506  0  0  -0.156813  -0.314118  0  2.517759  0
S  S66  1  0.33515492  0.73292441  0.99266226  1  0  -0.35836  0  2.193278  0  0  -0.326657  0  2.514683  0  0  -0.343934  0  2.509579  0  0  -0.156807  -0.314072  0  2.51783  0
S  S67  1  0.66484795  0.76707609  0.49266215  1  0  -0.358386  0  2.193284  0  0  -0.326676  0  2.514683  0  0  -0.343952  0  2.509577  0  0  -0.156818  -0.31409  0  2.517828  0
S  S68  1  0.68167592  0.08516072  0.20471593  1  0  -0.352978  0  2.152341  0  0  -0.321118  0  2.46257  0  0  -0.339644  0  2.457505  0  0  -0.162741  -0.307238  0  2.465915  0
S  S69  1  0.31832185  0.41483623  0.70471480  1  0  -0.353013  0  2.152395  0  0  -0.321146  0  2.462631  0  0  -0.339674  0  2.457565  0  0  -0.162771  -0.307265  0  2.465976  0
S  S70  1  0.31832326  0.91484043  0.79528415  1  0  -0.352958  0  2.152348  0  0  -0.321089  0  2.462577  0  0  -0.339616  0  2.457514  0  0  -0.16272  -0.307207  0  2.465922  0
S  S71  1  0.68167869  0.58516204  0.29528331  1  0  -0.352967  0  2.152429  0  0  -0.3211  0  2.462656  0  0  -0.339628  0  2.457595  0  0  -0.162743  -0.307219  0  2.466001  0
N  N72  1  0.75221763  0.26678821  0.53375507  1  0  -0.325913  0  3.2576  0  0  -0.252569  0  3.516415  0  0  -0.271931  0  3.536145  0  0  -0.328088  -0.239376  0  3.502765  0
N  N73  1  0.24778401  0.23321074  0.03375411  1  0  -0.325901  0  3.257643  0  0  -0.252539  0  3.516448  0  0  -0.271901  0  3.536178  0  0  -0.328076  -0.239346  0  3.502798  0
N  N74  1  0.24778169  0.73321006  0.46624567  1  0  -0.32584  0  3.257647  0  0  -0.252483  0  3.51645  0  0  -0.271844  0  3.536179  0  0  -0.328063  -0.23929  0  3.502798  0
N  N75  1  0.75221567  0.76678849  0.96624531  1  0  -0.325917  0  3.257581  0  0  -0.252548  0  3.516399  0  0  -0.27191  0  3.536128  0  0  -0.328085  -0.239355  0  3.502748  0
N  N76  1  0.02099372  0.12283272  0.34456657  1  0  -0.131776  0  3.575739  0  0  -0.042  0  3.792156  0  0  -0.059602  0  3.814989  0  0  -0.21552  -0.030385  0  3.776464  0
N  N77  1  0.97900333  0.37716707  0.84456795  1  0  -0.131797  0  3.575795  0  0  -0.042022  0  3.792214  0  0  -0.059624  0  3.815047  0  0  -0.215529  -0.030406  0  3.776524  0
N  N78  1  0.97900474  0.87716651  0.65543350  1  0  -0.131867  0  3.575913  0  0  -0.042074  0  3.792325  0  0  -0.059678  0  3.815157  0  0  -0.215526  -0.030457  0  3.776632  0
N  N79  1  0.02099426  0.62283311  0.15543213  1  0  -0.131857  0  3.57576  0  0  -0.042094  0  3.792185  0  0  -0.059696  0  3.815015  0  0  -0.215569  -0.03048  0  3.776494  0
N  N80  1  0.20658602  0.11052905  0.24418764  1  0  -0.24659  0  3.13776  0  0  -0.186119  0  3.431162  0  0  -0.202142  0  3.446539  0  0  -0.234258  -0.174939  0  3.420306  0
N  N81  1  0.79341389  0.38947078  0.74418793  1  0  -0.246559  0  3.137704  0  0  -0.186084  0  3.431103  0  0  -0.202105  0  3.446479  0  0  -0.234237  -0.174903  0  3.420249  0
N  N82  1  0.79341366  0.88947018  0.75581243  1  0  -0.246538  0  3.137727  0  0  -0.186057  0  3.431123  0  0  -0.202081  0  3.4465  0  0  -0.234239  -0.174878  0  3.420268  0
N  N83  1  0.20658493  0.61052940  0.25581084  1  0  -0.246521  0  3.137615  0  0  -0.186055  0  3.431017  0  0  -0.202078  0  3.446393  0  0  -0.234237  -0.174875  0  3.420159  0
N  N84  1  0.11304749  0.98603098  0.26528831  1  0  -0.218373  0  2.9516  0  0  -0.194363  0  3.233325  0  0  -0.202257  0  3.247234  0  0  -0.215421  -0.188992  0  3.223757  0
N  N85  1  0.88695350  0.51396861  0.76528838  1  0  -0.218429  0  2.95157  0  0  -0.194418  0  3.233303  0  0  -0.202313  0  3.247211  0  0  -0.215439  -0.189047  0  3.223739  0
N  N86  1  0.88695500  0.01396923  0.73471308  1  0  -0.218436  0  2.951577  0  0  -0.194434  0  3.233305  0  0  -0.202328  0  3.247212  0  0  -0.215453  -0.189063  0  3.223742  0
N  N87  1  0.11304618  0.48603062  0.23471039  1  0  -0.218432  0  2.951548  0  0  -0.194417  0  3.233281  0  0  -0.202312  0  3.24719  0  0  -0.215429  -0.189045  0  3.223714  0
N  N88  1  0.68185196  0.03874912  0.92613434  1  0  -0.53346  0  2.89773  0  0  -0.476163  0  3.177256  0  0  -0.497797  0  3.184716  0  0  -0.389373  -0.460987  0  3.171861  0
N  N89  1  0.31814534  0.46125545  0.42613140  1  0  -0.533559  0  2.897951  0  0  -0.476264  0  3.177477  0  0  -0.497901  0  3.184937  0  0  -0.389378  -0.461085  0  3.172082  0
N  N90  1  0.31815125  0.96125302  0.07386508  1  0  -0.533434  0  2.897704  0  0  -0.476132  0  3.177218  0  0  -0.497767  0  3.184683  0  0  -0.389365  -0.460955  0  3.171821  0
N  N91  1  0.68185248  0.53874857  0.57386409  1  0  -0.533461  0  2.89778  0  0  -0.476161  0  3.177305  0  0  -0.497796  0  3.184768  0  0  -0.389356  -0.460984  0  3.171908  0
N  N92  1  0.50788397  0.86661059  0.30297214  1  0  -0.546021  0  2.875562  0  0  -0.487562  0  3.147109  0  0  -0.508566  0  3.152955  0  0  -0.393127  -0.473327  0  3.144014  0
N  N93  1  0.49211003  0.63338703  0.80297138  1  0  -0.54603  0  2.87563  0  0  -0.487573  0  3.147178  0  0  -0.508579  0  3.153025  0  0  -0.393072  -0.473339  0  3.144085  0
N  N94  1  0.49211240  0.13338958  0.69702729  1  0  -0.545985  0  2.875598  0  0  -0.487522  0  3.147142  0  0  -0.508525  0  3.152988  0  0  -0.393084  -0.473289  0  3.14405  0
N  N95  1  0.50788771  0.36661027  0.19702673  1  0  -0.546025  0  2.875545  0  0  -0.487568  0  3.147089  0  0  -0.508573  0  3.152938  0  0  -0.393088  -0.473333  0  3.143995  0
