# generated using pymatgen
data_NdH7C7(NO4)2
_symmetry_space_group_name_H-M   'P 1'
_cell_length_a   7.91099747
_cell_length_b   8.72402772
_cell_length_c   8.66806132
_cell_angle_alpha   115.90104633
_cell_angle_beta   100.73039034
_cell_angle_gamma   96.82168723
_symmetry_Int_Tables_number   1
_chemical_formula_structural   NdH7C7(NO4)2
_chemical_formula_sum   'Nd2 H14 C14 N4 O16'
_cell_volume   514.99980403
_cell_formula_units_Z   2
loop_
 _symmetry_equiv_pos_site_id
 _symmetry_equiv_pos_as_xyz
  1  'x, y, z'
loop_
 _atom_site_type_symbol
 _atom_site_label
 _atom_site_symmetry_multiplicity
 _atom_site_fract_x
 _atom_site_fract_y
 _atom_site_fract_z
 _atom_site_occupancy
 _atom_site_hle17_bader_spin_density
 _atom_site_hle17_ddec_charge
 _atom_site_hle17_ddec_spin_density
 _atom_site_hle17_ddec_sum_bond_order
 _atom_site_hle17_magmom
 _atom_site_hse06_10hf_bader_spin_density
 _atom_site_hse06_10hf_ddec_charge
 _atom_site_hse06_10hf_ddec_spin_density
 _atom_site_hse06_10hf_ddec_sum_bond_order
 _atom_site_hse06_10hf_magmom
 _atom_site_hse06_bader_spin_density
 _atom_site_hse06_ddec_charge
 _atom_site_hse06_ddec_spin_density
 _atom_site_hse06_ddec_sum_bond_order
 _atom_site_hse06_magmom
 _atom_site_pbe_bader_spin_density
 _atom_site_pbe_cm5_charge
 _atom_site_pbe_ddec_charge
 _atom_site_pbe_ddec_spin_density
 _atom_site_pbe_ddec_sum_bond_order
 _atom_site_pbe_magmom
Nd  Nd0  1  0.16088261  0.41510118  0.17280754  1  0  2.251818  0  1.581226  0  0  2.070322  0  2.051769  0  0  2.179982  0  1.887769  0  0  1.439385  2.035282  0  2.085397  0
Nd  Nd1  1  0.83911778  0.58489760  0.82719204  1  0  2.251818  0  1.581251  0  0  2.07036  0  2.051741  0  0  2.179986  0  1.887799  0  0  1.439405  2.035302  0  2.085397  0
H  H2  1  0.17677614  0.06605769  0.45505854  1  0  0.10543  0  0.927982  0  0  0.108876  0  0.996561  0  0  0.112966  0  0.993051  0  0  0.125713  0.10592  0  0.998985  0
H  H3  1  0.82322167  0.93394108  0.54494058  1  0  0.105463  0  0.927958  0  0  0.108911  0  0.996529  0  0  0.112998  0  0.993025  0  0  0.125713  0.105955  0  0.998953  0
H  H4  1  0.53125199  0.91448760  0.74945555  1  0  0.097793  0  0.952637  0  0  0.104057  0  1.017653  0  0  0.107625  0  1.014387  0  0  0.123663  0.101506  0  1.019918  0
H  H5  1  0.46874773  0.08551378  0.25054273  1  0  0.097805  0  0.952599  0  0  0.104047  0  1.017638  0  0  0.107613  0  1.014375  0  0  0.123656  0.101502  0  1.019888  0
H  H6  1  0.49158642  0.15109589  0.03419248  1  0  0.091609  0  0.949653  0  0  0.09649  0  1.016671  0  0  0.099266  0  1.014952  0  0  0.127644  0.09448  0  1.017973  0
H  H7  1  0.50841459  0.84890549  0.96580603  1  0  0.091603  0  0.949707  0  0  0.096495  0  1.016706  0  0  0.099271  0  1.014987  0  0  0.127642  0.094484  0  1.018007  0
H  H8  1  0.97697348  0.28983646  0.38573928  1  0  0.440797  0  0.856034  0  0  0.412825  0  0.915519  0  0  0.423241  0  0.90047  0  0  0.304204  0.40546  0  0.926316  0
H  H9  1  0.02302590  0.71016363  0.61426184  1  0  0.440795  0  0.856024  0  0  0.412826  0  0.915506  0  0  0.423242  0  0.900457  0  0  0.304212  0.40546  0  0.926304  0
H  H10  1  0.84179811  0.38264495  0.33691578  1  0  0.442311  0  0.845429  0  0  0.414514  0  0.906435  0  0  0.426021  0  0.88964  0  0  0.303008  0.406515  0  0.918198  0
H  H11  1  0.15820128  0.61735514  0.66308418  1  0  0.442335  0  0.845381  0  0  0.414542  0  0.906389  0  0  0.426048  0  0.889594  0  0  0.30302  0.406544  0  0.91815  0
H  H12  1  0.32793834  0.80808944  0.37872363  1  0  0.389387  0  0.934362  0  0  0.345797  0  1.019899  0  0  0.356833  0  1.004723  0  0  0.286131  0.337962  0  1.030858  0
H  H13  1  0.67206076  0.19190934  0.62127572  1  0  0.389395  0  0.934354  0  0  0.345801  0  1.019897  0  0  0.356838  0  1.00472  0  0  0.28613  0.337966  0  1.030856  0
H  H14  1  0.22601179  0.76780300  0.18424761  1  0  0.433165  0  0.8577  0  0  0.405122  0  0.919264  0  0  0.415799  0  0.903832  0  0  0.303431  0.397472  0  0.930519  0
H  H15  1  0.77398729  0.23219578  0.81575290  1  0  0.433143  0  0.857715  0  0  0.405098  0  0.919298  0  0  0.415776  0  0.903865  0  0  0.303416  0.397448  0  0.930552  0
C  C16  1  0.10373753  0.33025904  0.73984433  1  0  0.647246  0  3.936917  0  0  0.594131  0  4.232628  0  0  0.628017  0  4.229103  0  0  0.222393  0.570757  0  4.239124  0
C  C17  1  0.89626028  0.66973973  0.26015478  1  0  0.647194  0  3.936827  0  0  0.594075  0  4.23249  0  0  0.62796  0  4.228969  0  0  0.222378  0.570701  0  4.238986  0
C  C18  1  0.22498346  0.21156225  0.74127624  1  0  0.069109  0  3.730619  0  0  0.077064  0  3.975167  0  0  0.074078  0  3.995132  0  0  0.131854  0.07866  0  3.963331  0
C  C19  1  0.77501494  0.78843914  0.25872412  1  0  0.069013  0  3.730711  0  0  0.077075  0  3.9751  0  0  0.074091  0  3.995062  0  0  0.131827  0.078672  0  3.963265  0
C  C20  1  0.24631949  0.08220216  0.58421278  1  0  0.096941  0  3.61246  0  0  0.059572  0  3.86478  0  0  0.063412  0  3.879066  0  0  0.07165  0.057234  0  3.854637  0
C  C21  1  0.75367991  0.91779792  0.41578604  1  0  0.096901  0  3.612597  0  0  0.059492  0  3.864896  0  0  0.063331  0  3.879183  0  0  0.071646  0.057153  0  3.854753  0
C  C22  1  0.43987391  0.99819851  0.74647707  1  0  0.104008  0  3.618467  0  0  0.071854  0  3.878881  0  0  0.076338  0  3.89074  0  0  0.07003  0.069055  0  3.870316  0
C  C23  1  0.56012708  0.00180288  0.25352259  1  0  0.104091  0  3.618366  0  0  0.071961  0  3.878764  0  0  0.076444  0  3.890623  0  0  0.070105  0.069162  0  3.870203  0
C  C24  1  0.41876317  0.12844308  0.90384563  1  0  0.115626  0  3.645426  0  0  0.090179  0  3.904577  0  0  0.092389  0  3.921552  0  0  0.075335  0.088444  0  3.894701  0
C  C25  1  0.58123623  0.87155700  0.09615319  1  0  0.11556  0  3.645471  0  0  0.090094  0  3.904647  0  0  0.092305  0  3.92162  0  0  0.075307  0.088362  0  3.894768  0
C  C26  1  0.07261123  0.99598533  0.07232334  1  0  0.576253  0  3.887769  0  0  0.532118  0  4.184525  0  0  0.562577  0  4.179926  0  0  0.221964  0.511214  0  4.19068  0
C  C27  1  0.92739401  0.00401214  0.92767654  1  0  0.576268  0  3.887839  0  0  0.532109  0  4.184623  0  0  0.562569  0  4.180023  0  0  0.22194  0.5112  0  4.190784  0
C  C28  1  0.55766269  0.47538156  0.43349434  1  0  0.562032  0  3.928034  0  0  0.520201  0  4.222492  0  0  0.549399  0  4.219126  0  0  0.218239  0.500193  0  4.227858  0
C  C29  1  0.44233898  0.52461721  0.56650547  1  0  0.561923  0  3.928016  0  0  0.520103  0  4.222465  0  0  0.549298  0  4.219102  0  0  0.218231  0.500096  0  4.227829  0
N  N30  1  0.30785281  0.23171413  0.90122195  1  0  -0.323684  0  3.185208  0  0  -0.281227  0  3.440425  0  0  -0.294871  0  3.458235  0  0  -0.322591  -0.275783  0  3.429537  0
N  N31  1  0.69214690  0.76828725  0.09877632  1  0  -0.323568  0  3.185125  0  0  -0.281147  0  3.440319  0  0  -0.294789  0  3.458128  0  0  -0.322532  -0.275702  0  3.42943  0
N  N32  1  0.35101796  0.97322155  0.58710832  1  0  -0.240044  0  3.14807  0  0  -0.18296  0  3.398895  0  0  -0.192541  0  3.41251  0  0  -0.278104  -0.176211  0  3.389112  0
N  N33  1  0.64897986  0.02677722  0.41288965  1  0  -0.240097  0  3.148119  0  0  -0.183004  0  3.398941  0  0  -0.192583  0  3.412553  0  0  -0.278164  -0.176255  0  3.38916  0
O  O34  1  0.00725022  0.30605930  0.59544986  1  0  -0.633734  0  2.039523  0  0  -0.583553  0  2.275184  0  0  -0.610975  0  2.267817  0  0  -0.294344  -0.566619  0  2.280567  0
O  O35  1  0.99274788  0.69394078  0.40454987  1  0  -0.633702  0  2.039447  0  0  -0.583533  0  2.275096  0  0  -0.610955  0  2.267732  0  0  -0.294348  -0.566607  0  2.280495  0
O  O36  1  0.10118025  0.45140481  0.89225729  1  0  -0.77069  0  2.105328  0  0  -0.704147  0  2.352788  0  0  -0.742765  0  2.342674  0  0  -0.411323  -0.685783  0  2.358996  0
O  O37  1  0.89881628  0.54859396  0.10774045  1  0  -0.770671  0  2.105243  0  0  -0.704147  0  2.352713  0  0  -0.742765  0  2.342602  0  0  -0.411311  -0.685783  0  2.358921  0
O  O38  1  0.19147167  0.13310708  0.17441780  1  0  -0.660903  0  2.053454  0  0  -0.614513  0  2.302926  0  0  -0.645204  0  2.293536  0  0  -0.363882  -0.597476  0  2.307481  0
O  O39  1  0.80853256  0.86689170  0.82558363  1  0  -0.660922  0  2.053498  0  0  -0.61452  0  2.302965  0  0  -0.64521  0  2.293581  0  0  -0.363894  -0.597479  0  2.307523  0
O  O40  1  0.05967613  0.85172075  0.07734828  1  0  -0.670632  0  2.093273  0  0  -0.61244  0  2.330149  0  0  -0.643745  0  2.320731  0  0  -0.351774  -0.594576  0  2.334932  0
O  O41  1  0.94032710  0.14827935  0.92265470  1  0  -0.670633  0  2.093324  0  0  -0.61244  0  2.330209  0  0  -0.643749  0  2.320791  0  0  -0.351748  -0.594576  0  2.334994  0
O  O42  1  0.48612373  0.43755661  0.27489877  1  0  -0.641827  0  2.032327  0  0  -0.597111  0  2.276245  0  0  -0.626232  0  2.266221  0  0  -0.357274  -0.581442  0  2.281609  0
O  O43  1  0.51387596  0.56244478  0.72510182  1  0  -0.641821  0  2.032291  0  0  -0.597112  0  2.276202  0  0  -0.62623  0  2.26618  0  0  -0.357294  -0.581441  0  2.281565  0
O  O44  1  0.71679124  0.47661526  0.49639163  1  0  -0.671466  0  2.084431  0  0  -0.613166  0  2.321686  0  0  -0.644027  0  2.311153  0  0  -0.352707  -0.596213  0  2.327257  0
O  O45  1  0.28321189  0.52339007  0.50361359  1  0  -0.67144  0  2.084424  0  0  -0.613122  0  2.321637  0  0  -0.643985  0  2.311105  0  0  -0.352721  -0.596172  0  2.327206  0
O  O46  1  0.92436908  0.31018395  0.28536556  1  0  -0.905365  0  1.849228  0  0  -0.859402  0  2.03662  0  0  -0.885367  0  2.00199  0  0  -0.645215  -0.845607  0  2.05761  0
O  O47  1  0.07563001  0.68981483  0.71463494  1  0  -0.905376  0  1.849184  0  0  -0.859437  0  2.036621  0  0  -0.885397  0  2.001993  0  0  -0.645233  -0.845639  0  2.057612  0
O  O48  1  0.29761126  0.71790196  0.24886204  1  0  -0.905141  0  1.911001  0  0  -0.854576  0  2.115586  0  0  -0.882176  0  2.082186  0  0  -0.64741  -0.840409  0  2.136239  0
O  O49  1  0.70238624  0.28209551  0.75113761  1  0  -0.905115  0  1.910974  0  0  -0.854556  0  2.115576  0  0  -0.882149  0  2.082169  0  0  -0.647401  -0.840389  0  2.136229  0
