# generated using pymatgen
data_TbH4C12(O4F3)2
_symmetry_space_group_name_H-M   'P 1'
_cell_length_a   8.74397457
_cell_length_b   8.74913988
_cell_length_c   11.50244203
_cell_angle_alpha   105.40926398
_cell_angle_beta   112.00945499
_cell_angle_gamma   99.08291350
_symmetry_Int_Tables_number   1
_chemical_formula_structural   TbH4C12(O4F3)2
_chemical_formula_sum   'Tb2 H8 C24 O16 F12'
_cell_volume   753.17408676
_cell_formula_units_Z   2
loop_
 _symmetry_equiv_pos_site_id
 _symmetry_equiv_pos_as_xyz
  1  'x, y, z'
loop_
 _atom_site_type_symbol
 _atom_site_label
 _atom_site_symmetry_multiplicity
 _atom_site_fract_x
 _atom_site_fract_y
 _atom_site_fract_z
 _atom_site_occupancy
 _atom_site_hle17_bader_spin_density
 _atom_site_hle17_ddec_charge
 _atom_site_hle17_ddec_spin_density
 _atom_site_hle17_ddec_sum_bond_order
 _atom_site_hle17_magmom
 _atom_site_hse06_10hf_bader_spin_density
 _atom_site_hse06_10hf_ddec_charge
 _atom_site_hse06_10hf_ddec_spin_density
 _atom_site_hse06_10hf_ddec_sum_bond_order
 _atom_site_hse06_10hf_magmom
 _atom_site_hse06_bader_spin_density
 _atom_site_hse06_ddec_charge
 _atom_site_hse06_ddec_spin_density
 _atom_site_hse06_ddec_sum_bond_order
 _atom_site_hse06_magmom
 _atom_site_pbe_bader_spin_density
 _atom_site_pbe_cm5_charge
 _atom_site_pbe_ddec_charge
 _atom_site_pbe_ddec_spin_density
 _atom_site_pbe_ddec_sum_bond_order
 _atom_site_pbe_magmom
Tb  Tb0  1  0.64581246  0.83973641  0.48542680  1  0  2.271526  0  1.570769  0  0  2.124921  0  2.034008  0  0  2.248502  0  1.850877  0  0  1.49671  2.08983  0  2.06394  0
Tb  Tb1  1  0.35418381  0.16026336  0.51457326  1  0  2.271518  0  1.570739  0  0  2.124914  0  2.033997  0  0  2.248504  0  1.850844  0  0  1.496724  2.089827  0  2.063914  0
H  H2  1  0.97394964  0.85362154  0.44346458  1  0  0.443078  0  0.838555  0  0  0.414609  0  0.905767  0  0  0.424809  0  0.890953  0  0  0.310943  0.407543  0  0.916203  0
H  H3  1  0.40999170  0.53008675  0.55649166  1  0  0.444711  0  0.838011  0  0  0.416211  0  0.903656  0  0  0.4264  0  0.888858  0  0  0.312439  0.409166  0  0.914064  0
H  H4  1  0.02605356  0.14638064  0.55653535  1  0  0.443009  0  0.838652  0  0  0.414547  0  0.90585  0  0  0.424746  0  0.891038  0  0  0.310934  0.40748  0  0.916292  0
H  H5  1  0.59000495  0.46991789  0.44351306  1  0  0.444731  0  0.837969  0  0  0.416215  0  0.903668  0  0  0.426405  0  0.888868  0  0  0.312448  0.409174  0  0.914071  0
H  H6  1  0.83299516  0.85016313  0.31093966  1  0  0.464957  0  0.788906  0  0  0.439027  0  0.849562  0  0  0.448839  0  0.835208  0  0  0.32877  0.432294  0  0.859577  0
H  H7  1  0.53873258  0.52178452  0.68917837  1  0  0.462707  0  0.792152  0  0  0.437001  0  0.852249  0  0  0.446796  0  0.837941  0  0  0.327966  0.43023  0  0.862318  0
H  H8  1  0.16700073  0.14983161  0.68906093  1  0  0.465049  0  0.788836  0  0  0.43919  0  0.84935  0  0  0.449004  0  0.834992  0  0  0.328847  0.432455  0  0.859367  0
H  H9  1  0.46126085  0.47821019  0.31082413  1  0  0.462781  0  0.792072  0  0  0.437035  0  0.852214  0  0  0.446831  0  0.837905  0  0  0.327976  0.430265  0  0.862286  0
C  C10  1  0.38304096  0.86279788  0.24605508  1  0  0.750762  0  3.843222  0  0  0.70009  0  4.142756  0  0  0.736073  0  4.136592  0  0  0.233336  0.675454  0  4.151869  0
C  C11  1  0.61696509  0.13720544  0.75394677  1  0  0.750647  0  3.843078  0  0  0.699894  0  4.142756  0  0  0.735877  0  4.136597  0  0  0.233308  0.675249  0  4.151866  0
C  C12  1  0.25238063  0.86185993  0.11459880  1  0  -0.175299  0  3.708572  0  0  -0.17815  0  3.96956  0  0  -0.180704  0  3.980724  0  0  -0.009318  -0.176073  0  3.961429  0
C  C13  1  0.74762380  0.13814222  0.88540147  1  0  -0.175287  0  3.708672  0  0  -0.178105  0  3.969591  0  0  -0.180663  0  3.980763  0  0  -0.009304  -0.176026  0  3.961466  0
C  C14  1  0.08541847  0.75607732  0.05103155  1  0  0.197322  0  3.787253  0  0  0.161089  0  4.090236  0  0  0.169423  0  4.097452  0  0  0.093217  0.155048  0  4.08547  0
C  C15  1  0.70533082  0.03474154  0.94887904  1  0  0.198554  0  3.786966  0  0  0.161317  0  4.091004  0  0  0.169634  0  4.098233  0  0  0.095454  0.15525  0  4.086314  0
C  C16  1  0.91458921  0.24392338  0.94897280  1  0  0.197164  0  3.787436  0  0  0.161032  0  4.090279  0  0  0.169365  0  4.097495  0  0  0.093225  0.154987  0  4.085519  0
C  C17  1  0.29466913  0.96525835  0.05111599  1  0  0.198513  0  3.787054  0  0  0.161316  0  4.091091  0  0  0.169633  0  4.098324  0  0  0.095456  0.155253  0  4.086399  0
C  C18  1  0.96645549  0.75026476  0.92751519  1  0  0.213478  0  3.773875  0  0  0.176479  0  4.080158  0  0  0.187415  0  4.088805  0  0  0.099167  0.168961  0  4.074303  0
C  C19  1  0.82306659  0.03916706  0.07231269  1  0  0.213832  0  3.773914  0  0  0.177148  0  4.080478  0  0  0.18806  0  4.08915  0  0  0.098229  0.169505  0  4.074779  0
C  C20  1  0.03354732  0.24973244  0.07248354  1  0  0.213686  0  3.773733  0  0  0.176635  0  4.079998  0  0  0.187567  0  4.088646  0  0  0.099221  0.16912  0  4.074155  0
C  C21  1  0.17693745  0.96083019  0.92768379  1  0  0.213897  0  3.773768  0  0  0.177154  0  4.080404  0  0  0.188068  0  4.089074  0  0  0.098199  0.169505  0  4.074701  0
C  C22  1  0.00922262  0.85098755  0.86057962  1  0  -0.234482  0  3.753121  0  0  -0.236865  0  4.019056  0  0  -0.245975  0  4.03751  0  0  -0.031158  -0.23051  0  4.006346  0
C  C23  1  0.99077489  0.14900850  0.13941824  1  0  -0.234561  0  3.753195  0  0  -0.236975  0  4.01918  0  0  -0.246079  0  4.037631  0  0  -0.031181  -0.230602  0  4.006407  0
C  C24  1  0.88573335  0.83839037  0.72437732  1  0  0.664515  0  3.937863  0  0  0.619786  0  4.2369  0  0  0.651411  0  4.239362  0  0  0.186186  0.597383  0  4.240685  0
C  C25  1  0.11426619  0.16160810  0.27562250  1  0  0.664409  0  3.937894  0  0  0.619683  0  4.236923  0  0  0.651303  0  4.239392  0  0  0.186124  0.597289  0  4.240716  0
C  C26  1  0.74374632  0.24373491  0.50001767  1  0  0.779674  0  3.810722  0  0  0.728671  0  4.105666  0  0  0.766006  0  4.093678  0  0  0.250483  0.703806  0  4.115267  0
C  C27  1  0.25625077  0.75626353  0.49998407  1  0  0.77972  0  3.810433  0  0  0.728678  0  4.105421  0  0  0.766037  0  4.093404  0  0  0.250522  0.703817  0  4.115024  0
C  C28  1  0.87632556  0.37631479  0.50007550  1  0  -0.231824  0  3.786366  0  0  -0.234902  0  4.049098  0  0  -0.239577  0  4.060797  0  0  -0.027916  -0.231553  0  4.04033  0
C  C29  1  0.12366784  0.62368755  0.49992432  1  0  -0.231874  0  3.786466  0  0  -0.234922  0  4.049147  0  0  -0.239637  0  4.060895  0  0  -0.027898  -0.231577  0  4.040386  0
C  C30  1  0.86892316  0.38922646  0.38042277  1  0  0.206838  0  3.804982  0  0  0.172737  0  4.105006  0  0  0.182619  0  4.111666  0  0  0.095077  0.165868  0  4.100353  0
C  C31  1  0.00894988  0.48859384  0.61965023  1  0  0.209136  0  3.804981  0  0  0.174627  0  4.105392  0  0  0.184528  0  4.112042  0  0  0.094323  0.167796  0  4.100726  0
C  C32  1  0.13107352  0.61077463  0.61957508  1  0  0.206799  0  3.805042  0  0  0.172724  0  4.105036  0  0  0.18261  0  4.11171  0  0  0.095079  0.165863  0  4.10037  0
C  C33  1  0.99104025  0.51140986  0.38034810  1  0  0.209138  0  3.80505  0  0  0.174645  0  4.105444  0  0  0.184554  0  4.1121  0  0  0.094348  0.167805  0  4.100799  0
O  O34  1  0.73550755  0.73525165  0.66632914  1  0  -0.688568  0  1.978545  0  0  -0.647534  0  2.221923  0  0  -0.67883  0  2.212751  0  0  -0.385421  -0.631291  0  2.227538  0
O  O35  1  0.06894290  0.06939097  0.33350659  1  0  -0.688856  0  1.979334  0  0  -0.647775  0  2.222804  0  0  -0.679061  0  2.213593  0  0  -0.385857  -0.631519  0  2.228395  0
O  O36  1  0.26449363  0.26474425  0.33367145  1  0  -0.688555  0  1.978555  0  0  -0.647514  0  2.221924  0  0  -0.678811  0  2.212753  0  0  -0.385418  -0.631276  0  2.227546  0
O  O37  1  0.93105338  0.93060889  0.66649089  1  0  -0.688986  0  1.97929  0  0  -0.64791  0  2.222779  0  0  -0.679197  0  2.213566  0  0  -0.385922  -0.631647  0  2.228366  0
O  O38  1  0.47653515  0.76733764  0.24371173  1  0  -0.634252  0  1.880613  0  0  -0.591654  0  2.099687  0  0  -0.623496  0  2.087079  0  0  -0.348215  -0.575071  0  2.106406  0
O  O39  1  0.52347660  0.23266815  0.75628878  1  0  -0.634155  0  1.880594  0  0  -0.591545  0  2.099722  0  0  -0.623385  0  2.087116  0  0  -0.348221  -0.574962  0  2.106438  0
O  O40  1  0.39501541  0.96012198  0.35559875  1  0  -0.808527  0  2.162283  0  0  -0.753958  0  2.42304  0  0  -0.798897  0  2.413025  0  0  -0.406807  -0.734369  0  2.428249  0
O  O41  1  0.60498741  0.03987527  0.64439825  1  0  -0.808513  0  2.162164  0  0  -0.75388  0  2.422884  0  0  -0.79882  0  2.412874  0  0  -0.406791  -0.734283  0  2.428075  0
O  O42  1  0.77464326  0.10548773  0.49003143  1  0  -0.705787  0  2.041578  0  0  -0.654565  0  2.287603  0  0  -0.689913  0  2.272673  0  0  -0.359145  -0.63638  0  2.295103  0
O  O43  1  0.61532188  0.28446535  0.50992538  1  0  -0.704722  0  2.040618  0  0  -0.653988  0  2.287366  0  0  -0.6893  0  2.272316  0  0  -0.357919  -0.635877  0  2.294933  0
O  O44  1  0.22535098  0.89451352  0.50996316  1  0  -0.705815  0  2.041437  0  0  -0.654586  0  2.287492  0  0  -0.689938  0  2.272544  0  0  -0.359172  -0.636399  0  2.294986  0
O  O45  1  0.38468008  0.71553663  0.49008112  1  0  -0.704723  0  2.040503  0  0  -0.653968  0  2.28724  0  0  -0.689285  0  2.272182  0  0  -0.357939  -0.635853  0  2.294797  0
O  O46  1  0.84846751  0.81330096  0.38656727  1  0  -0.890531  0  1.835874  0  0  -0.844936  0  2.032294  0  0  -0.872458  0  1.996239  0  0  -0.621233  -0.832328  0  2.053037  0
O  O47  1  0.42632998  0.46161036  0.61340036  1  0  -0.889426  0  1.838892  0  0  -0.843853  0  2.033496  0  0  -0.871369  0  1.99745  0  0  -0.621562  -0.831202  0  2.054256  0
O  O48  1  0.15153487  0.18669857  0.61343706  1  0  -0.89055  0  1.835902  0  0  -0.845034  0  2.032146  0  0  -0.872556  0  1.996093  0  0  -0.621308  -0.832437  0  2.052882  0
O  O49  1  0.57366262  0.53838942  0.38660128  1  0  -0.889523  0  1.838747  0  0  -0.843927  0  2.033443  0  0  -0.871443  0  1.997399  0  0  -0.621573  -0.831272  0  2.054204  0
F  F50  1  0.80840874  0.64307107  0.87587312  1  0  -0.142991  0  1.243136  0  0  -0.09917  0  1.412307  0  0  -0.106437  0  1.400465  0  0  -0.07379  -0.093684  0  1.420276  0
F  F51  1  0.76751398  0.93249277  0.12375744  1  0  -0.143605  0  1.242023  0  0  -0.099686  0  1.411062  0  0  -0.106962  0  1.399242  0  0  -0.074036  -0.094237  0  1.419045  0
F  F52  1  0.19160097  0.35693202  0.12413406  1  0  -0.143055  0  1.242912  0  0  -0.099223  0  1.41208  0  0  -0.10649  0  1.400239  0  0  -0.073812  -0.093734  0  1.420051  0
F  F53  1  0.23248356  0.06749977  0.87623270  1  0  -0.143663  0  1.24191  0  0  -0.099728  0  1.410982  0  0  -0.107006  0  1.399159  0  0  -0.07401  -0.094278  0  1.418968  0
F  F54  1  0.03629437  0.65683114  0.11013466  1  0  -0.143643  0  1.267686  0  0  -0.103309  0  1.443772  0  0  -0.110658  0  1.431996  0  0  -0.079248  -0.097913  0  1.451712  0
F  F55  1  0.54691289  0.92666249  0.88970417  1  0  -0.143431  0  1.267272  0  0  -0.10278  0  1.44361  0  0  -0.110121  0  1.431844  0  0  -0.079716  -0.097391  0  1.451589  0
F  F56  1  0.96371736  0.34317436  0.88987448  1  0  -0.14364  0  1.267642  0  0  -0.103342  0  1.443687  0  0  -0.110689  0  1.431912  0  0  -0.07928  -0.097944  0  1.451627  0
F  F57  1  0.45308750  0.07333509  0.11028439  1  0  -0.143449  0  1.267274  0  0  -0.102795  0  1.443601  0  0  -0.110137  0  1.431835  0  0  -0.079732  -0.097406  0  1.451583  0
F  F58  1  0.74025163  0.28379801  0.26256325  1  0  -0.146948  0  1.270173  0  0  -0.104702  0  1.446939  0  0  -0.112787  0  1.4358  0  0  -0.08047  -0.098776  0  1.454358  0
F  F59  1  0.02170575  0.47786911  0.73759785  1  0  -0.148004  0  1.270427  0  0  -0.10571  0  1.447413  0  0  -0.113792  0  1.43626  0  0  -0.08046  -0.099802  0  1.454796  0
F  F60  1  0.25974300  0.71620436  0.73743518  1  0  -0.146921  0  1.270179  0  0  -0.104688  0  1.446938  0  0  -0.11277  0  1.435797  0  0  -0.080444  -0.098765  0  1.454348  0
F  F61  1  0.97828478  0.52213577  0.26240259  1  0  -0.147983  0  1.270503  0  0  -0.105696  0  1.447491  0  0  -0.113778  0  1.436333  0  0  -0.080436  -0.099784  0  1.454882  0
