# generated using pymatgen
data_CoH14C20(N2Cl)2
_symmetry_space_group_name_H-M   'P 1'
_cell_length_a   12.85490336
_cell_length_b   13.47105549
_cell_length_c   15.92563377
_cell_angle_alpha   90.00040227
_cell_angle_beta   97.20317502
_cell_angle_gamma   89.99954071
_symmetry_Int_Tables_number   1
_chemical_formula_structural   CoH14C20(N2Cl)2
_chemical_formula_sum   'Co4 H56 C80 N16 Cl8'
_cell_volume   2736.06247206
_cell_formula_units_Z   4
loop_
 _symmetry_equiv_pos_site_id
 _symmetry_equiv_pos_as_xyz
  1  'x, y, z'
loop_
 _atom_site_type_symbol
 _atom_site_label
 _atom_site_symmetry_multiplicity
 _atom_site_fract_x
 _atom_site_fract_y
 _atom_site_fract_z
 _atom_site_occupancy
 _atom_site_pbe_bader_charge
 _atom_site_pbe_bader_spin_density
 _atom_site_pbe_cm5_charge
 _atom_site_pbe_ddec_charge
 _atom_site_pbe_ddec_spin_density
 _atom_site_pbe_ddec_sum_bond_order
 _atom_site_pbe_magmom
Co  Co0  1  0.32033132  0.66415025  0.20296001  1  1.062816  2.488537  0.523815  0.674948  2.733454  2.905378  2.423
Co  Co1  1  0.17967014  0.16415101  0.29703964  1  1.062818  2.488515  0.523868  0.67508  2.73342  2.90529  2.423
Co  Co2  1  0.67966860  0.33584819  0.79704140  1  1.062798  2.488522  0.523894  0.675057  2.733444  2.905396  2.423
Co  Co3  1  0.82033057  0.83584669  0.70296123  1  1.062814  2.488524  0.523861  0.674991  2.733445  2.90544  2.423
H  H4  1  0.95988535  0.67351083  0.37852068  1  0.071787  0.000242  0.09973  0.098447  0.000119  1.008555  0.0
H  H5  1  0.54011546  0.17351491  0.12147811  1  0.071722  0.000242  0.099783  0.098441  0.00012  1.008645  0.0
H  H6  1  0.04011849  0.32648761  0.62148114  1  0.071907  0.000241  0.099773  0.098534  0.000119  1.008471  0.0
H  H7  1  0.45988447  0.82648650  0.87852204  1  0.071739  0.000242  0.099795  0.098515  0.000119  1.008571  0.0
H  H8  1  0.83300518  0.79096728  0.30401569  1  0.102656  5.8e-05  0.099374  0.101211  3e-05  1.012167  0.0
H  H9  1  0.66698926  0.29097175  0.19598251  1  0.102672  5.9e-05  0.099376  0.10123  3e-05  1.012208  0.0
H  H10  1  0.16698847  0.20902745  0.69598569  1  0.102692  5.8e-05  0.099388  0.101197  3e-05  1.012283  0.0
H  H11  1  0.33300911  0.70902966  0.80401560  1  0.102696  5.9e-05  0.099397  0.101235  3e-05  1.012191  0.0
H  H12  1  0.87578345  0.88580400  0.17787758  1  0.07959  0.000465  0.104146  0.110701  0.00018  1.02363  0.0
H  H13  1  0.62421417  0.38580391  0.32212340  1  0.079563  0.000464  0.104131  0.110676  0.00018  1.023733  0.0
H  H14  1  0.12421333  0.11419295  0.82212351  1  0.079531  0.000464  0.104105  0.110648  0.00018  1.023774  0.0
H  H15  1  0.37578420  0.61419973  0.67787408  1  0.079532  0.000464  0.104163  0.110697  0.00018  1.023787  0.0
H  H16  1  0.72614016  0.54041726  0.32731674  1  0.054178  -4e-06  0.101571  0.101034  -3.3e-05  0.995561  0.0
H  H17  1  0.77385853  0.04041702  0.17268041  1  0.054164  -4e-06  0.101587  0.10105  -3.2e-05  0.995498  0.0
H  H18  1  0.27385742  0.45958563  0.67268191  1  0.054093  -4e-06  0.101571  0.101026  -3.3e-05  0.995563  0.0
H  H19  1  0.22614376  0.95958143  0.82731874  1  0.054113  -4e-06  0.10158  0.101079  -3.3e-05  0.995491  0.0
H  H20  1  0.23390945  0.83752477  0.08318067  1  0.1802  0.001143  0.136337  0.105621  0.000267  1.009909  0.0
H  H21  1  0.26609069  0.33752289  0.41682175  1  0.180202  0.001143  0.136312  0.10558  0.000267  1.009917  0.0
H  H22  1  0.76608969  0.16247516  0.91682066  1  0.18017  0.001143  0.136317  0.105565  0.000267  1.009951  0.0
H  H23  1  0.73391082  0.66247777  0.58317668  1  0.18018  0.001143  0.13631  0.105566  0.000267  1.009928  0.0
H  H24  1  0.13471754  0.64374254  0.32900680  1  0.107562  0.000386  0.100762  0.112621  0.00011  1.015033  0.0
H  H25  1  0.36528251  0.14373787  0.17099258  1  0.107553  0.000387  0.100791  0.112592  0.000111  1.014999  0.0
H  H26  1  0.86528239  0.35626036  0.67099273  1  0.107588  0.000386  0.10079  0.112594  0.00011  1.014952  0.0
H  H27  1  0.63471976  0.85625909  0.82900845  1  0.107567  0.000386  0.100779  0.112595  0.000111  1.014955  0.0
H  H28  1  0.17358113  0.02577199  0.08590541  1  0.124408  0.000263  0.104167  0.120666  -8e-06  1.016033  0.0
H  H29  1  0.32641982  0.52577071  0.41409398  1  0.124418  0.000263  0.104151  0.120646  -8e-06  1.01605  0.0
H  H30  1  0.82642115  0.97422571  0.91409562  1  0.124501  0.000262  0.104173  0.120636  -8e-06  1.016056  0.0
H  H31  1  0.67357933  0.47422848  0.58590484  1  0.124496  0.000263  0.104154  0.120616  -8e-06  1.016099  0.0
H  H32  1  0.89567443  0.84910832  0.02360708  1  0.082167  -3e-06  0.11359  0.122115  -2.2e-05  0.979296  0.0
H  H33  1  0.60432424  0.34910669  0.47639693  1  0.082132  -3e-06  0.113613  0.122142  -2.2e-05  0.979354  0.0
H  H34  1  0.10432863  0.15089087  0.97639466  1  0.082203  -3e-06  0.113601  0.122125  -2.2e-05  0.979222  0.0
H  H35  1  0.39567334  0.65089472  0.52360109  1  0.082076  -3e-06  0.113578  0.122088  -2.2e-05  0.979252  0.0
H  H36  1  0.32898087  0.85258512  0.32759234  1  0.186718  0.001689  0.133593  0.116099  0.000679  1.011766  0.001
H  H37  1  0.17101759  0.35258120  0.17240749  1  0.18678  0.001689  0.133645  0.116192  0.000679  1.01167  0.001
H  H38  1  0.67101904  0.14741852  0.67241096  1  0.186769  0.001689  0.133622  0.116197  0.000679  1.011748  0.001
H  H39  1  0.82898156  0.64741428  0.82759133  1  0.186767  0.001689  0.133629  0.116182  0.000679  1.011681  0.001
H  H40  1  0.54210993  0.55998481  0.25522121  1  0.093013  0.000879  0.110021  0.121832  0.000451  0.999594  0.0
H  H41  1  0.95788782  0.05998301  0.24477847  1  0.093016  0.000879  0.110039  0.121874  0.000451  0.999595  0.0
H  H42  1  0.45788605  0.44001957  0.74478356  1  0.09293  0.000879  0.110091  0.121903  0.000451  0.999544  0.0
H  H43  1  0.04211211  0.94001543  0.75522169  1  0.093052  0.000879  0.110029  0.121849  0.000451  0.999593  0.0
H  H44  1  0.80263408  0.66348498  0.43355658  1  0.06681  0.000476  0.099653  0.099533  0.000237  1.011667  0.0
H  H45  1  0.69736446  0.16348369  0.06644129  1  0.066769  0.000476  0.099674  0.099548  0.000237  1.011662  0.0
H  H46  1  0.19736742  0.33652014  0.56644374  1  0.066702  0.000476  0.099653  0.099494  0.000237  1.011759  0.0
H  H47  1  0.30263547  0.83651104  0.93355699  1  0.066789  0.000476  0.099635  0.099498  0.000237  1.01172  0.0
H  H48  1  0.70267502  0.80891213  0.47138217  1  0.12628  0.00053  0.0991  0.118428  7.4e-05  1.044149  0.0
H  H49  1  0.79732319  0.30890977  0.02861716  1  0.126256  0.00053  0.0991  0.118457  7.4e-05  1.044144  0.0
H  H50  1  0.29732336  0.19109076  0.52861343  1  0.126156  0.00053  0.099075  0.118418  7.4e-05  1.04417  0.0
H  H51  1  0.20267517  0.69108645  0.97138158  1  0.126247  0.00053  0.099097  0.11845  7.4e-05  1.04416  0.0
H  H52  1  0.56126882  0.83499561  0.55562152  1  0.112926  1.5e-05  0.106649  0.110591  -8.8e-05  1.037336  0.0
H  H53  1  0.93873351  0.33499339  0.94437642  1  0.112834  1.5e-05  0.106638  0.110592  -8.8e-05  1.037372  0.0
H  H54  1  0.43873506  0.16501174  0.44437277  1  0.112742  1.5e-05  0.106654  0.110706  -8.8e-05  1.037313  0.0
H  H55  1  0.06126484  0.66500505  0.05562546  1  0.112908  1.5e-05  0.106653  0.110602  -8.8e-05  1.037398  0.0
H  H56  1  0.42386782  0.01906070  0.34878516  1  0.149618  0.000194  0.103243  0.119229  -3.4e-05  1.030187  0.0
H  H57  1  0.07613003  0.51905692  0.15121575  1  0.149649  0.000193  0.103237  0.119116  -3.4e-05  1.03019  0.0
H  H58  1  0.57613605  0.98094739  0.65120975  1  0.149727  0.000193  0.103149  0.118996  -3.4e-05  1.030285  0.0
H  H59  1  0.92386832  0.48094004  0.84878487  1  0.149657  0.000193  0.103208  0.119129  -3.4e-05  1.030123  0.0
C  C60  1  0.17805960  0.81880354  0.12626331  1  0.977454  -0.002966  0.160181  0.138387  -0.00262  3.923921  -0.002
C  C61  1  0.32194147  0.31880014  0.37373846  1  0.977452  -0.002965  0.160205  0.138349  -0.002619  3.923841  -0.002
C  C62  1  0.82193875  0.18119861  0.87373793  1  0.97744  -0.002966  0.160228  0.138485  -0.00262  3.923946  -0.002
C  C63  1  0.67805847  0.68119979  0.62626043  1  0.97745  -0.002966  0.160242  0.138418  -0.002619  3.923873  -0.002
C  C64  1  0.10288585  0.74980297  0.22687784  1  0.370923  0.00246  0.08505  0.143137  0.001646  4.040686  0.002
C  C65  1  0.39711808  0.24980558  0.27312759  1  0.370875  0.002461  0.08498  0.142947  0.001647  4.040808  0.002
C  C66  1  0.89711641  0.25019250  0.77312758  1  0.370905  0.002461  0.084946  0.14288  0.001647  4.0408  0.002
C  C67  1  0.60288342  0.75019286  0.72687210  1  0.370899  0.002461  0.08494  0.142862  0.001646  4.040849  0.002
C  C68  1  0.07856314  0.69610600  0.29697717  1  -0.052141  0.002097  -0.089556  -0.149041  0.000988  3.980916  0.001
C  C69  1  0.42144120  0.19610413  0.20302547  1  -0.051768  0.002097  -0.089543  -0.148936  0.000988  3.980781  0.001
C  C70  1  0.92144225  0.30389392  0.70302795  1  -0.051833  0.002096  -0.089527  -0.148893  0.000988  3.980602  0.001
C  C71  1  0.57855873  0.80389356  0.79697280  1  -0.051902  0.002096  -0.089515  -0.148882  0.000988  3.980835  0.001
C  C72  1  0.98072558  0.71267969  0.32318817  1  -0.03517  -0.0006  -0.094679  -0.084663  -0.000571  4.023895  -0.001
C  C73  1  0.51927729  0.21268364  0.17681169  1  -0.035097  -0.000599  -0.094701  -0.084587  -0.000571  4.024054  -0.001
C  C74  1  0.01928140  0.28731356  0.67681335  1  -0.035069  -0.0006  -0.094739  -0.084734  -0.000571  4.02361  -0.001
C  C75  1  0.48072421  0.78731257  0.82318862  1  -0.034683  -0.000599  -0.094746  -0.084746  -0.000571  4.023929  -0.001
C  C76  1  0.90838313  0.78004719  0.28084573  1  -0.012262  0.001299  -0.089808  -0.069573  0.000683  4.006423  0.001
C  C77  1  0.59161844  0.28004872  0.21915378  1  -0.01237  0.001299  -0.08982  -0.069657  0.000683  4.006614  0.001
C  C78  1  0.09161914  0.21994680  0.71915593  1  -0.012469  0.001299  -0.08976  -0.069527  0.000683  4.006541  0.001
C  C79  1  0.40838307  0.71994824  0.78084340  1  -0.012546  0.001299  -0.089753  -0.06955  0.000683  4.006531  0.001
C  C80  1  0.93121228  0.83318370  0.21039169  1  -0.025229  0.000102  -0.095919  -0.166746  -5.9e-05  4.011375  0.0
C  C81  1  0.56879516  0.33318153  0.28960749  1  -0.024458  0.000102  -0.095838  -0.16663  -5.9e-05  4.011346  0.0
C  C82  1  0.06879392  0.16681548  0.78960912  1  -0.024487  0.000102  -0.095888  -0.166726  -5.9e-05  4.011514  0.0
C  C83  1  0.43120479  0.66681839  0.71038890  1  -0.024605  0.000102  -0.095909  -0.166737  -5.9e-05  4.011589  0.0
C  C84  1  0.02941085  0.81666049  0.18431815  1  0.290099  0.004116  0.092412  0.094096  0.002066  4.007372  0.003
C  C85  1  0.47059493  0.31666364  0.31568536  1  0.289243  0.004117  0.092339  0.094051  0.002066  4.007239  0.003
C  C86  1  0.97059534  0.18333498  0.81568391  1  0.289209  0.004116  0.092335  0.094124  0.002066  4.007287  0.003
C  C87  1  0.52940421  0.68333703  0.68431471  1  0.289277  0.004116  0.092277  0.09408  0.002066  4.00734  0.003
C  C88  1  0.03898853  0.93056861  0.05980868  1  0.327128  0.000271  0.0982  0.173885  8e-05  4.013098  0.0
C  C89  1  0.46101326  0.43056618  0.44019258  1  0.327254  0.000271  0.098204  0.173902  8e-05  4.013028  0.0
C  C90  1  0.96101140  0.06943132  0.94019273  1  0.327155  0.000271  0.098152  0.173934  8e-05  4.013044  0.0
C  C91  1  0.53898667  0.56943449  0.55980506  1  0.327751  0.000271  0.098189  0.173892  8e-05  4.013052  0.0
C  C92  1  0.09905295  0.01422661  0.04633955  1  0.008088  0.000173  -0.081987  -0.141097  -4.6e-05  3.969357  0.0
C  C93  1  0.40094651  0.51422732  0.45366150  1  0.008038  0.000173  -0.081975  -0.14114  -4.6e-05  3.969273  0.0
C  C94  1  0.90094931  0.98577480  0.95366462  1  0.008035  0.000174  -0.081922  -0.141017  -4.6e-05  3.969369  0.0
C  C95  1  0.59905187  0.48577261  0.54633410  1  0.007555  0.000173  -0.081938  -0.14103  -4.6e-05  3.969354  0.0
C  C96  1  0.94023328  0.91603233  0.01376242  1  -0.033568  8e-05  -0.081805  -0.142893  -2e-05  3.974846  0.0
C  C97  1  0.55976725  0.41602890  0.48623842  1  -0.033641  8e-05  -0.081817  -0.142942  -2.1e-05  3.975001  0.0
C  C98  1  0.05976506  0.08396759  0.98624071  1  -0.033593  8.1e-05  -0.081729  -0.14283  -2e-05  3.974747  0.0
C  C99  1  0.44023427  0.58397028  0.51375814  1  -0.033562  8e-05  -0.081743  -0.142767  -2e-05  3.974753  0.0
C  C100  1  0.40023158  0.80813105  0.33658134  1  0.966971  0.004588  0.166199  0.140477  0.003021  3.864377  0.004
C  C101  1  0.09976486  0.30812760  0.16341989  1  0.967142  0.004588  0.166248  0.14058  0.003021  3.864257  0.004
C  C102  1  0.59976599  0.19187407  0.66342045  1  0.967145  0.004588  0.166164  0.140418  0.003021  3.864226  0.004
C  C103  1  0.90023506  0.69187084  0.83658026  1  0.967082  0.004589  0.166212  0.140529  0.003021  3.864198  0.004
C  C104  1  0.51875324  0.69438520  0.32526731  1  0.368333  0.002229  0.087873  0.148594  0.001434  4.034786  0.002
C  C105  1  0.98124427  0.19438264  0.17473315  1  0.368526  0.002228  0.087844  0.148634  0.001434  4.034913  0.002
C  C106  1  0.48124432  0.30561696  0.67473637  1  0.368543  0.002229  0.08784  0.148672  0.001434  4.034727  0.002
C  C107  1  0.01875566  0.80561283  0.82526701  1  0.368266  0.002229  0.087895  0.148567  0.001434  4.03483  0.002
C  C108  1  0.57631724  0.61267859  0.30282262  1  0.019142  0.002828  -0.082702  -0.14383  0.001491  3.963699  0.002
C  C109  1  0.92368167  0.11267889  0.19717749  1  0.019113  0.002829  -0.082727  -0.143921  0.001491  3.963713  0.002
C  C110  1  0.42367875  0.38732356  0.69717964  1  0.019153  0.002829  -0.082777  -0.144007  0.001491  3.963668  0.002
C  C111  1  0.07631825  0.88731881  0.80282329  1  0.019253  0.002828  -0.082729  -0.143802  0.001491  3.963707  0.002
C  C112  1  0.67834441  0.60286845  0.34327321  1  -0.032267  -0.000279  -0.097019  -0.09583  -0.000393  4.037045  0.0
C  C113  1  0.82165459  0.10286696  0.15672497  1  -0.032464  -0.000279  -0.096999  -0.095787  -0.000393  4.036935  0.0
C  C114  1  0.32165238  0.39713371  0.65672599  1  -0.032477  -0.000279  -0.096991  -0.095732  -0.000393  4.03688  0.0
C  C115  1  0.17834691  0.89713223  0.84327472  1  -0.032202  -0.000279  -0.09697  -0.095929  -0.000393  4.036921  0.0
C  C116  1  0.72225246  0.67270196  0.40343191  1  -0.042886  0.001707  -0.096185  -0.086937  0.000888  4.03497  0.001
C  C117  1  0.77774601  0.17270031  0.09656600  1  -0.042838  0.001707  -0.096287  -0.087024  0.000888  4.035032  0.001
C  C118  1  0.27774277  0.32730168  0.59656650  1  -0.042849  0.001707  -0.096219  -0.086906  0.000888  4.035014  0.001
C  C119  1  0.22225471  0.82729517  0.90343235  1  -0.043105  0.001707  -0.096183  -0.086781  0.000888  4.034758  0.001
C  C120  1  0.66609268  0.75497050  0.42587601  1  0.029755  0.00042  -0.099914  -0.176454  0.000191  4.012368  0.0
C  C121  1  0.83390359  0.25496898  0.07412342  1  0.029822  0.00042  -0.099818  -0.176427  0.000191  4.012224  0.0
C  C122  1  0.33390099  0.24503462  0.57411972  1  0.029917  0.00042  -0.099831  -0.176424  0.000191  4.012204  0.0
C  C123  1  0.16609477  0.74502724  0.92587657  1  0.029885  0.00042  -0.099963  -0.1766  0.000191  4.012347  0.0
C  C124  1  0.56321471  0.76327521  0.38651976  1  0.24517  0.0039  0.090997  0.093684  0.002066  3.992007  0.003
C  C125  1  0.93678385  0.26327174  0.11347996  1  0.245145  0.0039  0.09099  0.093708  0.002066  3.991964  0.003
C  C126  1  0.43677974  0.23672695  0.61347794  1  0.245244  0.003901  0.091014  0.093689  0.002066  3.991809  0.003
C  C127  1  0.06321686  0.73672299  0.88652027  1  0.245143  0.0039  0.09103  0.093751  0.002066  3.992169  0.003
C  C128  1  0.49280361  0.91858724  0.44663359  1  0.307335  0.000855  0.094842  0.167873  0.000513  4.012473  0.001
C  C129  1  0.00719594  0.41858209  0.05336360  1  0.307526  0.000855  0.094908  0.167969  0.000513  4.012431  0.001
C  C130  1  0.50719871  0.08142234  0.55335990  1  0.30729  0.000855  0.09485  0.167848  0.000513  4.012981  0.001
C  C131  1  0.99280319  0.58141412  0.94663898  1  0.307325  0.000855  0.094796  0.167874  0.000513  4.012498  0.001
C  C132  1  0.53547357  0.90755934  0.53131339  1  -0.033119  0.000673  -0.082067  -0.135073  0.000384  3.959955  0.0
C  C133  1  0.96452979  0.40755266  0.96868383  1  -0.033287  0.000673  -0.081986  -0.134989  0.000384  3.959961  0.0
C  C134  1  0.46453266  0.09245172  0.46868240  1  -0.033257  0.000673  -0.081949  -0.13504  0.000384  3.960139  0.0
C  C135  1  0.03547014  0.59244355  0.03131633  1  -0.033253  0.000673  -0.08195  -0.134921  0.000384  3.960036  0.0
C  C136  1  0.45722714  0.01087366  0.41482488  1  -0.034884  0.00048  -0.0813  -0.13882  0.000206  3.959907  0.0
C  C137  1  0.04277000  0.51086810  0.08517402  1  -0.035004  0.00048  -0.081298  -0.138739  0.000206  3.959806  0.0
C  C138  1  0.54277515  0.98914111  0.58517175  1  -0.035108  0.00048  -0.0811  -0.138449  0.000206  3.959855  0.0
C  C139  1  0.95722836  0.48913034  0.91482722  1  -0.035005  0.00048  -0.081228  -0.138661  0.000206  3.959749  0.0
N  N140  1  0.19436773  0.75224547  0.18794757  1  -1.210165  0.068283  -0.361623  -0.33918  0.036394  3.617824  0.047
N  N141  1  0.30562835  0.25224168  0.31205267  1  -1.210225  0.068282  -0.361685  -0.339154  0.036394  3.617771  0.047
N  N142  1  0.80562748  0.24775594  0.81205398  1  -1.210222  0.068281  -0.361609  -0.33913  0.036394  3.617866  0.047
N  N143  1  0.69437158  0.74775601  0.68794623  1  -1.210214  0.068279  -0.361649  -0.339139  0.036393  3.617774  0.047
N  N144  1  0.07969496  0.85863596  0.12011617  1  -1.257575  0.002904  -0.227201  -0.061849  0.001231  3.779257  0.002
N  N145  1  0.42030658  0.35863334  0.37988715  1  -1.257652  0.002905  -0.227172  -0.061748  0.001231  3.779237  0.002
N  N146  1  0.92030575  0.14136545  0.87988595  1  -1.257569  0.002905  -0.227187  -0.061914  0.001232  3.779205  0.002
N  N147  1  0.57969178  0.64136733  0.62011221  1  -1.257624  0.002905  -0.227152  -0.061738  0.001232  3.779224  0.002
N  N148  1  0.41700757  0.72487231  0.29552897  1  -1.206576  0.067055  -0.358091  -0.330928  0.035658  3.627442  0.045
N  N149  1  0.08298872  0.22487007  0.20447112  1  -1.206842  0.06706  -0.358159  -0.331138  0.035663  3.627739  0.045
N  N150  1  0.58299075  0.27512985  0.70447855  1  -1.206728  0.067053  -0.358067  -0.330986  0.035659  3.627581  0.045
N  N151  1  0.91700886  0.77512689  0.79552628  1  -1.20662  0.067054  -0.358081  -0.33091  0.035657  3.627485  0.045
N  N152  1  0.48541247  0.83442882  0.39246700  1  -1.26186  0.006086  -0.219177  -0.047086  0.002877  3.748662  0.004
N  N153  1  0.01458457  0.33442407  0.10753131  1  -1.261967  0.006086  -0.21927  -0.047268  0.002877  3.748749  0.004
N  N154  1  0.51458434  0.16557630  0.60752906  1  -1.261853  0.006087  -0.219294  -0.04722  0.002878  3.748684  0.004
N  N155  1  0.98541771  0.66557065  0.89246971  1  -1.261899  0.006087  -0.219254  -0.047328  0.002878  3.748719  0.004
Cl  Cl156  1  0.27322344  0.51326560  0.24035386  1  -0.648093  0.150986  -0.317526  -0.512955  0.07947  1.236252  0.098
Cl  Cl157  1  0.22677996  0.01326718  0.25964571  1  -0.648092  0.150998  -0.317505  -0.512948  0.079475  1.236237  0.098
Cl  Cl158  1  0.72677805  0.48673284  0.75964771  1  -0.648081  0.150992  -0.317523  -0.512974  0.079473  1.236226  0.098
Cl  Cl159  1  0.77322232  0.98673275  0.74035594  1  -0.648064  0.150995  -0.317528  -0.512973  0.079474  1.236256  0.098
Cl  Cl160  1  0.38794000  0.67916910  0.08306206  1  -0.62512  0.185381  -0.35511  -0.510439  0.097011  1.075414  0.122
Cl  Cl161  1  0.11205978  0.17917509  0.41693813  1  -0.625115  0.185388  -0.355098  -0.510451  0.097015  1.075351  0.122
Cl  Cl162  1  0.61206070  0.32082859  0.91694069  1  -0.625152  0.185389  -0.355121  -0.510456  0.097014  1.075351  0.122
Cl  Cl163  1  0.88794015  0.82083152  0.58306140  1  -0.625114  0.185386  -0.355107  -0.510438  0.097014  1.07538  0.122
