# generated using pymatgen
data_NaH7C4(NO2)2
_symmetry_space_group_name_H-M   'P 1'
_cell_length_a   6.41722739
_cell_length_b   10.27464697
_cell_length_c   10.27449125
_cell_angle_alpha   91.43945843
_cell_angle_beta   99.62963320
_cell_angle_gamma   99.63557009
_symmetry_Int_Tables_number   1
_chemical_formula_structural   NaH7C4(NO2)2
_chemical_formula_sum   'Na4 H28 C16 N8 O16'
_cell_volume   657.49394115
_cell_formula_units_Z   4
loop_
 _symmetry_equiv_pos_site_id
 _symmetry_equiv_pos_as_xyz
  1  'x, y, z'
loop_
 _atom_site_type_symbol
 _atom_site_label
 _atom_site_symmetry_multiplicity
 _atom_site_fract_x
 _atom_site_fract_y
 _atom_site_fract_z
 _atom_site_occupancy
 _atom_site_hle17_bader_spin_density
 _atom_site_hle17_ddec_charge
 _atom_site_hle17_ddec_spin_density
 _atom_site_hle17_ddec_sum_bond_order
 _atom_site_hle17_magmom
 _atom_site_hse06_10hf_bader_spin_density
 _atom_site_hse06_10hf_ddec_charge
 _atom_site_hse06_10hf_ddec_spin_density
 _atom_site_hse06_10hf_ddec_sum_bond_order
 _atom_site_hse06_10hf_magmom
 _atom_site_hse06_bader_spin_density
 _atom_site_hse06_ddec_charge
 _atom_site_hse06_ddec_spin_density
 _atom_site_hse06_ddec_sum_bond_order
 _atom_site_hse06_magmom
 _atom_site_pbe_bader_spin_density
 _atom_site_pbe_cm5_charge
 _atom_site_pbe_ddec_charge
 _atom_site_pbe_ddec_spin_density
 _atom_site_pbe_ddec_sum_bond_order
 _atom_site_pbe_magmom
Na  Na0  1  0.34899531  0.73464566  0.75477500  1  0  0.900634  0  0.373224  0  0  0.860387  0  0.521326  0  0  0.869759  0  0.500442  0  0  0.657182  0.853696  0  0.53592  0
Na  Na1  1  0.15099348  0.24521308  0.26536779  1  0  0.900662  0  0.373201  0  0  0.860389  0  0.521356  0  0  0.869762  0  0.500465  0  0  0.657185  0.853691  0  0.535945  0
Na  Na2  1  0.65099542  0.26535982  0.24522604  1  0  0.900639  0  0.373236  0  0  0.860387  0  0.521342  0  0  0.869762  0  0.500455  0  0  0.657187  0.853694  0  0.535937  0
Na  Na3  1  0.84900402  0.75478869  0.73462783  1  0  0.900681  0  0.373135  0  0  0.86042  0  0.521258  0  0  0.869793  0  0.500373  0  0  0.657184  0.853727  0  0.535851  0
H  H4  1  0.57417871  0.50087478  0.91085814  1  0  0.120137  0  0.936252  0  0  0.135129  0  0.98823  0  0  0.138605  0  0.9862  0  0  0.122442  0.13234  0  0.990136  0
H  H5  1  0.92586520  0.08917224  0.49915468  1  0  0.120166  0  0.936287  0  0  0.135144  0  0.988242  0  0  0.138624  0  0.9862  0  0  0.122346  0.132351  0  0.990164  0
H  H6  1  0.42589074  0.49917708  0.08919124  1  0  0.120198  0  0.936471  0  0  0.135184  0  0.98841  0  0  0.138666  0  0.986363  0  0  0.122343  0.132389  0  0.990332  0
H  H7  1  0.07419656  0.91083285  0.50085549  1  0  0.120266  0  0.935981  0  0  0.135262  0  0.987955  0  0  0.138741  0  0.985917  0  0  0.122392  0.132466  0  0.989881  0
H  H8  1  0.54324256  0.25980536  0.95901969  1  0  0.116844  0  0.966773  0  0  0.127282  0  1.028595  0  0  0.131539  0  1.024122  0  0  0.114367  0.124192  0  1.032025  0
H  H9  1  0.95680098  0.04098873  0.74021580  1  0  0.11708  0  0.96654  0  0  0.127471  0  1.028393  0  0  0.131731  0  1.023917  0  0  0.114356  0.124379  0  1.031832  0
H  H10  1  0.45674489  0.74021577  0.04098603  1  0  0.117158  0  0.966562  0  0  0.127567  0  1.028369  0  0  0.131822  0  1.023908  0  0  0.114473  0.124476  0  1.031803  0
H  H11  1  0.04323090  0.95900084  0.25978634  1  0  0.116978  0  0.966893  0  0  0.12742  0  1.028647  0  0  0.131667  0  1.024181  0  0  0.114432  0.124332  0  1.032074  0
H  H12  1  0.79696462  0.83218616  0.97893446  1  0  0.423166  0  0.885837  0  0  0.39032  0  0.95334  0  0  0.400847  0  0.938073  0  0  0.285999  0.382955  0  0.964006  0
H  H13  1  0.70300139  0.02105019  0.16781106  1  0  0.423407  0  0.885463  0  0  0.390628  0  0.952842  0  0  0.40115  0  0.937583  0  0  0.286116  0.383271  0  0.963493  0
H  H14  1  0.20304780  0.16781262  0.02106149  1  0  0.423177  0  0.88581  0  0  0.390346  0  0.953293  0  0  0.400869  0  0.938031  0  0  0.286022  0.382981  0  0.963956  0
H  H15  1  0.29700468  0.97894834  0.83219006  1  0  0.423424  0  0.885454  0  0  0.39067  0  0.952793  0  0  0.401192  0  0.937534  0  0  0.286143  0.383313  0  0.963444  0
H  H16  1  0.67822684  0.93610358  0.89216954  1  0  0.423247  0  0.854049  0  0  0.397369  0  0.920471  0  0  0.406749  0  0.906326  0  0  0.304167  0.390544  0  0.930822  0
H  H17  1  0.82176319  0.10781574  0.06389858  1  0  0.423155  0  0.854245  0  0  0.397298  0  0.920566  0  0  0.406674  0  0.906429  0  0  0.304162  0.390476  0  0.930914  0
H  H18  1  0.32177088  0.06388803  0.10783121  1  0  0.42324  0  0.854013  0  0  0.397399  0  0.920442  0  0  0.406782  0  0.90629  0  0  0.304171  0.390573  0  0.930795  0
H  H19  1  0.17824409  0.89218716  0.93609421  1  0  0.42304  0  0.854283  0  0  0.397143  0  0.920733  0  0  0.406516  0  0.906602  0  0  0.304133  0.390322  0  0.93108  0
H  H20  1  0.04653049  0.52729242  0.85997431  1  0  0.389682  0  0.931004  0  0  0.34978  0  1.010578  0  0  0.361157  0  0.994006  0  0  0.279291  0.341778  0  1.022152  0
H  H21  1  0.45347021  0.14001745  0.47272100  1  0  0.38955  0  0.931178  0  0  0.349691  0  1.010676  0  0  0.361067  0  0.994112  0  0  0.279238  0.341691  0  1.022248  0
H  H22  1  0.95346442  0.47271130  0.14002215  1  0  0.389649  0  0.93106  0  0  0.349729  0  1.01066  0  0  0.361109  0  0.994088  0  0  0.279264  0.341727  0  1.022235  0
H  H23  1  0.54653817  0.85998894  0.52728189  1  0  0.389561  0  0.931131  0  0  0.349684  0  1.010667  0  0  0.361061  0  0.994102  0  0  0.27924  0.341683  0  1.02224  0
H  H24  1  0.05076766  0.65743892  0.95778133  1  0  0.413924  0  0.895336  0  0  0.381665  0  0.962431  0  0  0.39298  0  0.945826  0  0  0.281196  0.373867  0  0.973768  0
H  H25  1  0.44919345  0.04219957  0.34257576  1  0  0.413872  0  0.895419  0  0  0.381628  0  0.962494  0  0  0.392945  0  0.945886  0  0  0.281176  0.373832  0  0.973832  0
H  H26  1  0.94923143  0.34256298  0.04221153  1  0  0.414001  0  0.895244  0  0  0.381669  0  0.962455  0  0  0.392989  0  0.945841  0  0  0.281179  0.373872  0  0.97379  0
H  H27  1  0.55080833  0.95780581  0.65742737  1  0  0.414088  0  0.895153  0  0  0.381763  0  0.962337  0  0  0.393084  0  0.945722  0  0  0.281251  0.373965  0  0.973677  0
H  H28  1  0.48788357  0.38311126  0.50708098  1  0  0.29531  0  0.91433  0  0  0.273388  0  0.980175  0  0  0.283293  0  0.971767  0  0  0.31943  0.266523  0  0.986012  0
H  H29  1  0.01208419  0.49289648  0.61689593  1  0  0.295313  0  0.914365  0  0  0.273208  0  0.980278  0  0  0.2831  0  0.971897  0  0  0.319439  0.266348  0  0.986108  0
H  H30  1  0.51206861  0.61690366  0.49288758  1  0  0.295385  0  0.914166  0  0  0.273302  0  0.980047  0  0  0.283196  0  0.971663  0  0  0.319477  0.266445  0  0.985878  0
H  H31  1  0.98788553  0.50709129  0.38310170  1  0  0.29534  0  0.914496  0  0  0.273365  0  0.980306  0  0  0.283269  0  0.971897  0  0  0.319465  0.266504  0  0.986137  0
C  C32  1  0.52898636  0.46140577  0.69886745  1  0  0.513135  0  3.895025  0  0  0.46752  0  4.191862  0  0  0.493663  0  4.19317  0  0  0.215504  0.450196  0  4.190122  0
C  C33  1  0.97097811  0.30113717  0.53858074  1  0  0.51351  0  3.894294  0  0  0.467315  0  4.191671  0  0  0.49346  0  4.192978  0  0  0.215306  0.44997  0  4.18996  0
C  C34  1  0.47097527  0.53858647  0.30114040  1  0  0.513496  0  3.894454  0  0  0.467358  0  4.191764  0  0  0.493499  0  4.193075  0  0  0.215352  0.450014  0  4.190051  0
C  C35  1  0.02899880  0.69884293  0.46141123  1  0  0.51305  0  3.894754  0  0  0.467124  0  4.191861  0  0  0.493277  0  4.193165  0  0  0.215352  0.449755  0  4.190172  0
C  C36  1  0.50565721  0.19338960  0.75270779  1  0  0.465443  0  3.936366  0  0  0.428468  0  4.226757  0  0  0.447509  0  4.237196  0  0  0.19715  0.415611  0  4.219338  0
C  C37  1  0.99441048  0.24729122  0.80661415  1  0  0.466183  0  3.936285  0  0  0.428873  0  4.227051  0  0  0.44791  0  4.237491  0  0  0.197113  0.416019  0  4.219628  0
C  C38  1  0.49438828  0.80661431  0.24728506  1  0  0.466202  0  3.936003  0  0  0.428875  0  4.226803  0  0  0.447914  0  4.237225  0  0  0.197178  0.416021  0  4.219386  0
C  C39  1  0.00561199  0.75270950  0.19338296  1  0  0.465885  0  3.936576  0  0  0.428607  0  4.22731  0  0  0.447645  0  4.237737  0  0  0.196992  0.415753  0  4.219884  0
C  C40  1  0.54710229  0.42287526  0.83296788  1  0  -0.17112  0  3.696816  0  0  -0.195949  0  3.963176  0  0  -0.200162  0  3.974175  0  0  -0.076286  -0.193174  0  3.955835  0
C  C41  1  0.95282230  0.16705288  0.57714514  1  0  -0.170946  0  3.696625  0  0  -0.195608  0  3.963013  0  0  -0.199821  0  3.974009  0  0  -0.075924  -0.192831  0  3.955693  0
C  C42  1  0.45278352  0.57714875  0.16705986  1  0  -0.170771  0  3.696914  0  0  -0.195498  0  3.963384  0  0  -0.19971  0  3.974374  0  0  -0.075903  -0.192717  0  3.956056  0
C  C43  1  0.04715129  0.83293190  0.42285267  1  0  -0.171035  0  3.696921  0  0  -0.195836  0  3.963374  0  0  -0.200057  0  3.974357  0  0  -0.076039  -0.19305  0  3.956062  0
C  C44  1  0.53288559  0.29295442  0.85885457  1  0  -0.115612  0  3.661885  0  0  -0.142674  0  3.923826  0  0  -0.140855  0  3.934998  0  0  -0.070338  -0.143987  0  3.916301  0
C  C45  1  0.96720187  0.14114201  0.70707857  1  0  -0.116381  0  3.66188  0  0  -0.14335  0  3.923857  0  0  -0.14153  0  3.935015  0  0  -0.070624  -0.144666  0  3.916342  0
C  C46  1  0.46720343  0.70707380  0.14114932  1  0  -0.11653  0  3.662071  0  0  -0.143487  0  3.924049  0  0  -0.141684  0  3.93524  0  0  -0.070659  -0.144801  0  3.916524  0
C  C47  1  0.03285204  0.85884693  0.29293746  1  0  -0.116134  0  3.662544  0  0  -0.143101  0  3.924486  0  0  -0.141292  0  3.935699  0  0  -0.070595  -0.144419  0  3.916971  0
N  N48  1  0.49033870  0.23017669  0.62777500  1  0  -0.310764  0  3.016863  0  0  -0.276646  0  3.278415  0  0  -0.291846  0  3.296668  0  0  -0.22144  -0.266582  0  3.266314  0
N  N49  1  0.00966817  0.37220458  0.76981741  1  0  -0.310966  0  3.017391  0  0  -0.276808  0  3.278617  0  0  -0.292005  0  3.296855  0  0  -0.221412  -0.266736  0  3.266511  0
N  N50  1  0.50962657  0.76981799  0.37220221  1  0  -0.310976  0  3.016966  0  0  -0.276871  0  3.278271  0  0  -0.292067  0  3.296513  0  0  -0.221461  -0.266802  0  3.266171  0
N  N51  1  0.99030796  0.62779450  0.23017194  1  0  -0.310918  0  3.017472  0  0  -0.27668  0  3.278824  0  0  -0.291878  0  3.297068  0  0  -0.221283  -0.266611  0  3.266713  0
N  N52  1  0.50051717  0.36060502  0.60649084  1  0  -0.233792  0  3.432233  0  0  -0.17339  0  3.667931  0  0  -0.189969  0  3.684283  0  0  -0.270074  -0.162704  0  3.657194  0
N  N53  1  0.99951546  0.39349659  0.63939632  1  0  -0.234007  0  3.43272  0  0  -0.172793  0  3.667719  0  0  -0.189364  0  3.684076  0  0  -0.269877  -0.162107  0  3.65698  0
N  N54  1  0.49952637  0.63939267  0.39348676  1  0  -0.234091  0  3.432853  0  0  -0.172907  0  3.667886  0  0  -0.189468  0  3.684225  0  0  -0.269968  -0.162231  0  3.657161  0
N  N55  1  0.00049177  0.60648470  0.36059200  1  0  -0.233951  0  3.432677  0  0  -0.173119  0  3.667824  0  0  -0.189692  0  3.684168  0  0  -0.270097  -0.162419  0  3.657093  0
O  O56  1  0.53709660  0.58121598  0.66436325  1  0  -0.71396  0  1.96602  0  0  -0.673167  0  2.216136  0  0  -0.693722  0  2.204379  0  0  -0.430165  -0.658564  0  2.223207  0
O  O57  1  0.96286996  0.33565444  0.41876719  1  0  -0.71402  0  1.965559  0  0  -0.67313  0  2.215897  0  0  -0.693691  0  2.204132  0  0  -0.43014  -0.65852  0  2.222978  0
O  O58  1  0.46288485  0.41876260  0.33566123  1  0  -0.714095  0  1.965237  0  0  -0.673192  0  2.215521  0  0  -0.693756  0  2.203762  0  0  -0.430147  -0.658579  0  2.2226  0
O  O59  1  0.03711301  0.66433553  0.58122610  1  0  -0.713756  0  1.965769  0  0  -0.672878  0  2.215951  0  0  -0.693437  0  2.204194  0  0  -0.430066  -0.658262  0  2.223041  0
O  O60  1  0.67892835  0.84203714  0.90437020  1  0  -0.907963  0  1.797955  0  0  -0.862757  0  1.98183  0  0  -0.87931  0  1.949195  0  0  -0.67634  -0.851106  0  2.00496  0
O  O61  1  0.82106876  0.09560898  0.15796531  1  0  -0.908063  0  1.797856  0  0  -0.862903  0  1.981649  0  0  -0.879448  0  1.949014  0  0  -0.676424  -0.85126  0  2.004776  0
O  O62  1  0.32107857  0.15795358  0.09562850  1  0  -0.907921  0  1.797845  0  0  -0.862787  0  1.981643  0  0  -0.879339  0  1.949006  0  0  -0.67638  -0.851138  0  2.004772  0
O  O63  1  0.17893964  0.90438690  0.84202905  1  0  -0.907996  0  1.797903  0  0  -0.862774  0  1.981873  0  0  -0.879322  0  1.949237  0  0  -0.676436  -0.851128  0  2.004999  0
O  O64  1  0.50065682  0.06937867  0.77584014  1  0  -0.675659  0  2.01251  0  0  -0.604315  0  2.233346  0  0  -0.630787  0  2.226658  0  0  -0.330607  -0.585179  0  2.237031  0
O  O65  1  0.99942136  0.22415893  0.93062747  1  0  -0.676026  0  2.01224  0  0  -0.604519  0  2.233132  0  0  -0.630984  0  2.226419  0  0  -0.33064  -0.585399  0  2.236865  0
O  O66  1  0.49932730  0.93062581  0.22416113  1  0  -0.675896  0  2.012114  0  0  -0.604422  0  2.233032  0  0  -0.630897  0  2.226365  0  0  -0.330603  -0.585294  0  2.236722  0
O  O67  1  0.00058716  0.77583197  0.06936751  1  0  -0.675787  0  2.012338  0  0  -0.604297  0  2.233174  0  0  -0.630755  0  2.226464  0  0  -0.330575  -0.58517  0  2.236889  0
O  O68  1  0.08120324  0.62556315  0.87172667  1  0  -0.932675  0  1.836023  0  0  -0.882595  0  2.030123  0  0  -0.899626  0  1.99476  0  0  -0.701486  -0.8706  0  2.054483  0
O  O69  1  0.41875864  0.12825465  0.37445361  1  0  -0.932573  0  1.836242  0  0  -0.882521  0  2.030365  0  0  -0.899565  0  1.995008  0  0  -0.701443  -0.870477  0  2.054615  0
O  O70  1  0.91878079  0.37443603  0.12826057  1  0  -0.932772  0  1.835976  0  0  -0.882644  0  2.030239  0  0  -0.899683  0  1.99486  0  0  -0.70148  -0.870634  0  2.054575  0
O  O71  1  0.58123651  0.87174964  0.62555169  1  0  -0.932722  0  1.835936  0  0  -0.882612  0  2.030177  0  0  -0.899657  0  1.994807  0  0  -0.701487  -0.870596  0  2.054489  0
