# generated using pymatgen
data_Zn4H26(C10O3)5
_symmetry_space_group_name_H-M   'P 1'
_cell_length_a   15.91351582
_cell_length_b   18.01963853
_cell_length_c   17.99885395
_cell_angle_alpha   63.47377545
_cell_angle_beta   76.29204195
_cell_angle_gamma   80.74639558
_symmetry_Int_Tables_number   1
_chemical_formula_structural   Zn4H26(C10O3)5
_chemical_formula_sum   'Zn4 H26 C50 O15'
_cell_volume   4477.43173523
_cell_formula_units_Z   1
loop_
 _symmetry_equiv_pos_site_id
 _symmetry_equiv_pos_as_xyz
  1  'x, y, z'
loop_
 _atom_site_type_symbol
 _atom_site_label
 _atom_site_symmetry_multiplicity
 _atom_site_fract_x
 _atom_site_fract_y
 _atom_site_fract_z
 _atom_site_occupancy
 _atom_site_pbe_bader_charge
 _atom_site_pbe_bader_spin_density
 _atom_site_pbe_cm5_charge
 _atom_site_pbe_ddec_charge
 _atom_site_pbe_ddec_spin_density
 _atom_site_pbe_ddec_sum_bond_order
 _atom_site_pbe_magmom
Zn  Zn0  1  0.57036382  0.41363913  0.58098727  1  1.316579  0  0.672751  0.96671  0  2.364265  0
Zn  Zn1  1  0.41881164  0.55226473  0.56277661  1  1.314032  0  0.6722  0.965558  0  2.356551  0
Zn  Zn2  1  0.45608236  0.44391856  0.44842572  1  1.316035  0  0.672589  0.96492  0  2.387855  0
Zn  Zn3  1  0.57093897  0.58952736  0.40509320  1  1.316595  0  0.671936  0.96695  0  2.364293  0
H  H4  1  0.55435197  0.83695579  0.59297879  1  0.076142  0  0.099504  0.097444  0  1.019683  0
H  H5  1  0.55030845  0.60185840  0.82915339  1  0.009451  0  0.100998  0.111631  0  1.027712  0
H  H6  1  0.44970014  0.39105805  0.17010036  1  0.030754  0  0.103242  0.104611  0  1.008809  0
H  H7  1  0.39731137  0.26050399  0.00973712  1  0.029401  0  0.101972  0.10063  0  0.997073  0
H  H8  1  0.61305254  0.89130906  0.67143602  1  0.063555  0  0.098868  0.097764  0  1.003856  0
H  H9  1  0.50159771  0.79364196  0.53559873  1  0.066472  0  0.102731  0.105969  0  1.020745  0
H  H10  1  0.40939609  0.84257159  0.31251418  1  0.073049  0  0.104774  0.110722  0  1.016578  0
H  H11  1  0.39914483  0.11132632  0.31284458  1  0.050527  0  0.100362  0.095246  0  1.024454  0
H  H12  1  0.64179643  0.00761698  0.69475285  1  0.059629  0  0.10384  0.104379  0  0.99263  0
H  H13  1  0.62741669  0.15941556  0.65877193  1  0.09655  0  0.108588  0.115395  0  0.992012  0
H  H14  1  0.48587406  0.20579009  0.46611925  1  0.089928  0  0.105761  0.110198  0  1.022595  0
H  H15  1  0.44786357  0.16366808  0.39691873  1  0.071188  0  0.103334  0.104441  0  1.008602  0
H  H16  1  0.97541883  0.62581057  0.36658006  1  0.626757  0  0.346151  0.375188  0  0.858552  0
H  H17  1  0.39336888  0.93941989  0.18282889  1  0.024055  0  0.088716  0.115282  0  1.000343  0
H  H18  1  0.29124816  0.92550564  0.25229910  1  0.036817  0  0.089427  0.11647  0  0.998461  0
H  H19  1  0.30934750  0.01912590  0.15899137  1  0.026442  0  0.088766  0.115599  0  0.999797  0
H  H20  1  0.31465908  0.04529911  0.28092010  1  0.026614  0  0.09589  0.090212  0  0.969543  0
H  H21  1  0.41650090  0.05760008  0.21412985  1  0.032124  0  0.094332  0.087526  0  0.971007  0
H  H22  1  0.61830320  0.71088593  0.80903482  1  0.612775  0  0.33818  0.365351  0  0.873689  0
H  H23  1  0.49565291  0.53660792  0.79308792  1  0.082877  0  0.103078  0.106528  0  1.01555  0
H  H24  1  0.41922218  0.29491054  0.85624606  1  0.088319  0  0.107552  0.111638  0  0.987291  0
H  H25  1  0.40630541  0.29716101  0.12326964  1  0.037918  0  0.099368  0.100094  0  1.002887  0
H  H26  1  0.63615102  0.71650168  0.98885487  1  0.094531  0  0.106963  0.113212  0  0.996669  0
H  H27  1  0.62332319  0.67794125  0.14260907  1  0.103333  0  0.108207  0.115054  0  0.993745  0
H  H28  1  0.48543595  0.46614909  0.20627011  1  0.116844  0  0.106835  0.111842  0  1.021254  0
H  H29  1  0.98922240  0.43460607  0.59296650  1  0.134887  0  0.127196  0.150256  0  0.962002  0
C  C30  1  0.46913186  0.72052807  0.44703818  1  1.571925  0  0.229985  0.615477  0  4.153966  0
C  C31  1  0.52897314  0.07572514  0.53221525  1  -0.034348  0  -0.001338  0.034388  0  3.939243  0
C  C32  1  0.57272435  0.01989043  0.59941045  1  0.020196  0  -0.003938  0.084572  0  4.014359  0
C  C33  1  0.54249777  0.28026251  0.54073564  1  1.541573  0  0.226999  0.60617  0  4.161778  0
C  C34  1  0.49570985  0.04357817  0.48464350  1  -0.023748  0  -0.001652  0.034464  0  3.960128  0
C  C35  1  0.50453658  0.95702542  0.50666737  1  -0.021483  0  -0.003137  0.033439  0  3.948079  0
C  C36  1  0.54676159  0.90344505  0.57567641  1  -0.120518  0  -0.090752  -0.124226  0  4.026305  0
C  C37  1  0.57992467  0.93344584  0.61974634  1  -0.026419  0  -0.093575  -0.139554  0  4.035097  0
C  C38  1  0.45566536  0.09712974  0.41440023  1  0.079577  0  -0.090985  -0.125035  0  4.022427  0
C  C39  1  0.42800264  0.06751483  0.36675811  1  -0.148004  0  -0.093686  -0.133481  0  4.039652  0
C  C40  1  0.43685192  0.98130414  0.38545508  1  0.042448  0  -0.006902  0.022734  0  3.969013  0
C  C41  1  0.88863864  0.52727030  0.48409137  1  -0.485228  0  -0.034256  -0.12424  0  4.129055  0
C  C42  1  0.47344888  0.92505632  0.45774006  1  -0.058145  0  -0.001303  0.04162  0  3.960222  0
C  C43  1  0.41125125  0.95101828  0.33331522  1  -0.065519  0  -0.00384  0.078098  0  3.920362  0
C  C44  1  0.42523753  0.86718094  0.35252091  1  0.063861  0  -0.091728  -0.167918  0  3.966997  0
C  C45  1  0.46853780  0.44174919  0.72471185  1  1.556567  0  0.228248  0.612094  0  4.158461  0
C  C46  1  0.47899342  0.83919579  0.47860925  1  0.031008  0  -0.087562  -0.15625  0  3.967625  0
C  C47  1  0.55264622  0.56941941  0.18227889  1  -0.023803  0  -0.020421  -0.039263  0  4.000157  0
C  C48  1  0.45831688  0.41881720  0.81671951  1  -0.069199  0  -0.0178  -0.026897  0  3.999159  0
C  C49  1  0.60356414  0.66143056  0.03660920  1  0.015672  0  -0.087941  -0.112613  0  3.983339  0
C  C50  1  0.59648219  0.64043306  0.12138461  1  -0.090552  0  -0.08483  -0.097937  0  3.998504  0
C  C51  1  0.51866120  0.51997914  0.15696885  1  -0.07976  0  -0.076518  -0.12664  0  3.922665  0
C  C52  1  0.11187645  0.48793704  0.53069933  1  -0.4508  0  -0.014322  0.072654  0  4.13587  0
C  C53  1  0.52647704  0.53843130  0.07088804  1  0.041639  0  3e-06  0.044809  0  3.963508  0
C  C54  1  0.56877540  0.61179634  0.00997279  1  -0.034297  0  -0.007841  -0.005417  0  3.962693  0
C  C55  1  0.49441091  0.48555242  0.04362200  1  -0.018013  0  -0.009717  0.013787  0  3.973972  0
C  C56  1  0.50271909  0.50900474  0.95589150  1  0.038718  0  -0.001778  0.061488  0  3.986387  0
C  C57  1  0.54150616  0.54762700  0.27413338  1  1.541868  0  0.228114  0.605972  0  4.161397  0
C  C58  1  0.54285859  0.58372123  0.89675219  1  0.002288  0  -0.11609  -0.295988  0  4.032583  0
C  C59  1  0.57538249  0.63282442  0.92224382  1  0.484856  0  0.079958  0.265319  0  4.1069  0
C  C60  1  0.45721619  0.40907994  0.10263374  1  -0.069979  0  -0.090564  -0.120492  0  4.029594  0
C  C61  1  0.43265959  0.35625178  0.07683484  1  0.018984  0  -0.097737  -0.148177  0  4.041867  0
C  C62  1  0.44165945  0.37659330  0.98940898  1  -0.000391  0  -0.00622  0.080376  0  4.023193  0
C  C63  1  0.81144989  0.52435347  0.48839835  1  0.24126  0  -0.031374  -0.138211  0  3.955554  0
C  C64  1  0.47364543  0.45503032  0.92804570  1  -0.01489  0  -0.003603  0.035787  0  3.937132  0
C  C65  1  0.42110065  0.32027822  0.96206617  1  -0.019375  0  -0.088772  -0.130546  0  4.004774  0
C  C66  1  0.43217299  0.33931299  0.87731638  1  -0.00818  0  -0.087756  -0.103138  0  4.008481  0
C  C67  1  0.47696209  0.47570260  0.84198325  1  0.007911  0  -0.081159  -0.138744  0  3.938121  0
C  C68  1  0.28048169  0.49425481  0.51964719  1  1.656588  0  0.235725  0.685851  0  4.230919  0
C  C69  1  0.72112974  0.51858219  0.49274465  1  1.677353  0  0.229716  0.669325  0  4.244614  0
C  C70  1  0.18877545  0.49141965  0.52728204  1  0.225565  0  -0.036491  -0.202292  0  3.912126  0
C  C71  1  0.02382656  0.48253441  0.53639610  1  0.152714  0  -0.085552  -0.207563  0  4.038767  0
C  C72  1  0.97770073  0.53423424  0.47511416  1  0.558043  0  0.092764  0.320006  0  4.181785  0
C  C73  1  0.37019814  0.01044787  0.25849533  1  -0.003354  0  -0.156438  -0.138416  0  3.996641  0
C  C74  1  0.55482153  0.19016477  0.56009377  1  0.027319  0  -0.022172  -0.043478  0  4.000149  0
C  C75  1  0.33956133  0.97113191  0.21075501  1  -0.068133  0  -0.242138  -0.353135  0  3.987583  0
C  C76  1  0.45732574  0.81112258  0.42597086  1  -0.096796  0  -0.016808  -0.014495  0  4.022035  0
C  C77  1  0.60808837  0.05126230  0.64416606  1  -0.103662  0  -0.08933  -0.135971  0  3.999552  0
C  C78  1  0.60023365  0.13487051  0.62478622  1  -0.006993  0  -0.085385  -0.092657  0  3.998182  0
C  C79  1  0.52029822  0.16069494  0.51506139  1  -0.046382  0  -0.075922  -0.12623  0  3.927297  0
O  O80  1  0.50439978  0.49993570  0.49906252  1  -1.23785  0  -0.573955  -1.036297  0  2.540372  0
O  O81  1  0.30309552  0.53161497  0.55703021  1  -1.145104  0  -0.310124  -0.54136  0  2.268027  0
O  O82  1  0.68735069  0.57595429  0.43244623  1  -1.158433  0  -0.312176  -0.541918  0  2.270752  0
O  O83  1  0.32907306  0.45885215  0.47591471  1  -1.150651  0  -0.307037  -0.53386  0  2.277236  0
O  O84  1  0.68530984  0.45678852  0.55626145  1  -1.152329  0  -0.309936  -0.536663  0  2.267117  0
O  O85  1  0.01803236  0.59554831  0.40255512  1  -1.107869  0  -0.336435  -0.42617  0  2.208813  0
O  O86  1  0.61636599  0.70382589  0.86628687  1  -1.131715  0  -0.353622  -0.448232  0  2.266865  0
O  O87  1  0.50965052  0.38855056  0.69810844  1  -1.174968  0  -0.319147  -0.554005  0  2.296835  0
O  O88  1  0.58264223  0.58889331  0.29469773  1  -1.156013  0  -0.315446  -0.544126  0  2.329032  0
O  O89  1  0.43511150  0.67112006  0.52147957  1  -1.164016  0  -0.314336  -0.541933  0  2.309944  0
O  O90  1  0.49056328  0.32489573  0.49061052  1  -1.177566  0  -0.317379  -0.55129  0  2.343134  0
O  O91  1  0.51286836  0.69971081  0.38909789  1  -1.17142  0  -0.318118  -0.551417  0  2.296583  0
O  O92  1  0.58453305  0.30596837  0.57622304  1  -1.159087  0  -0.31617  -0.544801  0  2.329019  0
O  O93  1  0.43628093  0.51306572  0.67949468  1  -1.167366  0  -0.314597  -0.543643  0  2.310616  0
O  O94  1  0.49144576  0.48965025  0.32522029  1  -1.179754  0  -0.317814  -0.550536  0  2.345087  0
