# generated using pymatgen
data_ZnH34C32I2N3O8
_symmetry_space_group_name_H-M   'P 1'
_cell_length_a   14.33488402
_cell_length_b   15.11747076
_cell_length_c   19.13081629
_cell_angle_alpha   88.56628586
_cell_angle_beta   88.67775690
_cell_angle_gamma   89.24031319
_symmetry_Int_Tables_number   1
_chemical_formula_structural   ZnH34C32I2N3O8
_chemical_formula_sum   'Zn2 H68 C64 I4 N6 O16'
_cell_volume   4143.05043676
_cell_formula_units_Z   2
loop_
 _symmetry_equiv_pos_site_id
 _symmetry_equiv_pos_as_xyz
  1  'x, y, z'
loop_
 _atom_site_type_symbol
 _atom_site_label
 _atom_site_symmetry_multiplicity
 _atom_site_fract_x
 _atom_site_fract_y
 _atom_site_fract_z
 _atom_site_occupancy
 _atom_site_pbe_bader_charge
 _atom_site_pbe_bader_spin_density
 _atom_site_pbe_cm5_charge
 _atom_site_pbe_ddec_charge
 _atom_site_pbe_ddec_spin_density
 _atom_site_pbe_ddec_sum_bond_order
 _atom_site_pbe_magmom
Zn  Zn0  1  0.60468391  0.49695709  0.49685692  1  1.323643  0  0.683764  0.901494  0  2.296664  0
Zn  Zn1  1  0.39151283  0.50276495  0.50126018  1  1.318995  0  0.684033  0.896021  0  2.29592  0
H  H2  1  0.67651258  0.52766051  0.83495293  1  0.127385  0  0.103515  0.112759  0  1.023616  0
H  H3  1  0.93329252  0.61176799  0.43775519  1  0.053967  0  0.107739  0.126857  0  1.041704  0
H  H4  1  0.06493031  0.61623617  0.44237111  1  0.065453  0  0.110361  0.131829  0  1.034576  0
H  H5  1  0.92854379  0.37578446  0.57044877  1  0.081025  0  0.104916  0.12625  0  1.044022  0
H  H6  1  0.56461422  0.99739202  0.64190145  1  0.034612  0  0.094765  0.057325  0  1.009657  0
H  H7  1  0.63419027  0.09127822  0.65833013  1  0.021617  0  0.089563  0.046139  0  0.98624  0
H  H8  1  0.70777132  0.90587308  0.62196839  1  0.012143  0  0.09513  0.093839  0  0.970808  0
H  H9  1  0.77870579  0.99879043  0.63420736  1  0.00577  0  0.088693  0.076689  0  0.989314  0
H  H10  1  0.71672830  0.00901189  0.75940633  1  0.016836  0  0.082422  0.104146  0  1.017219  0
H  H11  1  0.76983638  0.90427809  0.74446715  1  0.026583  0  0.08732  0.115349  0  1.001859  0
H  H12  1  0.64658841  0.91497926  0.74692728  1  0.046112  0  0.084989  0.110739  0  1.004503  0
H  H13  1  0.45389772  0.35760938  0.15804022  1  0.125352  0  0.105466  0.111248  0  1.028169  0
H  H14  1  0.36875782  0.96318191  0.71888345  1  0.039849  0  0.105889  0.074412  0  0.955876  0
H  H15  1  0.42430755  0.86165002  0.69528182  1  0.047127  0  0.099966  0.058879  0  0.993669  0
H  H16  1  0.27156147  0.81460693  0.64290160  1  0.030399  0  0.090856  0.080601  0  1.007742  0
H  H17  1  0.26607716  0.82950293  0.73390376  1  0.050016  0  0.096104  0.09107  0  0.964662  0
H  H18  1  0.18872462  0.97765936  0.71710018  1  0.036103  0  0.085209  0.108494  0  1.011435  0
H  H19  1  0.12519039  0.89698431  0.67277501  1  0.026833  0  0.08623  0.113361  0  1.000925  0
H  H20  1  0.20083793  0.96954093  0.62483310  1  0.019718  0  0.087163  0.113609  0  1.025321  0
H  H21  1  0.46446141  0.99478113  0.37047629  1  0.017381  0  0.095316  0.055488  0  1.024268  0
H  H22  1  0.53652603  0.93108468  0.31313424  1  0.031555  0  0.085646  0.044984  0  0.98757  0
H  H23  1  0.57601453  0.11833247  0.36319906  1  0.031729  0  0.090412  0.089832  0  0.991288  0
H  H24  1  0.60896306  0.59918954  0.13853643  1  0.111564  0  0.105944  0.115676  0  1.014725  0
H  H25  1  0.65509823  0.05468311  0.31233623  1  0.023717  0  0.092824  0.088921  0  0.963805  0
H  H26  1  0.53742145  0.04980114  0.21553441  1  0.013637  0  0.082327  0.107384  0  1.005536  0
H  H27  1  0.56389504  0.16076218  0.23551531  1  0.048956  0  0.086344  0.118544  0  0.999767  0
H  H28  1  0.45784572  0.11409035  0.26634976  1  0.022554  0  0.073832  0.091834  0  1.047657  0
H  H29  1  0.26621238  0.02858392  0.36895732  1  0.029027  0  0.104647  0.072062  0  0.962642  0
H  H30  1  0.33938699  0.12305693  0.36128314  1  0.040373  0  0.094839  0.055437  0  1.023981  0
H  H31  1  0.22621734  0.20830460  0.43561157  1  0.010962  0  0.086393  0.076635  0  1.023204  0
H  H32  1  0.17572353  0.16755703  0.36021898  1  0.016104  0  0.095259  0.092184  0  0.964202  0
H  H33  1  0.09964995  0.04540410  0.42990659  1  0.027985  0  0.086732  0.111988  0  1.012218  0
H  H34  1  0.07003050  0.14825983  0.46749295  1  0.014774  0  0.083211  0.106974  0  1.010583  0
H  H35  1  0.39866598  0.42993161  0.86939377  1  0.100617  0  0.103239  0.112805  0  1.021086  0
H  H36  1  0.15600426  0.07805057  0.50657095  1  0.031246  0  0.087236  0.116112  0  1.016325  0
H  H37  1  0.27655439  0.23214440  0.56808691  1  0.079015  0  0.114561  0.096359  0  0.959394  0
H  H38  1  0.16364931  0.26119791  0.53746203  1  0.053277  0  0.099094  0.057355  0  1.014552  0
H  H39  1  0.23369507  0.28263616  0.68658494  1  0.0686  0  0.083097  0.085337  0  1.022058  0
H  H40  1  0.12166898  0.31613489  0.65976018  1  -0.008883  0  0.084676  0.078119  0  0.989191  0
H  H41  1  0.19941378  0.12461676  0.65684808  1  0.02237  0  0.09046  0.118874  0  1.012926  0
H  H42  1  0.11703629  0.16543718  0.71908595  1  0.041709  0  0.090626  0.119563  0  0.995977  0
H  H43  1  0.08597038  0.15673519  0.63020455  1  -0.002065  0  0.083643  0.106077  0  1.013636  0
H  H44  1  0.73180969  0.73974197  0.38941407  1  0.074085  0  0.099833  0.072836  0  1.012356  0
H  H45  1  0.84976927  0.70418988  0.39066703  1  0.041602  0  0.097705  0.05728  0  0.985079  0
H  H46  1  0.63694844  0.22006745  0.53296966  1  0.098261  0  0.106362  0.129725  0  1.020127  0
H  H47  1  0.72887751  0.75277489  0.51938309  1  0.068483  0  0.094355  0.100596  0  0.992222  0
H  H48  1  0.84802213  0.72097838  0.52233756  1  0.001875  0  0.082961  0.073258  0  0.996995  0
H  H49  1  0.89031539  0.85578369  0.44555506  1  0.013176  0  0.079298  0.09979  0  1.013535  0
H  H50  1  0.83411622  0.88576613  0.52523085  1  0.036305  0  0.088571  0.11743  0  1.010316  0
H  H51  1  0.77050126  0.88899817  0.44711250  1  0.067418  0  0.090588  0.129313  0  1.005505  0
H  H52  1  0.30706165  0.74566118  0.44510823  1  0.087641  0  0.113899  0.094917  0  0.953487  0
H  H53  1  0.25882937  0.70677325  0.52573271  1  0.045367  0  0.10036  0.067057  0  0.989642  0
H  H54  1  0.14489642  0.77302666  0.39965584  1  -0.005424  0  0.091546  0.086699  0  0.971237  0
H  H55  1  0.09693258  0.73919984  0.48227566  1  0.023209  0  0.08461  0.073297  0  1.008406  0
H  H56  1  0.22953889  0.89688276  0.45933726  1  0.069161  0  0.089652  0.122664  0  1.009837  0
H  H57  1  0.40651339  0.77132113  0.60754080  1  0.080182  0  0.104378  0.120571  0  1.028124  0
H  H58  1  0.10721715  0.90316453  0.47696548  1  0.008694  0  0.085213  0.109387  0  1.023703  0
H  H59  1  0.18327798  0.85911677  0.54092577  1  0.006391  0  0.086968  0.116233  0  1.02765  0
H  H60  1  0.70901704  0.32759108  0.66827075  1  0.095377  0  0.111985  0.089219  0  0.950578  0
H  H61  1  0.82253218  0.37313983  0.66025215  1  0.048443  0  0.095176  0.049952  0  1.012979  0
H  H62  1  0.76219143  0.19728627  0.59771328  1  0.047432  0  0.098649  0.100027  0  0.991291  0
H  H63  1  0.87619286  0.23934337  0.59204587  1  -0.024543  0  0.087624  0.079383  0  0.98812  0
H  H64  1  0.88593020  0.23081281  0.72465658  1  0.013967  0  0.085687  0.110723  0  1.002148  0
H  H65  1  0.86194982  0.12586515  0.69013461  1  0.043434  0  0.090068  0.118782  0  1.00568  0
H  H66  1  0.77093455  0.18879888  0.72989231  1  0.038711  0  0.088438  0.11259  0  1.005093  0
H  H67  1  0.59089251  0.77837800  0.42740824  1  0.070871  0  0.095896  0.115319  0  1.04517  0
H  H68  1  0.36184637  0.23188626  0.45056087  1  0.07507  0  0.095651  0.11095  0  1.061324  0
H  H69  1  0.06653292  0.36709782  0.55844063  1  0.07621  0  0.105853  0.124888  0  1.047896  0
C  C70  1  0.50511543  0.33317524  0.48579793  1  1.585069  0  0.211902  0.591585  0  4.176355  0
C  C71  1  0.89480450  0.42842492  0.54037917  1  -0.008651  0  -0.118652  -0.344976  0  3.964858  0
C  C72  1  0.19855185  0.42674915  0.53198674  1  1.067465  0  0.220881  0.429045  0  4.065851  0
C  C73  1  0.80021400  0.55774113  0.46670498  1  1.065697  0  0.224084  0.440813  0  4.059644  0
C  C74  1  0.19623125  0.56234086  0.47230677  1  1.119012  0  0.221944  0.436758  0  4.072128  0
C  C75  1  0.79737668  0.43085511  0.53734809  1  1.087678  0  0.221332  0.433003  0  4.076679  0
C  C76  1  0.04969632  0.49259816  0.50244718  1  -0.07481  0  0.01119  0.159986  0  4.001618  0
C  C77  1  0.94622105  0.49309594  0.50338984  1  -0.01652  0  0.009603  0.159536  0  4.011393  0
C  C78  1  0.49384528  0.48877848  0.63599223  1  1.611718  0  0.20359  0.592657  0  4.18851  0
C  C79  1  0.49341497  0.51749140  0.36312221  1  1.644541  0  0.201309  0.58828  0  4.22383  0
C  C80  1  0.59209111  0.51899918  0.74310495  1  -0.219101  0  -0.036314  0.059938  0  3.858185  0
C  C81  1  0.50106163  0.66703476  0.51672964  1  1.604316  0  0.218886  0.601114  0  4.161284  0
C  C82  1  0.46360507  0.43289741  0.25223391  1  -0.279118  0  -0.035767  0.05515  0  3.868703  0
C  C83  1  0.54948335  0.56791555  0.24104250  1  -0.169993  0  -0.036518  0.058479  0  3.871845  0
C  C84  1  0.43528701  0.46880416  0.76297818  1  -0.245489  0  -0.038249  0.060626  0  3.863659  0
C  C85  1  0.60984512  0.50875362  0.81409399  1  -0.010516  0  -0.094401  -0.160741  0  3.973561  0
C  C86  1  0.48113876  0.41624678  0.18189238  1  0.069863  0  -0.08969  -0.150699  0  3.968682  0
C  C87  1  0.56886913  0.55236922  0.17082711  1  0.0092  0  -0.089756  -0.152717  0  3.963165  0
C  C88  1  0.45327755  0.45402706  0.83359862  1  0.054917  0  -0.094073  -0.159343  0  3.980208  0
C  C89  1  0.54146348  0.47197893  0.85915416  1  -0.01206  0  -0.005036  0.047695  0  4.017245  0
C  C90  1  0.53594506  0.47501867  0.14129318  1  -0.035959  0  -0.006351  0.038681  0  4.012304  0
C  C91  1  0.50603979  0.49474966  0.71437042  1  0.067539  0  -0.015268  -0.077409  0  3.86676  0
C  C92  1  0.49940752  0.23437874  0.49100857  1  -0.078914  0  -0.017999  0.019481  0  4.015521  0
C  C93  1  0.50000143  0.50735222  0.28449919  1  0.051016  0  -0.00775  -0.054678  0  3.878041  0
C  C94  1  0.55523217  0.45771639  0.06753550  1  0.94836  0  0.241987  0.251062  0  3.995205  0
C  C95  1  0.55821317  0.45626615  0.93355470  1  0.958609  0  0.239473  0.247711  0  4.00126  0
C  C96  1  0.56588268  0.09490952  0.52881465  1  0.444501  0  0.082013  0.222054  0  4.058525  0
C  C97  1  0.43951121  0.90284078  0.56580386  1  0.457018  0  0.083922  0.227161  0  4.054324  0
C  C98  1  0.54075479  0.90501412  0.46279476  1  0.494061  0  0.081994  0.228322  0  4.068057  0
C  C99  1  0.41228348  0.09972692  0.47881093  1  0.414418  0  0.080733  0.216668  0  4.053718  0
C  C100  1  0.57379800  0.18609424  0.51898512  1  0.059283  0  -0.103887  -0.231687  0  3.980868  0
C  C101  1  0.44472371  0.81025236  0.56811209  1  -0.067367  0  -0.117462  -0.275623  0  4.018397  0
C  C102  1  0.54900223  0.81311356  0.46643829  1  -0.031886  0  -0.112278  -0.246998  0  4.00251  0
C  C103  1  0.49982044  0.76609500  0.51850871  1  -0.047393  0  -0.015542  0.026392  0  4.025258  0
C  C104  1  0.41854674  0.19164704  0.47151582  1  0.023689  0  -0.115892  -0.26197  0  4.031951  0
C  C105  1  0.63247284  0.02850464  0.62978629  1  0.422037  0  -0.068347  0.039945  0  3.905445  0
C  C106  1  0.71251768  0.96762931  0.65089459  1  0.024408  0  -0.166912  -0.129062  0  3.989173  0
C  C107  1  0.71136366  0.94797957  0.72967212  1  -0.066887  0  -0.243507  -0.354783  0  3.991214  0
C  C108  1  0.36850260  0.90924114  0.68126297  1  0.404918  0  -0.063883  0.030398  0  3.894617  0
C  C109  1  0.27327481  0.86524341  0.68316456  1  -0.022372  0  -0.168274  -0.1397  0  3.98404  0
C  C110  1  0.19241648  0.93094380  0.67393636  1  -0.080841  0  -0.246608  -0.358175  0  3.987015  0
C  C111  1  0.53716687  0.98301563  0.35288062  1  0.438423  0  -0.068555  0.044494  0  3.889261  0
C  C112  1  0.58038273  0.06735851  0.32312989  1  -0.001352  0  -0.169782  -0.131743  0  3.975669  0
C  C113  1  0.53234869  0.09957387  0.25649999  1  -0.085048  0  -0.246466  -0.352495  0  3.991423  0
C  C114  1  0.48590328  0.04971640  0.50860988  1  0.100988  0  -0.018521  -0.099289  0  3.977933  0
C  C115  1  0.28878201  0.08797694  0.39582989  1  0.437169  0  -0.065597  0.031118  0  3.886604  0
C  C116  1  0.20407650  0.14711246  0.41133571  1  -0.002956  0  -0.170623  -0.142232  0  3.98469  0
C  C117  1  0.12830301  0.10232231  0.45646069  1  -0.05424  0  -0.246049  -0.35293  0  3.979226  0
C  C118  1  0.21652100  0.27703516  0.57600676  1  0.386111  0  -0.059081  0.039254  0  3.836974  0
C  C119  1  0.17801347  0.26725248  0.65047669  1  -0.022231  0  -0.175292  -0.144174  0  3.986052  0
C  C120  1  0.14299363  0.17345604  0.66488900  1  -0.043585  0  -0.24192  -0.349249  0  3.970442  0
C  C121  1  0.78438167  0.70694222  0.42212322  1  0.378073  0  -0.060741  0.037875  0  3.862534  0
C  C122  1  0.79570841  0.75567695  0.49003908  1  -0.027985  0  -0.173211  -0.145043  0  3.974277  0
C  C123  1  0.82427212  0.85172708  0.47596342  1  -0.079922  0  -0.243696  -0.348936  0  3.954607  0
C  C124  1  0.24549555  0.71428822  0.46948103  1  0.400364  0  -0.060594  0.047625  0  3.843939  0
C  C125  1  0.48615177  0.95161755  0.51201384  1  0.068485  0  -0.024399  -0.116699  0  3.995951  0
C  C126  1  0.15812844  0.76972584  0.45616674  1  0.00527  0  -0.174688  -0.149236  0  4.011219  0
C  C127  1  0.17023236  0.86238426  0.48456541  1  -0.062976  0  -0.243818  -0.353718  0  3.955743  0
C  C128  1  0.77268479  0.32983597  0.63512090  1  0.37771  0  -0.060006  0.037082  0  3.861244  0
C  C129  1  0.81260616  0.23701189  0.62546068  1  0.021312  0  -0.168839  -0.143982  0  3.973112  0
C  C130  1  0.83416446  0.19328865  0.69635935  1  -0.081731  0  -0.240236  -0.349917  0  3.975556  0
C  C131  1  0.10095148  0.42325600  0.53323120  1  0.033615  0  -0.112744  -0.335152  0  3.959026  0
C  C132  1  0.89750505  0.55946856  0.46690718  1  0.090768  0  -0.114012  -0.334647  0  3.964994  0
C  C133  1  0.09918933  0.56226894  0.47031743  1  0.029206  0  -0.106347  -0.319062  0  3.944846  0
I  I134  1  0.70011878  0.58225763  0.68408708  1  0.121027  0  0.073288  -0.02055  0  1.488288  0
I  I135  1  0.38132096  0.33835137  0.30751779  1  0.11565  0  0.087799  -0.009475  0  1.50873  0
I  I136  1  0.59182582  0.69091440  0.27876527  1  0.104681  0  0.080563  -0.026137  0  1.452987  0
I  I137  1  0.29349944  0.45388811  0.73831290  1  0.12792  0  0.071826  -0.030458  0  1.518754  0
N  N138  1  0.50867044  0.39223256  0.96800563  1  -0.528653  0  -0.161551  -0.156098  0  3.206062  0
N  N139  1  0.62617334  0.50040111  0.03347516  1  -0.585356  0  -0.15968  -0.152603  0  3.194382  0
N  N140  1  0.50697367  0.39361205  0.03673829  1  -0.581893  0  -0.154308  -0.139217  0  3.215946  0
N  N141  1  0.62691647  0.50000470  0.96455364  1  -0.521102  0  -0.157112  -0.144538  0  3.210456  0
N  N142  1  0.24563171  0.49617214  0.50315482  1  -1.234093  0  -0.320855  -0.392829  0  3.392814  0
N  N143  1  0.75065549  0.49356992  0.50007673  1  -1.254314  0  -0.327011  -0.404416  0  3.407504  0
O  O144  1  0.58564087  0.36629992  0.47859741  1  -1.145983  0  -0.314808  -0.531736  0  2.34231  0
O  O145  1  0.39212873  0.95180423  0.61500095  1  -1.070605  0  -0.190317  -0.214163  0  2.527453  0
O  O146  1  0.59109368  0.95046961  0.41140472  1  -1.082494  0  -0.206977  -0.247252  0  2.507315  0
O  O147  1  0.33662508  0.05349239  0.45665228  1  -1.079406  0  -0.194637  -0.223135  0  2.522413  0
O  O148  1  0.25393127  0.36356814  0.55932338  1  -1.060208  0  -0.1571  -0.193314  0  2.570689  0
O  O149  1  0.74762039  0.61878056  0.43359674  1  -1.059789  0  -0.159267  -0.198934  0  2.554324  0
O  O150  1  0.24673636  0.62649158  0.43968993  1  -1.068104  0  -0.185215  -0.237559  0  2.503885  0
O  O151  1  0.74187127  0.37226287  0.57089849  1  -1.071972  0  -0.15852  -0.196079  0  2.563158  0
O  O152  1  0.42142643  0.63162510  0.51421993  1  -1.158125  0  -0.306359  -0.539418  0  2.399436  0
O  O153  1  0.58009729  0.62820700  0.51595424  1  -1.161637  0  -0.312411  -0.55455  0  2.385054  0
O  O154  1  0.42765133  0.37504095  0.49083340  1  -1.171205  0  -0.320354  -0.565687  0  2.439466  0
O  O155  1  0.56759952  0.46853820  0.60175745  1  -1.165443  0  -0.31566  -0.552461  0  2.404757  0
O  O156  1  0.41318197  0.52073161  0.39158115  1  -1.150735  0  -0.310078  -0.539137  0  2.342717  0
O  O157  1  0.57208564  0.51890637  0.39193933  1  -1.156353  0  -0.31007  -0.53876  0  2.343462  0
O  O158  1  0.41312008  0.50037886  0.61194308  1  -1.154141  0  -0.310101  -0.530344  0  2.373391  0
O  O159  1  0.64092376  0.04773409  0.55573901  1  -1.071726  0  -0.208072  -0.246612  0  2.507408  0
