# generated using pymatgen
data_YbH11C12NO9
_symmetry_space_group_name_H-M   'P 1'
_cell_length_a   7.24705481
_cell_length_b   10.59100183
_cell_length_c   12.62144729
_cell_angle_alpha   82.44632503
_cell_angle_beta   81.57166942
_cell_angle_gamma   86.71566187
_symmetry_Int_Tables_number   1
_chemical_formula_structural   YbH11C12NO9
_chemical_formula_sum   'Yb2 H22 C24 N2 O18'
_cell_volume   949.24851653
_cell_formula_units_Z   2
loop_
 _symmetry_equiv_pos_site_id
 _symmetry_equiv_pos_as_xyz
  1  'x, y, z'
loop_
 _atom_site_type_symbol
 _atom_site_label
 _atom_site_symmetry_multiplicity
 _atom_site_fract_x
 _atom_site_fract_y
 _atom_site_fract_z
 _atom_site_occupancy
 _atom_site_pbe_bader_charge
 _atom_site_pbe_bader_spin_density
 _atom_site_pbe_cm5_charge
 _atom_site_pbe_ddec_charge
 _atom_site_pbe_ddec_spin_density
 _atom_site_pbe_ddec_sum_bond_order
 _atom_site_pbe_magmom
Yb  Yb0  1  0.76065529  0.77296602  0.45336858  1  2.171177  0  1.581759  2.05287  0  2.139316  0
Yb  Yb1  1  0.23936122  0.22703309  0.54664628  1  2.17077  0  1.581825  2.053262  0  2.138845  0
H  H2  1  0.61070462  0.52874403  0.42598056  1  0.627888  0  0.338381  0.43238  0  0.84892  0
H  H3  1  0.38961431  0.47132340  0.57373500  1  0.626778  0  0.338452  0.432751  0  0.848698  0
H  H4  1  0.44355283  0.62844373  0.39533858  1  0.674121  0  0.303151  0.41563  0  0.917502  0
H  H5  1  0.55647216  0.37153030  0.60464236  1  0.673938  0  0.303333  0.416139  0  0.916863  0
H  H6  1  0.10554217  0.90245629  0.48604303  1  0.67523  0  0.307663  0.425658  0  0.890746  0
H  H7  1  0.89445897  0.09754311  0.51395488  1  0.675168  0  0.307633  0.42564  0  0.890785  0
H  H8  1  0.14565750  0.77147144  0.43197892  1  0.655962  0  0.296009  0.396318  0  0.945613  0
H  H9  1  0.85435662  0.22852109  0.56803124  1  0.655813  0  0.295925  0.396235  0  0.94578  0
H  H10  1  0.62600611  0.87521388  0.24765427  1  0.630126  0  0.344735  0.43591  0  0.838797  0
H  H11  1  0.37402903  0.12479981  0.75234332  1  0.629954  0  0.344797  0.436033  0  0.838643  0
H  H12  1  0.81482546  0.79378012  0.22762605  1  0.639245  0  0.325673  0.418692  0  0.884491  0
H  H13  1  0.18520456  0.20622597  0.77237113  1  0.638895  0  0.325661  0.418708  0  0.884546  0
H  H14  1  0.62779864  0.73986246  0.83829957  1  0.125788  0  0.113664  0.120221  0  0.978056  0
H  H15  1  0.37220243  0.26013800  0.16169268  1  0.125792  0  0.113702  0.120255  0  0.977988  0
H  H16  1  0.57205756  0.73404187  0.04254419  1  0.053458  0  0.101467  0.100873  0  0.991598  0
H  H17  1  0.42788464  0.26596316  0.95745656  1  0.053715  0  0.101413  0.100753  0  0.9917  0
H  H18  1  0.61391183  0.61891242  0.22319436  1  0.059549  0  0.097764  0.082784  0  1.062154  0
H  H19  1  0.38600904  0.38112205  0.77680848  1  0.059397  0  0.097811  0.082951  0  1.062319  0
H  H20  1  0.76674471  0.40282929  0.23875463  1  0.077244  0  0.108838  0.109887  0  0.971507  0
H  H21  1  0.23322914  0.59720598  0.76125871  1  0.077403  0  0.10883  0.109999  0  0.971275  0
H  H22  1  0.87270821  0.29663960  0.07394056  1  0.058874  0  0.106493  0.115006  0  0.987739  0
H  H23  1  0.12728008  0.70338788  0.92608341  1  0.058412  0  0.106378  0.114778  0  0.987774  0
C  C24  1  0.88045987  0.37261235  0.68888830  1  1.613551  0  0.238492  0.627357  0  4.135707  0
C  C25  1  0.11954568  0.62736087  0.31113715  1  1.612253  0  0.238514  0.627497  0  4.134961  0
C  C26  1  0.82428484  0.45313083  0.77995268  1  0.567262  0  0.129988  0.109607  0  3.964873  0
C  C27  1  0.17569748  0.54685700  0.22005349  1  0.56755  0  0.130155  0.109779  0  3.964816  0
C  C28  1  0.74979649  0.58044803  0.76202239  1  0.026876  0  -0.016947  -0.101273  0  3.964808  0
C  C29  1  0.25021227  0.41954083  0.23797986  1  0.026765  0  -0.017138  -0.101512  0  3.96491  0
C  C30  1  0.74426971  0.64646126  0.65122774  1  1.535737  0  0.179508  0.571638  0  4.25529  0
C  C31  1  0.25575829  0.35353238  0.34877400  1  1.535338  0  0.179587  0.57182  0  4.254563  0
C  C32  1  0.68754869  0.64296793  0.85073098  1  -0.140235  0  -0.053912  -0.075665  0  3.909508  0
C  C33  1  0.31245197  0.35703915  0.14926304  1  -0.140039  0  -0.053917  -0.075662  0  3.909522  0
C  C34  1  0.70299238  0.58181633  0.95541720  1  0.045144  0  -0.005988  0.029649  0  4.011325  0
C  C35  1  0.29697068  0.41818972  0.04458010  1  0.04473  0  -0.006092  0.029522  0  4.011256  0
C  C36  1  0.64085881  0.63946372  0.05032585  1  -0.061103  0  -0.086001  -0.117859  0  3.980116  0
C  C37  1  0.35908197  0.36054151  0.94966391  1  -0.060771  0  -0.085924  -0.117714  0  3.98016  0
C  C38  1  0.66317018  0.57543659  0.15016781  1  -0.044572  0  -0.094476  -0.087075  0  4.0233  0
C  C39  1  0.33675958  0.42458939  0.84983194  1  -0.044286  0  -0.094461  -0.087191  0  4.023722  0
C  C40  1  0.74828214  0.45151989  0.15912291  1  -0.003566  0  -0.079557  -0.047573  0  3.980245  0
C  C41  1  0.25168067  0.54851345  0.84089155  1  -0.004537  0  -0.079456  -0.047427  0  3.980241  0
C  C42  1  0.80711674  0.39202098  0.06852043  1  -0.007344  0  -0.084832  -0.158467  0  3.949226  0
C  C43  1  0.19285241  0.60800000  0.93149391  1  -0.006552  0  -0.084756  -0.158284  0  3.949118  0
C  C44  1  0.78536566  0.45504720  0.96460342  1  0.48676  0  0.11325  0.204909  0  4.021309  0
C  C45  1  0.21459581  0.54496244  0.03540635  1  0.487172  0  0.113236  0.204839  0  4.02122  0
C  C46  1  0.58094389  0.03656249  0.51273086  1  1.589  0  0.2236  0.505455  0  4.218969  0
C  C47  1  0.41905726  0.96341395  0.48727405  1  1.617756  0  0.223734  0.505712  0  4.218367  0
N  N48  1  0.84309285  0.39280238  0.87666611  1  -1.192433  0  -0.32288  -0.350544  0  3.310795  0
N  N49  1  0.15687886  0.60719948  0.12335305  1  -1.193064  0  -0.322924  -0.350489  0  3.310695  0
O  O50  1  0.75158099  0.33028228  0.64681232  1  -1.185464  0  -0.29619  -0.54127  0  2.233114  0
O  O51  1  0.24843617  0.66970640  0.35320033  1  -1.184411  0  -0.29617  -0.541179  0  2.232762  0
O  O52  1  0.05315707  0.34288323  0.66724178  1  -1.195836  0  -0.397422  -0.660484  0  2.303778  0
O  O53  1  0.94684124  0.65707171  0.33279478  1  -1.195607  0  -0.397455  -0.660734  0  2.303606  0
O  O54  1  0.83661416  0.59769849  0.57114256  1  -1.15579  0  -0.388494  -0.607662  0  2.204261  0
O  O55  1  0.16340568  0.40229142  0.42885469  1  -1.155669  0  -0.38857  -0.60784  0  2.204095  0
O  O56  1  0.65083171  0.75238546  0.63633260  1  -1.176285  0  -0.412635  -0.656881  0  2.161463  0
O  O57  1  0.34919102  0.24760325  0.36367799  1  -1.176064  0  -0.41265  -0.656995  0  2.160927  0
O  O58  1  0.53989679  0.13859679  0.55365928  1  -1.174471  0  -0.371519  -0.579292  0  2.30296  0
O  O59  1  0.46009621  0.86137646  0.44636406  1  -1.175023  0  -0.371663  -0.579379  0  2.302747  0
O  O60  1  0.74369475  0.98716954  0.48991880  1  -1.176144  0  -0.353148  -0.581234  0  2.299943  0
O  O61  1  0.25630019  0.01281728  0.51009116  1  -1.175986  0  -0.353089  -0.581275  0  2.299497  0
O  O62  1  0.56450781  0.61666376  0.42676770  1  -1.271603  0  -0.643113  -0.872237  0  2.098167  0
O  O63  1  0.43544882  0.38328886  0.57329085  1  -1.270508  0  -0.64364  -0.87324  0  2.097445  0
O  O64  1  0.04543182  0.82735197  0.46859546  1  -1.315295  0  -0.690808  -0.895058  0  2.098748  0
O  O65  1  0.95457088  0.17264462  0.53140021  1  -1.315067  0  -0.690685  -0.895036  0  2.098714  0
O  O66  1  0.75012741  0.85983889  0.26852270  1  -1.226725  0  -0.612416  -0.822386  0  1.989633  0
O  O67  1  0.24987960  0.14013339  0.73150193  1  -1.226139  0  -0.612489  -0.8226  0  1.989153  0
