# generated using pymatgen
data_Al4H9C38Cl3O22
_symmetry_space_group_name_H-M   'P 1'
_cell_length_a   6.68881110
_cell_length_b   17.92630612
_cell_length_c   21.04075177
_cell_angle_alpha   108.07209472
_cell_angle_beta   88.74714996
_cell_angle_gamma   91.32813754
_symmetry_Int_Tables_number   1
_chemical_formula_structural   Al4H9C38Cl3O22
_chemical_formula_sum   'Al4 H9 C38 Cl3 O22'
_cell_volume   2397.51270041
_cell_formula_units_Z   1
loop_
 _symmetry_equiv_pos_site_id
 _symmetry_equiv_pos_as_xyz
  1  'x, y, z'
loop_
 _atom_site_type_symbol
 _atom_site_label
 _atom_site_symmetry_multiplicity
 _atom_site_fract_x
 _atom_site_fract_y
 _atom_site_fract_z
 _atom_site_occupancy
 _atom_site_pbe_bader_charge
 _atom_site_pbe_bader_spin_density
 _atom_site_pbe_cm5_charge
 _atom_site_pbe_ddec_charge
 _atom_site_pbe_ddec_spin_density
 _atom_site_pbe_ddec_sum_bond_order
 _atom_site_pbe_magmom
Al  Al0  1  0.12171251  0.50016667  0.50049065  1  2.501799  0  0.407361  1.645218  0  2.580823  0
Al  Al1  1  0.62124136  0.49937055  0.49932445  1  2.50262  0  0.408611  1.647001  0  2.577867  0
Al  Al2  1  0.66069369  0.99992069  0.00041323  1  2.502768  0  0.407122  1.644124  0  2.580326  0
Al  Al3  1  0.16084968  0.00075821  0.00178142  1  2.502365  0  0.408314  1.644  0  2.5783  0
H  H4  1  0.14563679  0.25064669  0.66451683  1  0.111377  0  0.11885  0.127897  0  0.988482  0
H  H5  1  0.66466324  0.73295893  0.16456344  1  0.110657  0  0.117336  0.139917  0  0.973582  0
H  H6  1  0.12322604  0.84723901  0.25832135  1  0.106465  0  0.118054  0.141544  0  0.973048  0
H  H7  1  0.34074926  0.16563194  0.69282566  1  0.052874  0  0.100295  0.035177  0  0.961718  0
H  H8  1  0.45931585  0.36361147  0.81345321  1  0.071716  0  0.099921  0.038991  0  0.984564  0
H  H9  1  0.36481616  0.40590067  0.50762465  1  0.639267  0  0.360993  0.443049  0  0.83716  0
H  H10  1  0.87585255  0.60215658  0.51560660  1  0.621009  0  0.364712  0.447191  0  0.826908  0
H  H11  1  0.41710048  0.09387808  0.99286734  1  0.624681  0  0.3596  0.441772  0  0.837349  0
H  H12  1  0.90885068  0.89902059  0.96401048  1  0.607917  0  0.359985  0.441962  0  0.837102  0
C  C13  1  0.37075641  0.60765870  0.60380306  1  1.682206  0  0.277343  0.705534  0  4.174867  0
C  C14  1  0.38176223  0.57728760  0.42477844  1  1.685596  0  0.281546  0.721742  0  4.148125  0
C  C15  1  0.87475452  0.39327720  0.39635535  1  1.705784  0  0.279692  0.704295  0  4.172991  0
C  C16  1  0.86005852  0.42112185  0.57513074  1  1.682887  0  0.282089  0.718415  0  4.15207  0
C  C17  1  0.05429823  0.20307452  0.74285359  1  -0.037546  0  -0.002344  0.003871  0  3.958661  0
C  C18  1  0.91030164  0.20328703  0.79361731  1  0.145525  0  0.015884  0.061587  0  4.033269  0
C  C19  1  0.74185761  0.25190568  0.79979876  1  0.062213  0  0.038416  0.081581  0  3.971077  0
C  C20  1  0.71212355  0.29624580  0.75630653  1  0.034434  0  -0.009303  -0.080202  0  3.928234  0
C  C21  1  0.85942626  0.29539171  0.70626942  1  0.101573  0  0.023582  0.136639  0  4.049603  0
C  C22  1  0.02995071  0.24962035  0.70157964  1  0.007133  0  -0.060301  -0.14136  0  3.907268  0
C  C23  1  0.92876210  0.15825386  0.83741278  1  -0.374371  0  -0.020523  -0.017341  0  4.100376  0
C  C24  1  0.84541922  0.34024676  0.66187753  1  -0.407109  0  -0.013955  -0.018904  0  4.06395  0
C  C25  1  0.85468902  0.37710653  0.62205561  1  0.223089  0  -0.016492  -0.153376  0  3.886621  0
C  C26  1  0.92593030  0.12258549  0.87817270  1  0.203752  0  -0.01251  -0.142415  0  3.87789  0
C  C27  1  0.90396797  0.16809516  0.16761570  1  0.238484  0  -0.000885  -0.146644  0  3.839445  0
C  C28  1  0.89506794  0.22111948  0.22068921  1  -0.355888  0  -0.001571  0.037914  0  4.228067  0
C  C29  1  0.88611944  0.27948384  0.27941415  1  -0.204899  0  -0.003196  0.031528  0  4.229233  0
C  C30  1  0.87814297  0.33216809  0.33271628  1  0.139185  0  0.002311  -0.13754  0  3.836609  0
C  C31  1  0.37566319  0.66868339  0.66748141  1  0.241378  0  0.000321  -0.139388  0  3.833942  0
C  C32  1  0.38604203  0.72089397  0.72101758  1  -0.355113  0  -0.003382  0.032358  0  4.22551  0
C  C33  1  0.39663655  0.77855040  0.78011285  1  -0.34865  0  -0.00143  0.039151  0  4.228635  0
C  C34  1  0.40623796  0.83086791  0.83359011  1  0.286521  0  -0.003027  -0.148647  0  3.843774  0
C  C35  1  0.54535732  0.74042137  0.20193630  1  0.064122  0  -0.085551  -0.202612  0  3.925516  0
C  C36  1  0.39418009  0.79533800  0.20632095  1  0.084438  0  0.011566  0.170994  0  4.107981  0
C  C37  1  0.24013341  0.80486667  0.25478442  1  0.054866  0  -0.084659  -0.202295  0  3.926153  0
C  C38  1  0.23893789  0.76038740  0.29832529  1  0.070063  0  0.026923  0.131011  0  4.030423  0
C  C39  1  0.38856176  0.70430201  0.29487451  1  0.168805  0  -0.005709  0.005152  0  4.067051  0
C  C40  1  0.54092082  0.69552550  0.24518833  1  0.038951  0  0.026786  0.129529  0  4.033039  0
C  C41  1  0.39665540  0.84049281  0.16177922  1  -0.439768  0  -0.016438  -0.026704  0  4.062116  0
C  C42  1  0.38654342  0.65959663  0.33929994  1  -0.429695  0  -0.029119  -0.014902  0  4.136802  0
C  C43  1  0.38495053  0.62147347  0.37817598  1  0.207911  0  -0.023882  -0.168955  0  3.906877  0
C  C44  1  0.39860939  0.87884400  0.12307255  1  0.179096  0  -0.026649  -0.176584  0  3.927363  0
C  C45  1  0.40233382  0.92305752  0.07633640  1  1.693373  0  0.280063  0.718208  0  4.159684  0
C  C46  1  0.40990613  0.89216563  0.89698082  1  1.693909  0  0.279069  0.712832  0  4.163407  0
C  C47  1  0.92078563  0.07966668  0.92586398  1  1.670808  0  0.279403  0.71515  0  4.154964  0
C  C48  1  0.90886657  0.10621222  0.10457542  1  1.683664  0  0.282115  0.709083  0  4.167682  0
C  C49  1  0.23441145  0.15332394  0.73030812  1  0.970218  0  0.096739  0.258148  0  3.989742  0
C  C50  1  0.52815191  0.34342113  0.76256308  1  0.954407  0  0.098627  0.274709  0  3.965454  0
Cl  Cl51  1  0.56626657  0.25334372  0.86137937  1  -0.159757  0  0.03833  -0.032382  0  1.548939  0
Cl  Cl52  1  0.72371825  0.62735093  0.23809701  1  -0.165546  0  0.009613  -0.055492  0  1.487771  0
Cl  Cl53  1  0.05222185  0.77403730  0.35822984  1  -0.174617  0  0.007059  -0.059251  0  1.48551  0
O  O54  1  0.55023873  0.55771155  0.44107103  1  -1.234047  0  -0.224023  -0.577342  0  2.28049  0
O  O55  1  0.19874805  0.58328889  0.58071083  1  -1.227749  0  -0.225226  -0.577718  0  2.27797  0
O  O56  1  0.03279981  0.43692705  0.55551139  1  -1.231803  0  -0.224786  -0.583262  0  2.28084  0
O  O57  1  0.21025798  0.56266125  0.44605677  1  -1.234076  0  -0.224362  -0.580473  0  2.285419  0
O  O58  1  0.04460195  0.41823603  0.42094841  1  -1.227633  0  -0.221442  -0.569109  0  2.285663  0
O  O59  1  0.54047368  0.58518738  0.57700806  1  -1.231522  0  -0.22614  -0.581318  0  2.286996  0
O  O60  1  0.36876984  0.45334985  0.49470442  1  -1.43591  0  -0.445462  -0.996703  0  2.187831  0
O  O61  1  0.70347346  0.41515348  0.42188663  1  -1.22375  0  -0.222707  -0.572148  0  2.281629  0
O  O62  1  0.69202020  0.43915793  0.55730443  1  -1.234471  0  -0.222971  -0.577529  0  2.276022  0
O  O63  1  0.87341190  0.54592112  0.50742324  1  -1.418564  0  -0.445615  -1.000669  0  2.199729  0
O  O64  1  0.23980206  0.91626845  0.92262012  1  -1.23182  0  -0.225835  -0.584876  0  2.282654  0
O  O65  1  0.57428104  0.93949020  0.05673830  1  -1.238133  0  -0.223842  -0.575464  0  2.288748  0
O  O66  1  0.74011926  0.08221790  0.07858346  1  -1.234138  0  -0.220491  -0.569175  0  2.289185  0
O  O67  1  0.58140179  0.91542919  0.92134478  1  -1.236137  0  -0.227071  -0.585224  0  2.277432  0
O  O68  1  0.74726383  0.06211221  0.94371190  1  -1.229986  0  -0.226782  -0.586539  0  2.282125  0
O  O69  1  0.23397399  0.94052635  0.05834249  1  -1.230458  0  -0.223791  -0.575235  0  2.282441  0
O  O70  1  0.41338121  0.04667272  0.00615147  1  -1.422211  0  -0.445153  -0.994522  0  2.18381  0
O  O71  1  0.08863105  0.06438073  0.94596903  1  -1.232018  0  -0.226955  -0.583194  0  2.274428  0
O  O72  1  0.08029007  0.08223513  0.08059811  1  -1.228074  0  -0.220773  -0.569219  0  2.283294  0
O  O73  1  0.90896736  0.95342813  0.99187404  1  -1.406525  0  -0.445341  -0.995223  0  2.18739  0
O  O74  1  0.26836384  0.10298738  0.75634246  1  -1.039775  0  -0.239773  -0.314578  0  2.128468  0
O  O75  1  0.45377706  0.35869999  0.71559225  1  -1.048146  0  -0.239162  -0.32276  0  2.12806  0
