# generated using pymatgen
data_LiH8C4BrO
_symmetry_space_group_name_H-M   'P 1'
_cell_length_a   7.60990372
_cell_length_b   11.46900742
_cell_length_c   14.34298737
_cell_angle_alpha   90.00004083
_cell_angle_beta   90.00036914
_cell_angle_gamma   90.00024721
_symmetry_Int_Tables_number   1
_chemical_formula_structural   LiH8C4BrO
_chemical_formula_sum   'Li8 H64 C32 Br8 O8'
_cell_volume   1251.82785779
_cell_formula_units_Z   8
loop_
 _symmetry_equiv_pos_site_id
 _symmetry_equiv_pos_as_xyz
  1  'x, y, z'
loop_
 _atom_site_type_symbol
 _atom_site_label
 _atom_site_symmetry_multiplicity
 _atom_site_fract_x
 _atom_site_fract_y
 _atom_site_fract_z
 _atom_site_occupancy
 _atom_site_hle17_bader_spin_density
 _atom_site_hle17_ddec_charge
 _atom_site_hle17_ddec_spin_density
 _atom_site_hle17_ddec_sum_bond_order
 _atom_site_hle17_magmom
 _atom_site_hse06_10hf_bader_spin_density
 _atom_site_hse06_10hf_ddec_charge
 _atom_site_hse06_10hf_ddec_spin_density
 _atom_site_hse06_10hf_ddec_sum_bond_order
 _atom_site_hse06_10hf_magmom
 _atom_site_hse06_bader_spin_density
 _atom_site_hse06_ddec_charge
 _atom_site_hse06_ddec_spin_density
 _atom_site_hse06_ddec_sum_bond_order
 _atom_site_hse06_magmom
 _atom_site_pbe_bader_spin_density
 _atom_site_pbe_cm5_charge
 _atom_site_pbe_ddec_charge
 _atom_site_pbe_ddec_spin_density
 _atom_site_pbe_ddec_sum_bond_order
 _atom_site_pbe_magmom
Li  Li0  1  0.58960340  0.91365315  0.93089869  1  0  0.79053  0  0.485732  0  0  0.736695  0  0.60572  0  0  0.746356  0  0.59095  0  0  0.304112  0.729831  0  0.616156  0
Li  Li1  1  0.08960172  0.58634668  0.56909864  1  0  0.790497  0  0.485785  0  0  0.736645  0  0.605804  0  0  0.746306  0  0.591034  0  0  0.304118  0.729783  0  0.61624  0
Li  Li2  1  0.41038286  0.58634709  0.43089576  1  0  0.790541  0  0.485691  0  0  0.736708  0  0.605681  0  0  0.746369  0  0.59091  0  0  0.304122  0.729846  0  0.616119  0
Li  Li3  1  0.91039330  0.91365933  0.06910109  1  0  0.790467  0  0.485826  0  0  0.736623  0  0.605833  0  0  0.746285  0  0.591062  0  0  0.304105  0.72976  0  0.616275  0
Li  Li4  1  0.41039616  0.08634638  0.06910139  1  0  0.790522  0  0.485745  0  0  0.73669  0  0.605727  0  0  0.74635  0  0.590957  0  0  0.304113  0.729827  0  0.616172  0
Li  Li5  1  0.91039784  0.41365458  0.43090145  1  0  0.790485  0  0.485801  0  0  0.736641  0  0.605809  0  0  0.746302  0  0.591038  0  0  0.304113  0.729779  0  0.61625  0
Li  Li6  1  0.58961669  0.41365156  0.56910432  1  0  0.790522  0  0.485723  0  0  0.736707  0  0.605682  0  0  0.746368  0  0.590911  0  0  0.304118  0.729844  0  0.616128  0
Li  Li7  1  0.08960626  0.08634107  0.93089900  1  0  0.790474  0  0.485815  0  0  0.736633  0  0.605823  0  0  0.746294  0  0.591052  0  0  0.304108  0.729769  0  0.616261  0
H  H8  1  0.38320102  0.76192821  0.74574091  1  0  0.052001  0  0.944808  0  0  0.065906  0  1.008925  0  0  0.066576  0  1.008521  0  0  0.08831  0.065286  0  1.009393  0
H  H9  1  0.88320338  0.73807073  0.75425882  1  0  0.051986  0  0.944806  0  0  0.065897  0  1.008923  0  0  0.066565  0  1.008518  0  0  0.088313  0.065291  0  1.009379  0
H  H10  1  0.61679351  0.73807099  0.24574086  1  0  0.052012  0  0.944792  0  0  0.065882  0  1.008942  0  0  0.066552  0  1.008534  0  0  0.08829  0.065273  0  1.009399  0
H  H11  1  0.11679520  0.76192673  0.25425358  1  0  0.052034  0  0.944913  0  0  0.065965  0  1.008993  0  0  0.066638  0  1.008588  0  0  0.088328  0.065338  0  1.009468  0
H  H12  1  0.61679722  0.23807131  0.25425917  1  0  0.052074  0  0.944738  0  0  0.065938  0  1.008891  0  0  0.066606  0  1.008485  0  0  0.088324  0.065321  0  1.009354  0
H  H13  1  0.11679487  0.26192966  0.24574197  1  0  0.052049  0  0.944757  0  0  0.065935  0  1.008887  0  0  0.066604  0  1.008485  0  0  0.088318  0.065327  0  1.009339  0
H  H14  1  0.38320736  0.26192854  0.75425992  1  0  0.052029  0  0.944738  0  0  0.065937  0  1.008856  0  0  0.066608  0  1.008446  0  0  0.088302  0.065298  0  1.009344  0
H  H15  1  0.88320699  0.23807367  0.74574511  1  0  0.052074  0  0.944821  0  0  0.065964  0  1.008951  0  0  0.066635  0  1.008545  0  0  0.088336  0.065348  0  1.009413  0
H  H16  1  0.26005832  0.84750217  0.82879874  1  0  0.063143  0  0.956023  0  0  0.072129  0  1.028193  0  0  0.072852  0  1.027344  0  0  0.099487  0.071487  0  1.02894  0
H  H17  1  0.76005781  0.65249641  0.67120127  1  0  0.063126  0  0.956063  0  0  0.072124  0  1.028225  0  0  0.072843  0  1.027379  0  0  0.099481  0.071481  0  1.028982  0
H  H18  1  0.73993722  0.65249797  0.32879837  1  0  0.063174  0  0.956012  0  0  0.072164  0  1.028164  0  0  0.072885  0  1.027318  0  0  0.099505  0.071523  0  1.028918  0
H  H19  1  0.23994107  0.84750184  0.17119860  1  0  0.063166  0  0.955981  0  0  0.072158  0  1.028149  0  0  0.072881  0  1.027304  0  0  0.099489  0.071513  0  1.028903  0
H  H20  1  0.73993993  0.15249823  0.17120135  1  0  0.063148  0  0.956088  0  0  0.072131  0  1.028245  0  0  0.072853  0  1.027394  0  0  0.099499  0.071488  0  1.028996  0
H  H21  1  0.23994043  0.34750398  0.32880021  1  0  0.06314  0  0.956008  0  0  0.072133  0  1.028162  0  0  0.072854  0  1.027318  0  0  0.099482  0.071486  0  1.02892  0
H  H22  1  0.26006234  0.34750068  0.67120172  1  0  0.063179  0  0.956007  0  0  0.072167  0  1.02817  0  0  0.072888  0  1.027324  0  0  0.099511  0.071521  0  1.028922  0
H  H23  1  0.76005717  0.15249943  0.82880009  1  0  0.063172  0  0.955981  0  0  0.072167  0  1.028141  0  0  0.072889  0  1.027294  0  0  0.099502  0.071522  0  1.028899  0
H  H24  1  0.16545040  0.62057654  0.79317901  1  0  0.080821  0  0.947378  0  0  0.097688  0  1.011342  0  0  0.098742  0  1.011296  0  0  0.097858  0.096858  0  1.011486  0
H  H25  1  0.66545308  0.87942177  0.70681997  1  0  0.080838  0  0.947315  0  0  0.097698  0  1.011264  0  0  0.098753  0  1.011217  0  0  0.097856  0.096872  0  1.011407  0
H  H26  1  0.83454470  0.87942183  0.29317979  1  0  0.080827  0  0.947294  0  0  0.097689  0  1.011237  0  0  0.098743  0  1.011193  0  0  0.097842  0.096862  0  1.011381  0
H  H27  1  0.33453966  0.62057216  0.20681401  1  0  0.080732  0  0.947269  0  0  0.097577  0  1.011229  0  0  0.098628  0  1.011182  0  0  0.097793  0.096749  0  1.01137  0
H  H28  1  0.83454784  0.37942212  0.20681968  1  0  0.080821  0  0.947315  0  0  0.097684  0  1.011262  0  0  0.098737  0  1.011215  0  0  0.09785  0.096855  0  1.011403  0
H  H29  1  0.33454384  0.12057775  0.29318012  1  0  0.080865  0  0.947247  0  0  0.097727  0  1.011186  0  0  0.09878  0  1.011141  0  0  0.097857  0.096898  0  1.011332  0
H  H30  1  0.16545485  0.12057682  0.70682029  1  0  0.080807  0  0.947296  0  0  0.09768  0  1.011229  0  0  0.098731  0  1.011184  0  0  0.097835  0.096851  0  1.011373  0
H  H31  1  0.66546253  0.37942998  0.79318468  1  0  0.080716  0  0.947219  0  0  0.097541  0  1.011207  0  0  0.098591  0  1.011161  0  0  0.097792  0.096714  0  1.011351  0
H  H32  1  0.16330671  0.67460393  0.90988553  1  0  0.075257  0  0.938983  0  0  0.094776  0  0.996497  0  0  0.095458  0  0.997341  0  0  0.091446  0.094195  0  0.996047  0
H  H33  1  0.66330895  0.82539350  0.59011344  1  0  0.075325  0  0.939015  0  0  0.094814  0  0.996533  0  0  0.095498  0  0.997379  0  0  0.091481  0.094236  0  0.996081  0
H  H34  1  0.83668981  0.82539367  0.40988629  1  0  0.075254  0  0.93895  0  0  0.094738  0  0.996503  0  0  0.095424  0  0.997348  0  0  0.091447  0.094161  0  0.996049  0
H  H35  1  0.33667975  0.67460468  0.09011031  1  0  0.075384  0  0.939127  0  0  0.094859  0  0.996619  0  0  0.095537  0  0.997466  0  0  0.091502  0.094279  0  0.99616  0
H  H36  1  0.83668891  0.32539559  0.09011316  1  0  0.075219  0  0.938957  0  0  0.094743  0  0.996455  0  0  0.095424  0  0.997299  0  0  0.091444  0.094162  0  0.996005  0
H  H37  1  0.33669061  0.17460515  0.40988595  1  0  0.07533  0  0.938999  0  0  0.094813  0  0.996521  0  0  0.095497  0  0.997367  0  0  0.091476  0.094233  0  0.996072  0
H  H38  1  0.16331237  0.17460411  0.59011380  1  0  0.075242  0  0.938922  0  0  0.094748  0  0.996454  0  0  0.095429  0  0.997297  0  0  0.091453  0.094168  0  0.996001  0
H  H39  1  0.66332375  0.32539746  0.90988838  1  0  0.075346  0  0.93922  0  0  0.09485  0  0.996672  0  0  0.095529  0  0.997519  0  0  0.091503  0.094272  0  0.996219  0
H  H40  1  0.37078465  0.51657139  0.93132141  1  0  0.063925  0  0.957999  0  0  0.083555  0  1.018965  0  0  0.083865  0  1.020173  0  0  0.089334  0.08326  0  1.018186  0
H  H41  1  0.87078501  0.98342752  0.56867758  1  0  0.063876  0  0.957966  0  0  0.083495  0  1.018946  0  0  0.083811  0  1.020149  0  0  0.089314  0.083198  0  1.018164  0
H  H42  1  0.62921476  0.98342798  0.43132293  1  0  0.063942  0  0.957896  0  0  0.083548  0  1.018896  0  0  0.083862  0  1.020101  0  0  0.089333  0.083257  0  1.018111  0
H  H43  1  0.12919818  0.51657500  0.06866598  1  0  0.063951  0  0.957913  0  0  0.083539  0  1.018915  0  0  0.083857  0  1.020115  0  0  0.089366  0.08325  0  1.018133  0
H  H44  1  0.62921360  0.48342988  0.06867937  1  0  0.063945  0  0.957941  0  0  0.083585  0  1.018902  0  0  0.083901  0  1.020105  0  0  0.089343  0.083289  0  1.018124  0
H  H45  1  0.12921192  0.01657200  0.43132181  1  0  0.06394  0  0.957912  0  0  0.083537  0  1.01892  0  0  0.083862  0  1.020115  0  0  0.089324  0.083239  0  1.018141  0
H  H46  1  0.37078611  0.01656980  0.56867924  1  0  0.063947  0  0.957939  0  0  0.083582  0  1.018905  0  0  0.083897  0  1.020109  0  0  0.089343  0.083286  0  1.018126  0
H  H47  1  0.87080401  0.48342627  0.93133341  1  0  0.063922  0  0.957941  0  0  0.083518  0  1.018947  0  0  0.083844  0  1.020142  0  0  0.089364  0.083229  0  1.018166  0
H  H48  1  0.43881635  0.52371242  0.81299890  1  0  0.07637  0  0.953213  0  0  0.091377  0  1.017578  0  0  0.092422  0  1.017959  0  0  0.088227  0.09057  0  1.017383  0
H  H49  1  0.93882073  0.97628756  0.68700032  1  0  0.076371  0  0.95315  0  0  0.091339  0  1.01757  0  0  0.092383  0  1.017952  0  0  0.088204  0.090535  0  1.017371  0
H  H50  1  0.56118031  0.97628684  0.31300019  1  0  0.076341  0  0.953232  0  0  0.091347  0  1.017612  0  0  0.09239  0  1.017994  0  0  0.088212  0.090542  0  1.017414  0
H  H51  1  0.06116915  0.52371594  0.18698849  1  0  0.076429  0  0.953255  0  0  0.091425  0  1.017601  0  0  0.092468  0  1.017982  0  0  0.088228  0.090622  0  1.017406  0
H  H52  1  0.56118058  0.47628624  0.18700189  1  0  0.076375  0  0.953206  0  0  0.091378  0  1.017589  0  0  0.092422  0  1.01797  0  0  0.088218  0.090571  0  1.017392  0
H  H53  1  0.06117883  0.02371458  0.31299906  1  0  0.076383  0  0.953221  0  0  0.091369  0  1.017609  0  0  0.092413  0  1.017993  0  0  0.088223  0.090565  0  1.017408  0
H  H54  1  0.43882188  0.02371181  0.68700199  1  0  0.076367  0  0.953226  0  0  0.09138  0  1.01759  0  0  0.092424  0  1.017972  0  0  0.088213  0.090574  0  1.017392  0
H  H55  1  0.93883698  0.47628533  0.81301089  1  0  0.076405  0  0.953367  0  0  0.091399  0  1.017729  0  0  0.092443  0  1.018113  0  0  0.088231  0.090598  0  1.017535  0
H  H56  1  0.58613894  0.65877845  0.97431565  1  0  0.041837  0  0.946478  0  0  0.051201  0  1.02321  0  0  0.051976  0  1.02194  0  0  0.099803  0.050526  0  1.024227  0
H  H57  1  0.08613705  0.84122050  0.52568445  1  0  0.041852  0  0.946478  0  0  0.051237  0  1.023199  0  0  0.052011  0  1.021929  0  0  0.099828  0.050559  0  1.024217  0
H  H58  1  0.41386230  0.84122008  0.47431566  1  0  0.041855  0  0.946474  0  0  0.051237  0  1.0232  0  0  0.052011  0  1.021932  0  0  0.099827  0.050561  0  1.024216  0
H  H59  1  0.91384824  0.65878809  0.02568050  1  0  0.041955  0  0.946499  0  0  0.051308  0  1.023214  0  0  0.052082  0  1.021941  0  0  0.099828  0.050631  0  1.024233  0
H  H60  1  0.41386193  0.34122108  0.02568374  1  0  0.041816  0  0.946506  0  0  0.051197  0  1.023236  0  0  0.05197  0  1.021968  0  0  0.099817  0.050519  0  1.024258  0
H  H61  1  0.91386120  0.15877815  0.47431563  1  0  0.041843  0  0.946488  0  0  0.051232  0  1.023205  0  0  0.052006  0  1.021937  0  0  0.099816  0.050552  0  1.024226  0
H  H62  1  0.58613726  0.15877682  0.52568512  1  0  0.041828  0  0.94653  0  0  0.051197  0  1.023245  0  0  0.051969  0  1.021979  0  0  0.0998  0.050518  0  1.024263  0
H  H63  1  0.08615000  0.34121057  0.97432028  1  0  0.041956  0  0.946534  0  0  0.051305  0  1.023235  0  0  0.052079  0  1.021965  0  0  0.09983  0.050626  0  1.024257  0
H  H64  1  0.67174900  0.64348513  0.85885379  1  0  0.047277  0  0.934699  0  0  0.062635  0  0.998717  0  0  0.063067  0  0.998464  0  0  0.098816  0.062211  0  0.999012  0
H  H65  1  0.17174992  0.85651581  0.64114661  1  0  0.047251  0  0.934674  0  0  0.06261  0  0.998717  0  0  0.063042  0  0.998465  0  0  0.098811  0.062189  0  0.999004  0
H  H66  1  0.32824821  0.85651591  0.35885282  1  0  0.047238  0  0.934654  0  0  0.062599  0  0.998698  0  0  0.06303  0  0.998445  0  0  0.098796  0.062178  0  0.998987  0
H  H67  1  0.82824072  0.64349114  0.14114235  1  0  0.047223  0  0.934653  0  0  0.062565  0  0.998703  0  0  0.062965  0  0.998483  0  0  0.098784  0.062143  0  0.998993  0
H  H68  1  0.32824793  0.35651527  0.14114490  1  0  0.047191  0  0.934645  0  0  0.062552  0  0.9987  0  0  0.062985  0  0.998444  0  0  0.098776  0.06213  0  0.998989  0
H  H69  1  0.82824701  0.14348458  0.35885348  1  0  0.047257  0  0.934663  0  0  0.062621  0  0.998705  0  0  0.063052  0  0.998452  0  0  0.098808  0.062196  0  0.998993  0
H  H70  1  0.67175397  0.14348448  0.64114726  1  0  0.047252  0  0.934689  0  0  0.062617  0  0.998699  0  0  0.063049  0  0.998445  0  0  0.098797  0.062191  0  0.998989  0
H  H71  1  0.17176278  0.35650752  0.85885913  1  0  0.047262  0  0.934596  0  0  0.062576  0  0.998668  0  0  0.062991  0  0.998431  0  0  0.098798  0.062155  0  0.998953  0
C  C72  1  0.33838488  0.76831670  0.81866846  1  0  0.101225  0  3.588864  0  0  0.048564  0  3.851373  0  0  0.055419  0  3.856754  0  0  -0.069727  0.044016  0  3.847649  0
C  C73  1  0.83838632  0.73168124  0.68133041  1  0  0.101162  0  3.588995  0  0  0.048459  0  3.851523  0  0  0.055327  0  3.856885  0  0  -0.069798  0.043902  0  3.847807  0
C  C74  1  0.66161053  0.73168169  0.31866856  1  0  0.101059  0  3.588997  0  0  0.04842  0  3.85147  0  0  0.055285  0  3.856838  0  0  -0.069824  0.043856  0  3.847765  0
C  C75  1  0.16160743  0.76831615  0.18132883  1  0  0.101078  0  3.589137  0  0  0.048356  0  3.851604  0  0  0.055197  0  3.857004  0  0  -0.069858  0.043812  0  3.847884  0
C  C76  1  0.66161467  0.23168195  0.18132953  1  0  0.101069  0  3.589023  0  0  0.04846  0  3.851459  0  0  0.055316  0  3.856844  0  0  -0.069805  0.04391  0  3.847737  0
C  C77  1  0.16161061  0.26831828  0.31867037  1  0  0.101081  0  3.58903  0  0  0.048425  0  3.851512  0  0  0.055285  0  3.856885  0  0  -0.069809  0.043872  0  3.847795  0
C  C78  1  0.33838903  0.26831783  0.68133222  1  0  0.101103  0  3.588886  0  0  0.048422  0  3.851401  0  0  0.055284  0  3.856765  0  0  -0.069808  0.043886  0  3.847695  0
C  C79  1  0.83839344  0.23168599  0.81866986  1  0  0.101057  0  3.589024  0  0  0.048354  0  3.85149  0  0  0.055206  0  3.85687  0  0  -0.069841  0.043807  0  3.847769  0
C  C80  1  0.24704453  0.65687102  0.84911312  1  0  -0.137822  0  3.660772  0  0  -0.179295  0  3.917392  0  0  -0.18128  0  3.93083  0  0  -0.166737  -0.177787  0  3.908094  0
C  C81  1  0.74704630  0.84312666  0.65088614  1  0  -0.137923  0  3.660849  0  0  -0.179314  0  3.917376  0  0  -0.181309  0  3.93082  0  0  -0.166725  -0.177812  0  3.908083  0
C  C82  1  0.75295125  0.84312827  0.34911359  1  0  -0.137792  0  3.660728  0  0  -0.179187  0  3.91725  0  0  -0.181185  0  3.930702  0  0  -0.16669  -0.177683  0  3.907952  0
C  C83  1  0.25294576  0.65687332  0.15087365  1  0  -0.13786  0  3.660884  0  0  -0.179203  0  3.917314  0  0  -0.181175  0  3.93074  0  0  -0.166691  -0.177687  0  3.908016  0
C  C84  1  0.75295240  0.34312851  0.15088697  1  0  -0.137768  0  3.660748  0  0  -0.179204  0  3.917296  0  0  -0.181186  0  3.930728  0  0  -0.166713  -0.1777  0  3.907999  0
C  C85  1  0.25295194  0.15687374  0.34911534  1  0  -0.137902  0  3.660824  0  0  -0.179287  0  3.917346  0  0  -0.181279  0  3.930794  0  0  -0.166723  -0.177786  0  3.908054  0
C  C86  1  0.24705093  0.15687038  0.65088788  1  0  -0.137794  0  3.6607  0  0  -0.179204  0  3.91724  0  0  -0.181184  0  3.930672  0  0  -0.166739  -0.177701  0  3.907937  0
C  C87  1  0.74705511  0.34312882  0.84912434  1  0  -0.137763  0  3.660847  0  0  -0.179097  0  3.917262  0  0  -0.181072  0  3.930689  0  0  -0.166683  -0.17759  0  3.907974  0
C  C88  1  0.40203324  0.57627491  0.87389690  1  0  -0.144893  0  3.648146  0  0  -0.18358  0  3.902794  0  0  -0.186016  0  3.916828  0  0  -0.167124  -0.18172  0  3.893054  0
C  C89  1  0.90203523  0.92372321  0.62610359  1  0  -0.144787  0  3.647961  0  0  -0.183446  0  3.902611  0  0  -0.185885  0  3.916648  0  0  -0.167071  -0.181583  0  3.892865  0
C  C90  1  0.59796415  0.92372352  0.37389619  1  0  -0.144862  0  3.648024  0  0  -0.183553  0  3.902703  0  0  -0.185989  0  3.916739  0  0  -0.167106  -0.1817  0  3.89296  0
C  C91  1  0.09794996  0.57627849  0.12609819  1  0  -0.145069  0  3.648005  0  0  -0.183723  0  3.90261  0  0  -0.18616  0  3.916619  0  0  -0.167185  -0.181887  0  3.892893  0
C  C92  1  0.59796369  0.42372461  0.12610388  1  0  -0.144962  0  3.648014  0  0  -0.183685  0  3.902728  0  0  -0.186125  0  3.916757  0  0  -0.167128  -0.181824  0  3.892986  0
C  C93  1  0.09796301  0.07627718  0.37389580  1  0  -0.144906  0  3.648085  0  0  -0.183576  0  3.902766  0  0  -0.186021  0  3.916797  0  0  -0.167117  -0.181718  0  3.893022  0
C  C94  1  0.40203672  0.07627425  0.62610528  1  0  -0.144941  0  3.648061  0  0  -0.183674  0  3.902746  0  0  -0.186118  0  3.916779  0  0  -0.16713  -0.181816  0  3.893004  0
C  C95  1  0.90205354  0.42372278  0.87390050  1  0  -0.145055  0  3.648133  0  0  -0.183732  0  3.902753  0  0  -0.186183  0  3.916774  0  0  -0.167213  -0.181891  0  3.893035  0
C  C96  1  0.55210915  0.66027282  0.89980810  1  0  0.106755  0  3.57874  0  0  0.050851  0  3.848402  0  0  0.057934  0  3.853943  0  0  -0.06447  0.046127  0  3.844568  0
C  C97  1  0.05210815  0.83972602  0.60019049  1  0  0.106734  0  3.578657  0  0  0.050782  0  3.848357  0  0  0.057863  0  3.853903  0  0  -0.064512  0.046057  0  3.844517  0
C  C98  1  0.44788987  0.83972651  0.39980962  1  0  0.106771  0  3.57863  0  0  0.050824  0  3.848359  0  0  0.057908  0  3.853903  0  0  -0.064481  0.046106  0  3.844517  0
C  C99  1  0.94788067  0.66027914  0.10018038  1  0  0.106748  0  3.578499  0  0  0.050834  0  3.848164  0  0  0.057937  0  3.853701  0  0  -0.064475  0.046118  0  3.844335  0
C  C100  1  0.44789040  0.33972670  0.10018850  1  0  0.10692  0  3.578513  0  0  0.050973  0  3.848248  0  0  0.058056  0  3.853795  0  0  -0.064453  0.046252  0  3.84441  0
C  C101  1  0.94789009  0.16027350  0.39981029  1  0  0.106774  0  3.578734  0  0  0.050821  0  3.848472  0  0  0.057903  0  3.85402  0  0  -0.064479  0.046105  0  3.844628  0
C  C102  1  0.55211100  0.16027214  0.60019116  1  0  0.106764  0  3.578725  0  0  0.050864  0  3.848388  0  0  0.057947  0  3.853934  0  0  -0.064452  0.046149  0  3.844549  0
C  C103  1  0.05211889  0.33972125  0.89981901  1  0  0.106692  0  3.578516  0  0  0.05082  0  3.84816  0  0  0.057915  0  3.853699  0  0  -0.064481  0.046107  0  3.844327  0
Br  Br104  1  0.91180303  0.91105616  0.89289042  1  0  -0.790096  0  0.760764  0  0  -0.741455  0  1.003242  0  0  -0.750608  0  0.980102  0  0  -0.268719  -0.734789  0  1.019468  0
Br  Br105  1  0.41180709  0.58894199  0.60710801  1  0  -0.790121  0  0.760727  0  0  -0.741453  0  1.003148  0  0  -0.750607  0  0.980012  0  0  -0.268705  -0.734783  0  1.019376  0
Br  Br106  1  0.08816700  0.58895275  0.39289127  1  0  -0.79013  0  0.760768  0  0  -0.74147  0  1.003215  0  0  -0.750624  0  0.980079  0  0  -0.26874  -0.734798  0  1.01944  0
Br  Br107  1  0.58819233  0.91105708  0.10710935  1  0  -0.790129  0  0.760781  0  0  -0.741455  0  1.003207  0  0  -0.750608  0  0.980067  0  0  -0.268717  -0.734786  0  1.019436  0
Br  Br108  1  0.08819784  0.08894685  0.10711106  1  0  -0.790112  0  0.760779  0  0  -0.741468  0  1.00325  0  0  -0.750619  0  0.980111  0  0  -0.268722  -0.734801  0  1.01948  0
Br  Br109  1  0.58819247  0.41105840  0.39289208  1  0  -0.790131  0  0.760735  0  0  -0.741462  0  1.00316  0  0  -0.750616  0  0.980025  0  0  -0.268709  -0.734791  0  1.019389  0
Br  Br110  1  0.91183387  0.41104764  0.60710812  1  0  -0.790111  0  0.760743  0  0  -0.741479  0  1.003226  0  0  -0.750633  0  0.980089  0  0  -0.268741  -0.734809  0  1.019455  0
Br  Br111  1  0.41180722  0.08894331  0.89289143  1  0  -0.79012  0  0.760769  0  0  -0.741459  0  1.00321  0  0  -0.750613  0  0.980071  0  0  -0.268709  -0.734788  0  1.019435  0
O  O112  1  0.48971439  0.77698204  0.87962883  1  0  -0.426287  0  2.270548  0  0  -0.351016  0  2.520738  0  0  -0.366729  0  2.519231  0  0  -0.320611  -0.340045  0  2.521536  0
O  O113  1  0.98971504  0.72301721  0.62037126  1  0  -0.426192  0  2.270548  0  0  -0.350889  0  2.520753  0  0  -0.366605  0  2.519245  0  0  -0.320566  -0.339918  0  2.521556  0
O  O114  1  0.51028176  0.72301728  0.37962771  1  0  -0.426212  0  2.270584  0  0  -0.350941  0  2.520784  0  0  -0.366653  0  2.519275  0  0  -0.320556  -0.33997  0  2.521587  0
O  O115  1  0.01028060  0.77698797  0.12036707  1  0  -0.42615  0  2.27044  0  0  -0.350852  0  2.520618  0  0  -0.36656  0  2.519105  0  0  -0.320494  -0.339877  0  2.521412  0
O  O116  1  0.51028385  0.22301748  0.12037056  1  0  -0.426232  0  2.270565  0  0  -0.35096  0  2.520758  0  0  -0.366674  0  2.519252  0  0  -0.320569  -0.339991  0  2.521562  0
O  O117  1  0.01028321  0.27698318  0.37962952  1  0  -0.426217  0  2.270631  0  0  -0.350934  0  2.52083  0  0  -0.366646  0  2.519323  0  0  -0.320565  -0.339966  0  2.521629  0
O  O118  1  0.48971912  0.27698225  0.62037168  1  0  -0.4262  0  2.270545  0  0  -0.350936  0  2.520736  0  0  -0.36665  0  2.51923  0  0  -0.320537  -0.339966  0  2.52153  0
O  O119  1  0.98971896  0.22301242  0.87963232  1  0  -0.426164  0  2.270459  0  0  -0.350868  0  2.520613  0  0  -0.36658  0  2.5191  0  0  -0.32052  -0.339897  0  2.52141  0
