# generated using pymatgen
data_Zn4H12C24Br2O13
_symmetry_space_group_name_H-M   'P 1'
_cell_length_a   10.91921315
_cell_length_b   10.91520326
_cell_length_c   19.53504173
_cell_angle_alpha   96.54220135
_cell_angle_beta   92.42598001
_cell_angle_gamma   99.61972893
_symmetry_Int_Tables_number   1
_chemical_formula_structural   Zn4H12C24Br2O13
_chemical_formula_sum   'Zn4 H12 C24 Br2 O13'
_cell_volume   2276.12472916
_cell_formula_units_Z   1
loop_
 _symmetry_equiv_pos_site_id
 _symmetry_equiv_pos_as_xyz
  1  'x, y, z'
loop_
 _atom_site_type_symbol
 _atom_site_label
 _atom_site_symmetry_multiplicity
 _atom_site_fract_x
 _atom_site_fract_y
 _atom_site_fract_z
 _atom_site_occupancy
 _atom_site_pbe_bader_charge
 _atom_site_pbe_bader_spin_density
 _atom_site_pbe_cm5_charge
 _atom_site_pbe_ddec_charge
 _atom_site_pbe_ddec_spin_density
 _atom_site_pbe_ddec_sum_bond_order
 _atom_site_pbe_magmom
Zn  Zn0  1  0.40778873  0.59380458  0.44056433  1  1.317313  0  0.674448  0.964527  0  2.390546  0
Zn  Zn1  1  0.38468057  0.39538223  0.54891408  1  1.31217  0  0.674401  0.969306  0  2.366523  0
Zn  Zn2  1  0.60898388  0.63000236  0.56781002  1  1.318108  0  0.67536  0.974347  0  2.33942  0
Zn  Zn3  1  0.60241114  0.40580004  0.44343666  1  1.317186  0  0.674642  0.968837  0  2.355031  0
H  H4  1  0.43432677  0.64701461  0.23468282  1  0.114678  0  0.111405  0.119207  0  0.989496  0
H  H5  1  0.47862175  0.35161390  0.99001538  1  0.084803  0  0.092623  0.094407  0  1.043183  0
H  H6  1  0.42169077  0.62888733  0.10672965  1  0.068253  0  0.106345  0.106672  0  0.996272  0
H  H7  1  0.36823258  0.98178943  0.47844141  1  0.11956  0  0.122137  0.143775  0  0.966433  0
H  H8  1  0.57022472  0.73123900  0.90731102  1  0.056838  0  0.103493  0.10235  0  0.994608  0
H  H9  1  0.65269757  0.02734738  0.51226084  1  0.123891  0  0.120718  0.142527  0  0.966828  0
H  H10  1  0.97965848  0.43988269  0.43613046  1  0.152648  0  0.128219  0.165294  0  0.959412  0
H  H11  1  0.39477515  0.33717772  0.75694927  1  0.101136  0  0.109633  0.115195  0  0.990467  0
H  H12  1  0.57188379  0.72307445  0.77931775  1  0.084304  0  0.109474  0.115008  0  0.990362  0
H  H13  1  0.51159445  0.63932798  0.00778583  1  0.055854  0  0.102277  0.097349  0  1.001387  0
H  H14  1  0.39576729  0.34254743  0.88427863  1  0.097237  0  0.105076  0.106936  0  0.994932  0
H  H15  1  0.57953954  0.30323423  0.22630446  1  0.130262  0  0.110646  0.130133  0  0.989733  0
C  C16  1  0.47606137  0.17236741  0.48763180  1  1.545062  0  0.226877  0.645691  0  4.162665  0
C  C17  1  0.48598376  0.44601305  0.01710053  1  -0.091981  0  -0.093937  -0.127182  0  3.996659  0
C  C18  1  0.49306848  0.54440522  0.98021541  1  -0.062293  0  -0.082004  -0.11591  0  3.977353  0
C  C19  1  0.53726944  0.83956577  0.50478693  1  1.534615  0  0.225397  0.646299  0  4.16363  0
C  C20  1  0.48481241  0.52924167  0.76040339  1  0.050656  0  -0.019652  -0.046548  0  3.978538  0
C  C21  1  0.55806363  0.97635089  0.50039903  1  -0.049639  0  -0.077583  -0.180576  0  3.883813  0
C  C22  1  0.46285061  0.03455637  0.48643696  1  0.038433  0  -0.068463  -0.157157  0  3.87552  0
C  C23  1  0.97007120  0.53557354  0.53368551  1  -0.060415  0  -0.019944  -0.010715  0  3.898258  0
C  C24  1  0.03239006  0.48186014  0.48422413  1  -0.000109  0  -0.078878  -0.218386  0  3.85176  0
C  C25  1  0.16860488  0.48125688  0.48698062  1  1.592392  0  0.226181  0.661958  0  4.171825  0
C  C26  1  0.83243293  0.53344454  0.52319526  1  1.6258  0  0.225837  0.611687  0  4.179138  0
C  C27  1  0.49414524  0.45620287  0.09212641  1  0.108889  0  -0.008366  0.077781  0  4.014074  0
C  C28  1  0.48682681  0.52390668  0.68400779  1  1.5123  0  0.227613  0.607755  0  4.161152  0
C  C29  1  0.51202053  0.48594514  0.31523175  1  1.525149  0  0.228153  0.606474  0  4.161702  0
C  C30  1  0.50819270  0.47659877  0.23844369  1  -0.00902  0  -0.01708  -0.0273  0  3.980433  0
C  C31  1  0.46445501  0.56873713  0.20429313  1  -0.035472  0  -0.083288  -0.093502  0  3.991326  0
C  C32  1  0.45835432  0.55835639  0.13284371  1  -0.056924  0  -0.083304  -0.116964  0  3.963547  0
C  C33  1  0.53661115  0.36454811  0.12814106  1  -0.095369  0  -0.011004  0.068526  0  3.911249  0
C  C34  1  0.54508659  0.37433712  0.19980199  1  -0.015847  0  -0.086869  -0.141138  0  3.966037  0
C  C35  1  0.43582112  0.42599673  0.86175311  1  -0.149475  0  -0.086362  -0.127417  0  3.952407  0
C  C36  1  0.43453806  0.42245004  0.79051490  1  -0.025063  0  -0.078462  -0.082569  0  3.980216  0
C  C37  1  0.53362358  0.64050242  0.80299038  1  -0.026406  0  -0.079031  -0.080724  0  3.981273  0
C  C38  1  0.53258199  0.64438360  0.87427739  1  -0.041641  0  -0.087627  -0.136376  0  3.972017  0
C  C39  1  0.48611839  0.53688450  0.90522309  1  0.058742  0  -0.005427  0.119737  0  4.035335  0
Br  Br40  1  0.04927442  0.62087218  0.61789460  1  -0.018895  0  0.024827  -0.033836  0  1.370536  0
Br  Br41  1  0.58870832  0.22264956  0.07873575  1  -0.082216  0  0.003078  -0.093584  0  1.324495  0
O  O42  1  0.50224826  0.50570795  0.50014377  1  -1.231966  0  -0.574876  -1.037397  0  2.541772  0
O  O43  1  0.42908236  0.42384381  0.64815416  1  -1.167487  0  -0.316769  -0.55048  0  2.331026  0
O  O44  1  0.56556276  0.40780984  0.34418277  1  -1.167878  0  -0.315338  -0.544898  0  2.31426  0
O  O45  1  0.54666284  0.61925098  0.66001217  1  -1.173616  0  -0.317772  -0.553263  0  2.325449  0
O  O46  1  0.46044188  0.57183121  0.34598857  1  -1.170139  0  -0.316541  -0.550246  0  2.341153  0
O  O47  1  0.22698680  0.53610677  0.44067053  1  -1.155819  0  -0.311571  -0.538349  0  2.274332  0
O  O48  1  0.78052382  0.46956767  0.46759600  1  -1.174547  0  -0.314373  -0.542445  0  2.326431  0
O  O49  1  0.38553378  0.21976196  0.51243574  1  -1.16479  0  -0.315202  -0.545334  0  2.278905  0
O  O50  1  0.61994738  0.79974476  0.54043784  1  -1.150715  0  -0.313527  -0.542708  0  2.268298  0
O  O51  1  0.57378782  0.23079577  0.46455606  1  -1.1647  0  -0.312849  -0.543578  0  2.28434  0
O  O52  1  0.43918801  0.77367273  0.47317257  1  -1.179163  0  -0.317136  -0.553818  0  2.316169  0
O  O53  1  0.21298469  0.42523504  0.53316593  1  -1.154331  0  -0.305253  -0.536801  0  2.321824  0
O  O54  1  0.78056097  0.59387406  0.56964236  1  -1.170367  0  -0.310371  -0.532576  0  2.356163  0
