# generated using pymatgen
data_YH23C20N3O8
_symmetry_space_group_name_H-M   'P 1'
_cell_length_a   10.13774308
_cell_length_b   10.34345874
_cell_length_c   12.71689213
_cell_angle_alpha   108.69117294
_cell_angle_beta   95.52904693
_cell_angle_gamma   118.89538603
_symmetry_Int_Tables_number   1
_chemical_formula_structural   YH23C20N3O8
_chemical_formula_sum   'Y2 H46 C40 N6 O16'
_cell_volume   1053.94518797
_cell_formula_units_Z   2
loop_
 _symmetry_equiv_pos_site_id
 _symmetry_equiv_pos_as_xyz
  1  'x, y, z'
loop_
 _atom_site_type_symbol
 _atom_site_label
 _atom_site_symmetry_multiplicity
 _atom_site_fract_x
 _atom_site_fract_y
 _atom_site_fract_z
 _atom_site_occupancy
 _atom_site_hle17_bader_spin_density
 _atom_site_hle17_ddec_charge
 _atom_site_hle17_ddec_spin_density
 _atom_site_hle17_ddec_sum_bond_order
 _atom_site_hle17_magmom
 _atom_site_hse06_10hf_bader_spin_density
 _atom_site_hse06_10hf_ddec_charge
 _atom_site_hse06_10hf_ddec_spin_density
 _atom_site_hse06_10hf_ddec_sum_bond_order
 _atom_site_hse06_10hf_magmom
 _atom_site_hse06_bader_spin_density
 _atom_site_hse06_ddec_charge
 _atom_site_hse06_ddec_spin_density
 _atom_site_hse06_ddec_sum_bond_order
 _atom_site_hse06_magmom
 _atom_site_pbe_bader_spin_density
 _atom_site_pbe_cm5_charge
 _atom_site_pbe_ddec_charge
 _atom_site_pbe_ddec_spin_density
 _atom_site_pbe_ddec_sum_bond_order
 _atom_site_pbe_magmom
Y  Y0  1  0.47298727  0.02289258  0.30377750  1  0  2.004534  0  1.943881  0  0  1.81038  0  2.450506  0  0  1.884354  0  2.382369  0  0  1.30058  1.757239  0  2.49735  0
Y  Y1  1  0.52701097  0.97710585  0.69622205  1  0  2.004506  0  1.943929  0  0  1.810385  0  2.450515  0  0  1.884361  0  2.382375  0  0  1.300563  1.757237  0  2.497363  0
H  H2  1  0.31603535  0.26255941  0.39135617  1  0  0.324897  0  0.91348  0  0  0.309  0  0.970315  0  0  0.317351  0  0.963108  0  0  0.316622  0.303043  0  0.975488  0
H  H3  1  0.68396289  0.73743902  0.60864181  1  0  0.324885  0  0.913499  0  0  0.308992  0  0.970329  0  0  0.317344  0  0.963123  0  0  0.316625  0.303037  0  0.9755  0
H  H4  1  0.57729775  0.35871635  0.69775778  1  0  0.308318  0  0.932304  0  0  0.289622  0  0.997224  0  0  0.297761  0  0.990664  0  0  0.306398  0.283891  0  1.001827  0
H  H5  1  0.42270148  0.64128208  0.30224106  1  0  0.308347  0  0.93228  0  0  0.289653  0  0.997191  0  0  0.297811  0  0.990603  0  0  0.306405  0.28392  0  1.001795  0
H  H6  1  0.07830830  0.14638008  0.21512415  1  0  0.097382  0  0.960193  0  0  0.106609  0  1.023339  0  0  0.110254  0  1.021319  0  0  0.105049  0.104115  0  1.024637  0
H  H7  1  0.92169157  0.85361957  0.78487506  1  0  0.097378  0  0.960198  0  0  0.106609  0  1.023336  0  0  0.110253  0  1.021316  0  0  0.10506  0.104114  0  1.024633  0
H  H8  1  0.13887013  0.87011699  0.91246041  1  0  0.103925  0  0.957319  0  0  0.110298  0  1.025439  0  0  0.113881  0  1.023158  0  0  0.107787  0.107725  0  1.027221  0
H  H9  1  0.86113074  0.12988267  0.08753808  1  0  0.103902  0  0.957334  0  0  0.110275  0  1.025458  0  0  0.113861  0  1.023177  0  0  0.107773  0.107704  0  1.027238  0
H  H10  1  0.29022008  0.44502258  0.09770861  1  0  0.098052  0  0.947634  0  0  0.107551  0  1.009284  0  0  0.111232  0  1.007056  0  0  0.105766  0.104441  0  1.012012  0
H  H11  1  0.70977979  0.55497706  0.90229139  1  0  0.098044  0  0.947609  0  0  0.10754  0  1.009266  0  0  0.11122  0  1.007038  0  0  0.105772  0.104429  0  1.011997  0
H  H12  1  0.69405885  0.78464478  0.03174336  1  0  0.09854  0  0.973178  0  0  0.105242  0  1.039618  0  0  0.107839  0  1.039493  0  0  0.099861  0.102838  0  1.040875  0
H  H13  1  0.30594167  0.21535609  0.96825622  1  0  0.098546  0  0.973169  0  0  0.105249  0  1.03961  0  0  0.107844  0  1.039486  0  0  0.09986  0.102843  0  1.040868  0
H  H14  1  0.06468175  0.93771754  0.31409155  1  0  0.098087  0  0.97453  0  0  0.105739  0  1.040742  0  0  0.108799  0  1.039339  0  0  0.106326  0.103525  0  1.041763  0
H  H15  1  0.93531778  0.06228332  0.68590796  1  0  0.098119  0  0.974468  0  0  0.105745  0  1.040716  0  0  0.108806  0  1.039313  0  0  0.106338  0.103532  0  1.041737  0
H  H16  1  0.15686198  0.01750186  0.67326392  1  0  0.108108  0  0.948536  0  0  0.116101  0  1.010868  0  0  0.119867  0  1.008679  0  0  0.108243  0.11338  0  1.012444  0
H  H17  1  0.84313755  0.98249900  0.32673559  1  0  0.108077  0  0.948542  0  0  0.116069  0  1.010883  0  0  0.119835  0  1.008694  0  0  0.108231  0.113349  0  1.012458  0
H  H18  1  0.62884545  0.20814347  0.10038903  1  0  0.061351  0  0.899749  0  0  0.070841  0  0.964214  0  0  0.07262  0  0.959344  0  0  0.138619  0.069454  0  0.967725  0
H  H19  1  0.37115512  0.79185372  0.89961430  1  0  0.061357  0  0.899699  0  0  0.070877  0  0.964145  0  0  0.072656  0  0.959272  0  0  0.138623  0.069486  0  0.96766  0
H  H20  1  0.02987106  0.62281050  0.34558632  1  0  0.072643  0  0.942161  0  0  0.091069  0  0.998928  0  0  0.090903  0  0.9999  0  0  0.110958  0.091008  0  0.998398  0
H  H21  1  0.97013044  0.37719036  0.65441334  1  0  0.072616  0  0.942223  0  0  0.09107  0  0.998951  0  0  0.090905  0  0.999923  0  0  0.110938  0.091009  0  0.998422  0
H  H22  1  0.89274632  0.48166697  0.39205818  1  0  0.070491  0  0.950486  0  0  0.086541  0  1.012614  0  0  0.087487  0  1.012029  0  0  0.113328  0.085702  0  1.013213  0
H  H23  1  0.10725746  0.51833633  0.60794386  1  0  0.070462  0  0.950532  0  0  0.086516  0  1.012647  0  0  0.087461  0  1.012064  0  0  0.113317  0.085677  0  1.013245  0
H  H24  1  0.16387885  0.52086458  0.43065343  1  0  0.118613  0  0.961865  0  0  0.139385  0  1.022961  0  0  0.141187  0  1.02246  0  0  0.096788  0.137926  0  1.023576  0
H  H25  1  0.83612301  0.47913507  0.56934592  1  0  0.118558  0  0.961872  0  0  0.139333  0  1.022969  0  0  0.141135  0  1.022466  0  0  0.096765  0.137874  0  1.023583  0
H  H26  1  0.13280095  0.43694222  0.27961444  1  0  0.09891  0  0.958697  0  0  0.117808  0  1.026861  0  0  0.119143  0  1.026783  0  0  0.088766  0.116755  0  1.027085  0
H  H27  1  0.86719892  0.56305743  0.72038476  1  0  0.09892  0  0.958707  0  0  0.117809  0  1.026874  0  0  0.119143  0  1.026796  0  0  0.088778  0.116756  0  1.027099  0
H  H28  1  0.00605370  0.31350405  0.34272328  1  0  0.100506  0  0.944656  0  0  0.123952  0  1.002241  0  0  0.124714  0  1.003101  0  0  0.09064  0.123387  0  1.001513  0
H  H29  1  0.99394618  0.68649560  0.65727672  1  0  0.100512  0  0.944641  0  0  0.123949  0  1.002234  0  0  0.124708  0  1.003097  0  0  0.09064  0.123382  0  1.001506  0
H  H30  1  0.80840106  0.34984497  0.03692331  1  0  0.080351  0  0.941369  0  0  0.094691  0  1.007371  0  0  0.095568  0  1.006828  0  0  0.112981  0.093945  0  1.007782  0
H  H31  1  0.19159684  0.65015466  0.96307890  1  0  0.080341  0  0.941385  0  0  0.094664  0  1.00739  0  0  0.095531  0  1.006856  0  0  0.112976  0.093917  0  1.0078  0
H  H32  1  0.00624720  0.43655219  0.11484252  1  0  0.061036  0  0.926775  0  0  0.07955  0  0.988442  0  0  0.079658  0  0.988472  0  0  0.10569  0.079283  0  0.988723  0
H  H33  1  0.99374941  0.56344501  0.88515816  1  0  0.061058  0  0.926732  0  0  0.079535  0  0.988421  0  0  0.079638  0  0.988453  0  0  0.105705  0.079268  0  0.988701  0
H  H34  1  0.97173368  0.63648957  0.06226891  1  0  0.105598  0  0.963844  0  0  0.127963  0  1.024894  0  0  0.128326  0  1.026619  0  0  0.091838  0.12757  0  1.023948  0
H  H35  1  0.02826654  0.36350886  0.93773157  1  0  0.105587  0  0.963852  0  0  0.127954  0  1.0249  0  0  0.128317  0  1.026626  0  0  0.091843  0.127561  0  1.023955  0
H  H36  1  0.04763120  0.70770252  0.21394949  1  0  0.110441  0  0.979724  0  0  0.127107  0  1.046506  0  0  0.129301  0  1.045472  0  0  0.092887  0.125491  0  1.047327  0
H  H37  1  0.95236867  0.29229712  0.78605129  1  0  0.110452  0  0.979705  0  0  0.127115  0  1.046492  0  0  0.129309  0  1.045458  0  0  0.092894  0.125499  0  1.047313  0
H  H38  1  0.84370005  0.62653514  0.14966448  1  0  0.09585  0  0.965905  0  0  0.115515  0  1.031311  0  0  0.115882  0  1.033376  0  0  0.083467  0.115195  0  1.029835  0
H  H39  1  0.15629982  0.37346451  0.85033472  1  0  0.095802  0  0.965891  0  0  0.115454  0  1.031324  0  0  0.11582  0  1.03339  0  0  0.083441  0.115135  0  1.029847  0
H  H40  1  0.48397360  0.57397806  0.73701944  1  0  0.065931  0  0.932651  0  0  0.078274  0  0.997233  0  0  0.07889  0  0.997446  0  0  0.100151  0.07767  0  0.997257  0
H  H41  1  0.51602791  0.42602281  0.26298022  1  0  0.065961  0  0.93257  0  0  0.078271  0  0.997195  0  0  0.07889  0  0.997411  0  0  0.10013  0.077667  0  0.997218  0
H  H42  1  0.35212177  0.37780524  0.73130640  1  0  0.050327  0  0.945406  0  0  0.065038  0  1.010013  0  0  0.064644  0  1.011869  0  0  0.096032  0.065147  0  1.008837  0
H  H43  1  0.64787776  0.62219563  0.26869389  1  0  0.050354  0  0.945422  0  0  0.065063  0  1.010025  0  0  0.064672  0  1.011883  0  0  0.096033  0.065173  0  1.00885  0
H  H44  1  0.18405233  0.30854778  0.55251502  1  0  0.049044  0  0.960727  0  0  0.061592  0  1.03053  0  0  0.060673  0  1.033631  0  0  0.094944  0.062382  0  1.028036  0
H  H45  1  0.81594720  0.69145309  0.44748448  1  0  0.049067  0  0.960736  0  0  0.061622  0  1.030517  0  0  0.060702  0  1.033619  0  0  0.09495  0.062412  0  1.028023  0
H  H46  1  0.32065464  0.50396974  0.55833434  1  0  0.066818  0  0.96685  0  0  0.076635  0  1.037493  0  0  0.077829  0  1.036491  0  0  0.103994  0.075574  0  1.038525  0
H  H47  1  0.67934588  0.49603113  0.44166445  1  0  0.066842  0  0.966877  0  0  0.076639  0  1.037518  0  0  0.077829  0  1.036516  0  0  0.104008  0.07558  0  1.038548  0
C  C48  1  0.12030236  0.00786948  0.07135674  1  0  -0.050447  0  3.746231  0  0  -0.028071  0  3.973867  0  0  -0.033779  0  3.995102  0  0  -0.011978  -0.024255  0  3.959964  0
C  C49  1  0.87969979  0.99213261  0.92864328  1  0  -0.050525  0  3.746187  0  0  -0.02815  0  3.973838  0  0  -0.033859  0  3.995076  0  0  -0.012026  -0.024334  0  3.959938  0
C  C50  1  0.04344359  0.08286460  0.12073417  1  0  -0.074394  0  3.725021  0  0  -0.095824  0  3.970399  0  0  -0.096918  0  3.990091  0  0  -0.080561  -0.09535  0  3.957874  0
C  C51  1  0.95655990  0.91713626  0.87926721  1  0  -0.074359  0  3.724965  0  0  -0.095794  0  3.970349  0  0  -0.096886  0  3.99004  0  0  -0.080548  -0.095317  0  3.957815  0
C  C52  1  0.07618086  0.92488432  0.95000499  1  0  -0.070756  0  3.727282  0  0  -0.093607  0  3.978939  0  0  -0.093787  0  3.997445  0  0  -0.079068  -0.093457  0  3.967324  0
C  C53  1  0.92382129  0.07511775  0.04999660  1  0  -0.070698  0  3.727229  0  0  -0.093544  0  3.978866  0  0  -0.093727  0  3.997375  0  0  -0.079034  -0.093398  0  3.967257  0
C  C54  1  0.24849614  0.01712658  0.14843384  1  0  0.62882  0  3.93131  0  0  0.584791  0  4.217407  0  0  0.618321  0  4.211104  0  0  0.202579  0.562186  0  4.220905  0
C  C55  1  0.75150309  0.98287184  0.85156735  1  0  0.628874  0  3.931234  0  0  0.584845  0  4.217334  0  0  0.618376  0  4.211028  0  0  0.202628  0.562239  0  4.220834  0
C  C56  1  0.49128739  0.62843319  0.07227297  1  0  -0.060285  0  3.749856  0  0  -0.03871  0  3.981719  0  0  -0.04453  0  4.002854  0  0  -0.014364  -0.03483  0  3.966848  0
C  C57  1  0.50870951  0.37156645  0.92772602  1  0  -0.060385  0  3.749889  0  0  -0.038788  0  3.981726  0  0  -0.044606  0  4.00286  0  0  -0.014418  -0.034907  0  3.966852  0
C  C58  1  0.38188790  0.46805981  0.05466902  1  0  -0.072713  0  3.741753  0  0  -0.094747  0  3.991645  0  0  -0.095319  0  4.011125  0  0  -0.08056  -0.093913  0  3.978517  0
C  C59  1  0.61811063  0.53194105  0.94533042  1  0  -0.072649  0  3.741709  0  0  -0.094687  0  3.991585  0  0  -0.095259  0  4.011065  0  0  -0.080547  -0.093852  0  3.978455  0
C  C60  1  0.60942295  0.65951279  0.01692256  1  0  -0.074547  0  3.725735  0  0  -0.095905  0  3.971845  0  0  -0.096828  0  3.991872  0  0  -0.082408  -0.094981  0  3.958495  0
C  C61  1  0.39057792  0.34048686  0.98307751  1  0  -0.074523  0  3.725741  0  0  -0.095886  0  3.971844  0  0  -0.096807  0  3.991874  0  0  -0.082387  -0.094961  0  3.958494  0
C  C62  1  0.48517124  0.76666627  0.15164155  1  0  0.62407  0  3.921382  0  0  0.576701  0  4.213253  0  0  0.610528  0  4.206875  0  0  0.19658  0.553841  0  4.216628  0
C  C63  1  0.51482700  0.23333216  0.84835643  1  0  0.624145  0  3.921415  0  0  0.576771  0  4.213282  0  0  0.610597  0  4.206903  0  0  0.196618  0.55391  0  4.216658  0
C  C64  1  0.12217595  0.97258120  0.49225157  1  0  -0.075908  0  3.742015  0  0  -0.056466  0  3.979309  0  0  -0.062437  0  3.999355  0  0  -0.014446  -0.052432  0  3.965256  0
C  C65  1  0.87782358  0.02741966  0.50774793  1  0  -0.075941  0  3.742052  0  0  -0.056498  0  3.979357  0  0  -0.062468  0  3.999403  0  0  -0.014446  -0.052463  0  3.965305  0
C  C66  1  0.03425747  0.96325945  0.39472826  1  0  -0.074763  0  3.740261  0  0  -0.099552  0  3.995269  0  0  -0.099672  0  4.014169  0  0  -0.08242  -0.099602  0  3.982148  0
C  C67  1  0.96574171  0.03674263  0.60527154  1  0  -0.074742  0  3.740201  0  0  -0.099517  0  3.995232  0  0  -0.099636  0  4.014131  0  0  -0.082422  -0.099567  0  3.98211  0
C  C68  1  0.08719341  0.00988150  0.59790114  1  0  -0.078033  0  3.72079  0  0  -0.097992  0  3.968507  0  0  -0.098567  0  3.98693  0  0  -0.081793  -0.097056  0  3.955625  0
C  C69  1  0.91280676  0.99012058  0.40209952  1  0  -0.077965  0  3.720802  0  0  -0.097922  0  3.968519  0  0  -0.098498  0  3.986942  0  0  -0.081789  -0.096986  0  3.955636  0
C  C70  1  0.25680973  0.94887974  0.48561419  1  0  0.713586  0  3.856341  0  0  0.659652  0  4.152406  0  0  0.696774  0  4.140276  0  0  0.243152  0.634467  0  4.159799  0
C  C71  1  0.74319049  0.05111869  0.51438472  1  0  0.713689  0  3.856228  0  0  0.659728  0  4.15234  0  0  0.696848  0  4.140211  0  0  0.243198  0.634542  0  4.159735  0
C  C72  1  0.70342258  0.27590262  0.19214404  1  0  0.429284  0  3.77853  0  0  0.354847  0  4.066791  0  0  0.384753  0  4.065027  0  0  0.199697  0.334501  0  4.067564  0
C  C73  1  0.29657765  0.72409579  0.80785959  1  0  0.429269  0  3.778518  0  0  0.354799  0  4.066754  0  0  0.384703  0  4.064994  0  0  0.199733  0.334453  0  4.067524  0
C  C74  1  0.96159312  0.49448118  0.33053864  1  0  0.049937  0  3.628717  0  0  -0.003013  0  3.878236  0  0  0.002283  0  3.890217  0  0  -0.0586  -0.006472  0  3.870089  0
C  C75  1  0.03840711  0.50551725  0.66946106  1  0  0.049966  0  3.628859  0  0  -0.003008  0  3.878309  0  0  0.00229  0  3.890285  0  0  -0.058567  -0.006465  0  3.870159  0
C  C76  1  0.07170681  0.43678595  0.34633960  1  0  -0.304203  0  3.66677  0  0  -0.381024  0  3.910181  0  0  -0.384066  0  3.920441  0  0  -0.242032  -0.378601  0  3.903041  0
C  C77  1  0.92829505  0.56321370  0.65366055  1  0  -0.30415  0  3.666766  0  0  -0.380971  0  3.91018  0  0  -0.384007  0  3.920439  0  0  -0.24202  -0.378548  0  3.903038  0
C  C78  1  0.90195138  0.44393642  0.11917117  1  0  0.039465  0  3.662742  0  0  -0.021781  0  3.93173  0  0  -0.016584  0  3.944388  0  0  -0.058759  -0.025027  0  3.922708  0
C  C79  1  0.09804686  0.55606200  0.88082995  1  0  0.039509  0  3.662692  0  0  -0.021684  0  3.931586  0  0  -0.016476  0  3.944238  0  0  -0.058717  -0.024929  0  3.922561  0
C  C80  1  0.94337145  0.61377592  0.13809921  1  0  -0.314951  0  3.690034  0  0  -0.391794  0  3.935475  0  0  -0.395176  0  3.946379  0  0  -0.247651  -0.389225  0  3.927856  0
C  C81  1  0.05662842  0.38622372  0.86190236  1  0  -0.314896  0  3.690037  0  0  -0.391752  0  3.935477  0  0  -0.395132  0  3.946378  0  0  -0.247641  -0.389184  0  3.927857  0
C  C82  1  0.48447684  0.31403917  0.52967291  1  0  0.738008  0  3.889002  0  0  0.666085  0  4.196307  0  0  0.70148  0  4.190133  0  0  0.339206  0.64198  0  4.199582  0
C  C83  1  0.51552239  0.68595926  0.47032593  1  0  0.73804  0  3.88898  0  0  0.666142  0  4.196253  0  0  0.701539  0  4.19008  0  0  0.339247  0.642037  0  4.199529  0
C  C84  1  0.41893644  0.44255358  0.68225540  1  0  0.045467  0  3.602732  0  0  -0.011863  0  3.86753  0  0  -0.00785  0  3.878925  0  0  -0.057275  -0.014453  0  3.859717  0
C  C85  1  0.58106472  0.55744850  0.31774612  1  0  0.045415  0  3.602792  0  0  -0.011916  0  3.867561  0  0  -0.007915  0  3.878973  0  0  -0.057267  -0.014507  0  3.859752  0
C  C86  1  0.30893849  0.39569221  0.56450058  1  0  0.038249  0  3.609678  0  0  -0.018592  0  3.869208  0  0  -0.014269  0  3.880348  0  0  -0.056862  -0.021379  0  3.861264  0
C  C87  1  0.69106203  0.60430865  0.43549979  1  0  0.038142  0  3.609844  0  0  -0.018656  0  3.869315  0  0  -0.014325  0  3.880448  0  0  -0.056895  -0.021445  0  3.861374  0
N  N88  1  0.84872931  0.40089969  0.21297838  1  0  -0.167655  0  3.431563  0  0  -0.07172  0  3.663969  0  0  -0.092919  0  3.687238  0  0  -0.268332  -0.057325  0  3.647731  0
N  N89  1  0.15127121  0.59910117  0.78702355  1  0  -0.167736  0  3.431558  0  0  -0.071737  0  3.663861  0  0  -0.092936  0  3.687127  0  0  -0.268428  -0.057344  0  3.64762  0
N  N90  1  0.36634907  0.32171956  0.47961214  1  0  -0.489447  0  3.260202  0  0  -0.428103  0  3.509442  0  0  -0.449492  0  3.515384  0  0  -0.434119  -0.413417  0  3.504388  0
N  N91  1  0.63365145  0.67828131  0.52038744  1  0  -0.489385  0  3.260278  0  0  -0.428056  0  3.509458  0  0  -0.449445  0  3.515396  0  0  -0.434141  -0.413372  0  3.504407  0
N  N92  1  0.52723450  0.39357114  0.64768569  1  0  -0.49918  0  3.190764  0  0  -0.441079  0  3.445953  0  0  -0.461877  0  3.450515  0  0  -0.438538  -0.426793  0  3.4423  0
N  N93  1  0.47276538  0.60642851  0.35231352  1  0  -0.499239  0  3.190811  0  0  -0.441133  0  3.445967  0  0  -0.461948  0  3.450512  0  0  -0.438548  -0.426843  0  3.442311  0
O  O94  1  0.30581551  0.11773195  0.25611133  1  0  -0.691008  0  2.044945  0  0  -0.635061  0  2.284796  0  0  -0.662442  0  2.276731  0  0  -0.351615  -0.615722  0  2.289688  0
O  O95  1  0.69418437  0.88226769  0.74388867  1  0  -0.691035  0  2.044974  0  0  -0.635079  0  2.284801  0  0  -0.662461  0  2.276731  0  0  -0.351616  -0.615742  0  2.289694  0
O  O96  1  0.29869513  0.92548743  0.10871163  1  0  -0.655147  0  1.948096  0  0  -0.604158  0  2.182825  0  0  -0.631406  0  2.176185  0  0  -0.342979  -0.585219  0  2.186683  0
O  O97  1  0.70130276  0.07451221  0.89128822  1  0  -0.655179  0  1.948092  0  0  -0.604181  0  2.182803  0  0  -0.631432  0  2.176166  0  0  -0.343004  -0.585242  0  2.186664  0
O  O98  1  0.38517242  0.73789372  0.21009950  1  0  -0.671094  0  1.948121  0  0  -0.611008  0  2.175576  0  0  -0.637893  0  2.166558  0  0  -0.355672  -0.592227  0  2.181196  0
O  O99  1  0.61482746  0.26210593  0.78989971  1  0  -0.671129  0  1.94813  0  0  -0.611038  0  2.17557  0  0  -0.637927  0  2.166574  0  0  -0.355689  -0.592256  0  2.181191  0
O  O100  1  0.57926360  0.91007356  0.16174236  1  0  -0.648811  0  1.944195  0  0  -0.599141  0  2.178112  0  0  -0.625975  0  2.170131  0  0  -0.347437  -0.580338  0  2.182961  0
O  O101  1  0.42073727  0.08992610  0.83825536  1  0  -0.648817  0  1.944325  0  0  -0.599147  0  2.178241  0  0  -0.625978  0  2.170261  0  0  -0.347435  -0.580344  0  2.183089  0
O  O102  1  0.28260215  0.91106499  0.38753392  1  0  -0.700397  0  2.026185  0  0  -0.637102  0  2.28408  0  0  -0.666093  0  2.271052  0  0  -0.374109  -0.616585  0  2.292575  0
O  O103  1  0.71739772  0.08893466  0.61246529  1  0  -0.700449  0  2.026138  0  0  -0.637167  0  2.28407  0  0  -0.666157  0  2.271043  0  0  -0.374128  -0.616647  0  2.292565  0
O  O104  1  0.33729519  0.96990605  0.57918027  1  0  -0.686069  0  2.041595  0  0  -0.624105  0  2.300923  0  0  -0.653292  0  2.288094  0  0  -0.370275  -0.603801  0  2.309555  0
O  O105  1  0.66270112  0.03008871  0.42081896  1  0  -0.686105  0  2.041511  0  0  -0.62412  0  2.300844  0  0  -0.653305  0  2.288013  0  0  -0.370287  -0.603822  0  2.309492  0
O  O106  1  0.65360288  0.23710726  0.27093059  1  0  -0.598041  0  2.132194  0  0  -0.537136  0  2.400279  0  0  -0.564764  0  2.391879  0  0  -0.359344  -0.517725  0  2.405644  0
O  O107  1  0.34640126  0.76289481  0.72907429  1  0  -0.597987  0  2.13211  0  0  -0.537138  0  2.400277  0  0  -0.564766  0  2.391875  0  0  -0.359335  -0.517717  0  2.405618  0
O  O108  1  0.54951088  0.24712473  0.47657263  1  0  -0.69882  0  2.01845  0  0  -0.641057  0  2.278065  0  0  -0.6664  0  2.265282  0  0  -0.367749  -0.623507  0  2.286686  0
O  O109  1  0.45048736  0.75287369  0.52342614  1  0  -0.698813  0  2.018439  0  0  -0.641072  0  2.278061  0  0  -0.666411  0  2.265269  0  0  -0.36774  -0.623521  0  2.286681  0
