# generated using pymatgen
data_Cd2H6C9N7Cl3
_symmetry_space_group_name_H-M   'P 1'
_cell_length_a   6.87432793
_cell_length_b   7.38334968
_cell_length_c   14.11802480
_cell_angle_alpha   90.00016181
_cell_angle_beta   94.17145828
_cell_angle_gamma   90.00007398
_symmetry_Int_Tables_number   1
_chemical_formula_structural   Cd2H6C9N7Cl3
_chemical_formula_sum   'Cd4 H12 C18 N14 Cl6'
_cell_volume   714.67004519
_cell_formula_units_Z   2
loop_
 _symmetry_equiv_pos_site_id
 _symmetry_equiv_pos_as_xyz
  1  'x, y, z'
loop_
 _atom_site_type_symbol
 _atom_site_label
 _atom_site_symmetry_multiplicity
 _atom_site_fract_x
 _atom_site_fract_y
 _atom_site_fract_z
 _atom_site_occupancy
 _atom_site_hle17_bader_spin_density
 _atom_site_hle17_ddec_charge
 _atom_site_hle17_ddec_spin_density
 _atom_site_hle17_ddec_sum_bond_order
 _atom_site_hle17_magmom
 _atom_site_hse06_10hf_bader_spin_density
 _atom_site_hse06_10hf_ddec_charge
 _atom_site_hse06_10hf_ddec_spin_density
 _atom_site_hse06_10hf_ddec_sum_bond_order
 _atom_site_hse06_10hf_magmom
 _atom_site_hse06_bader_spin_density
 _atom_site_hse06_ddec_charge
 _atom_site_hse06_ddec_spin_density
 _atom_site_hse06_ddec_sum_bond_order
 _atom_site_hse06_magmom
 _atom_site_pbe_bader_spin_density
 _atom_site_pbe_cm5_charge
 _atom_site_pbe_ddec_charge
 _atom_site_pbe_ddec_spin_density
 _atom_site_pbe_ddec_sum_bond_order
 _atom_site_pbe_magmom
Cd  Cd0  1  0.29298784  0.87297205  0.84144914  1  0  0.963038  0  1.939702  0  0  0.781889  0  2.411843  0  0  0.829435  0  2.371415  0  0  0.652179  0.748163  0  2.439455  0
Cd  Cd1  1  0.70701395  0.37296841  0.15855130  1  0  0.963045  0  1.939631  0  0  0.781885  0  2.411784  0  0  0.829434  0  2.371354  0  0  0.652192  0.748158  0  2.439402  0
Cd  Cd2  1  0.83515613  0.11841398  0.92208100  1  0  0.976827  0  1.919771  0  0  0.807641  0  2.388311  0  0  0.85519  0  2.346293  0  0  0.618556  0.773927  0  2.417027  0
Cd  Cd3  1  0.16483933  0.61840932  0.07791676  1  0  0.97685  0  1.919685  0  0  0.807681  0  2.388186  0  0  0.855231  0  2.34617  0  0  0.618557  0.773965  0  2.416902  0
H  H4  1  0.91386421  0.51453063  0.78995248  1  0  0.109797  0  0.962609  0  0  0.117154  0  1.028051  0  0  0.120104  0  1.026298  0  0  0.093546  0.114999  0  1.029409  0
H  H5  1  0.08613121  0.01451300  0.21004937  1  0  0.109829  0  0.962687  0  0  0.117178  0  1.028118  0  0  0.120129  0  1.026365  0  0  0.093599  0.115024  0  1.029477  0
H  H6  1  0.02383201  0.47142187  0.62716242  1  0  0.110019  0  0.96398  0  0  0.115754  0  1.032851  0  0  0.119345  0  1.030404  0  0  0.106413  0.113141  0  1.034783  0
H  H7  1  0.97616704  0.97140619  0.37283880  1  0  0.110058  0  0.963853  0  0  0.115756  0  1.032759  0  0  0.119346  0  1.030324  0  0  0.106434  0.113173  0  1.034668  0
H  H8  1  0.42604784  0.38814119  0.52023686  1  0  0.108204  0  0.952871  0  0  0.117798  0  1.014504  0  0  0.12106  0  1.013096  0  0  0.106073  0.115448  0  1.015648  0
H  H9  1  0.57395682  0.88815270  0.47976156  1  0  0.10822  0  0.952867  0  0  0.117799  0  1.014523  0  0  0.121062  0  1.013113  0  0  0.106048  0.115449  0  1.015669  0
H  H10  1  0.32077487  0.41886204  0.68314105  1  0  0.10584  0  0.949129  0  0  0.116723  0  1.009423  0  0  0.11948  0  1.008005  0  0  0.103212  0.114701  0  1.010577  0
H  H11  1  0.67922984  0.91887551  0.31685741  1  0  0.105816  0  0.949052  0  0  0.116688  0  1.009367  0  0  0.119451  0  1.00795  0  0  0.103197  0.114661  0  1.010536  0
H  H12  1  0.12432070  0.42273319  0.32428251  1  0  0.095745  0  0.97401  0  0  0.103761  0  1.039404  0  0  0.106047  0  1.037022  0  0  0.115064  0.101791  0  1.041531  0
H  H13  1  0.87568559  0.92272985  0.67571954  1  0  0.095709  0  0.97408  0  0  0.103701  0  1.039487  0  0  0.105981  0  1.037113  0  0  0.115047  0.101737  0  1.041602  0
H  H14  1  0.54856299  0.30841015  0.38580793  1  0  0.104253  0  0.946512  0  0  0.113617  0  1.010775  0  0  0.115803  0  1.007214  0  0  0.136428  0.111841  0  1.01282  0
H  H15  1  0.45144302  0.80840328  0.61419112  1  0  0.104213  0  0.946495  0  0  0.113612  0  1.010731  0  0  0.115794  0  1.007179  0  0  0.136424  0.111832  0  1.01277  0
C  C16  1  0.55292343  0.48003267  0.84441364  1  0  0.318125  0  3.747988  0  0  0.287369  0  4.019541  0  0  0.30091  0  4.034218  0  0  0.230975  0.278262  0  4.00978  0
C  C17  1  0.44706974  0.98003146  0.15558531  1  0  0.318285  0  3.747669  0  0  0.287446  0  4.01934  0  0  0.300987  0  4.034012  0  0  0.231028  0.278335  0  4.009585  0
C  C18  1  0.61031914  0.47057874  0.74680037  1  0  -0.005594  0  3.790075  0  0  0.01123  0  4.027595  0  0  0.007145  0  4.050981  0  0  -0.008454  0.013613  0  4.012396  0
C  C19  1  0.38967693  0.97057528  0.25319864  1  0  -0.005578  0  3.789946  0  0  0.011268  0  4.027461  0  0  0.007185  0  4.050843  0  0  -0.008397  0.013652  0  4.012267  0
C  C20  1  0.80840646  0.48480677  0.73079985  1  0  -0.061325  0  3.721697  0  0  -0.081572  0  3.968  0  0  -0.082045  0  3.98883  0  0  -0.082165  -0.081195  0  3.954313  0
C  C21  1  0.19158817  0.98479504  0.26919914  1  0  -0.061383  0  3.72173  0  0  -0.081613  0  3.968011  0  0  -0.082083  0  3.988833  0  0  -0.08222  -0.081221  0  3.95429  0
C  C22  1  0.87042188  0.46177637  0.64021249  1  0  -0.128115  0  3.731959  0  0  -0.152864  0  3.993279  0  0  -0.15712  0  4.010494  0  0  -0.087724  -0.149942  0  3.979871  0
C  C23  1  0.12958006  0.96176099  0.35978809  1  0  -0.128055  0  3.731951  0  0  -0.152762  0  3.993258  0  0  -0.157022  0  4.010477  0  0  -0.087699  -0.149866  0  3.979848  0
C  C24  1  0.73383913  0.42572741  0.56452195  1  0  0.171091  0  3.781146  0  0  0.149871  0  4.029423  0  0  0.166525  0  4.052522  0  0  0.098537  0.145892  0  4.01417  0
C  C25  1  0.26615832  0.92572207  0.43547703  1  0  0.170967  0  3.781289  0  0  0.149737  0  4.02956  0  0  0.166393  0  4.052662  0  0  0.098487  0.145755  0  4.014314  0
C  C26  1  0.53449867  0.41395896  0.57885978  1  0  -0.163184  0  3.748912  0  0  -0.183702  0  4.007704  0  0  -0.189108  0  4.02608  0  0  -0.095144  -0.18003  0  3.993422  0
C  C27  1  0.46550465  0.91396055  0.42114076  1  0  -0.163165  0  3.748865  0  0  -0.183676  0  4.007661  0  0  -0.189083  0  4.026038  0  0  -0.09511  -0.180003  0  3.99338  0
C  C28  1  0.47400084  0.43517718  0.67023450  1  0  -0.063341  0  3.729632  0  0  -0.087487  0  3.982342  0  0  -0.087355  0  4.002649  0  0  -0.081962  -0.087485  0  3.968994  0
C  C29  1  0.52599663  0.93518106  0.32976450  1  0  -0.063337  0  3.729424  0  0  -0.087471  0  3.982105  0  0  -0.087349  0  4.00242  0  0  -0.081969  -0.087467  0  3.968775  0
C  C30  1  0.99475791  0.40383994  0.36303501  1  0  0.212615  0  3.701182  0  0  0.161623  0  3.988603  0  0  0.174053  0  3.997604  0  0  0.144493  0.154023  0  3.980137  0
C  C31  1  0.00524838  0.90383673  0.63696773  1  0  0.2126  0  3.700909  0  0  0.161663  0  3.988325  0  0  0.174097  0  3.997329  0  0  0.144519  0.154065  0  3.979848  0
C  C32  1  0.70127930  0.34539212  0.39189085  1  0  0.186001  0  3.637417  0  0  0.110479  0  3.898985  0  0  0.136943  0  3.912314  0  0  0.162418  0.100277  0  3.891856  0
C  C33  1  0.29872099  0.84538910  0.60810950  1  0  0.186015  0  3.637553  0  0  0.110462  0  3.899129  0  0  0.13693  0  3.912455  0  0  0.162415  0.100268  0  3.891986  0
N  N34  1  0.40477762  0.57521169  0.87699759  1  0  -0.31146  0  3.102612  0  0  -0.261076  0  3.389298  0  0  -0.27776  0  3.404662  0  0  -0.232093  -0.249756  0  3.378759  0
N  N35  1  0.59521635  0.07521180  0.12300148  1  0  -0.311514  0  3.102347  0  0  -0.261116  0  3.389065  0  0  -0.277801  0  3.404424  0  0  -0.232175  -0.249806  0  3.378541  0
N  N36  1  0.40728574  0.53660887  0.97007689  1  0  -0.080312  0  3.177583  0  0  -0.04271  0  3.469641  0  0  -0.048294  0  3.486579  0  0  -0.104085  -0.038648  0  3.457923  0
N  N37  1  0.59270820  0.03660983  0.02992283  1  0  -0.080295  0  3.177471  0  0  -0.042667  0  3.469497  0  0  -0.048251  0  3.486434  0  0  -0.10407  -0.038606  0  3.457777  0
N  N38  1  0.55089000  0.42548195  0.99358502  1  0  -0.078102  0  3.144449  0  0  -0.048016  0  3.435595  0  0  -0.051557  0  3.452521  0  0  -0.097662  -0.045293  0  3.423906  0
N  N39  1  0.44910311  0.92548265  0.00641455  1  0  -0.078137  0  3.144357  0  0  -0.048057  0  3.435501  0  0  -0.051599  0  3.452426  0  0  -0.097704  -0.045332  0  3.423811  0
N  N40  1  0.64480068  0.38697895  0.91642437  1  0  -0.312123  0  3.140129  0  0  -0.260105  0  3.425604  0  0  -0.277951  0  3.442845  0  0  -0.227836  -0.247951  0  3.413703  0
N  N41  1  0.35519236  0.88697860  0.08357514  1  0  -0.312217  0  3.140004  0  0  -0.26018  0  3.425529  0  0  -0.278028  0  3.442774  0  0  -0.227811  -0.248022  0  3.413628  0
N  N42  1  0.80098996  0.40173132  0.47256680  1  0  0.014377  0  3.579428  0  0  0.12917  0  3.76121  0  0  0.087304  0  3.821652  0  0  -0.114964  0.136032  0  3.746821  0
N  N43  1  0.19901627  0.90172775  0.52743452  1  0  0.014358  0  3.579457  0  0  0.129157  0  3.761248  0  0  0.087288  0  3.821702  0  0  -0.114984  0.136019  0  3.746855  0
N  N44  1  0.99061879  0.43914800  0.45480707  1  0  -0.267198  0  2.818456  0  0  -0.269735  0  3.083765  0  0  -0.267334  0  3.10122  0  0  -0.22328  -0.264674  0  3.075729  0
N  N45  1  0.00938750  0.93914702  0.54519430  1  0  -0.267131  0  2.818305  0  0  -0.269685  0  3.083607  0  0  -0.267282  0  3.101064  0  0  -0.22326  -0.264635  0  3.075588  0
N  N46  1  0.81978861  0.34486784  0.32134436  1  0  -0.402647  0  3.176194  0  0  -0.329309  0  3.460195  0  0  -0.351202  0  3.470823  0  0  -0.347436  -0.31421  0  3.449821  0
N  N47  1  0.18021896  0.84486371  0.67865620  1  0  -0.40264  0  3.176224  0  0  -0.329301  0  3.460175  0  0  -0.351191  0  3.470801  0  0  -0.347451  -0.314203  0  3.449793  0
Cl  Cl48  1  0.13730944  0.19342265  0.83318665  1  0  -0.530279  0  1.05117  0  0  -0.464324  0  1.344566  0  0  -0.485918  0  1.327059  0  0  -0.296182  -0.448859  0  1.356355  0
Cl  Cl49  1  0.86268760  0.69342334  0.16681126  1  0  -0.530281  0  1.051162  0  0  -0.464327  0  1.344579  0  0  -0.485924  0  1.327073  0  0  -0.296187  -0.448844  0  1.356328  0
Cl  Cl50  1  0.97662293  0.76941805  0.92533452  1  0  -0.522234  0  1.125123  0  0  -0.455531  0  1.443838  0  0  -0.475762  0  1.420827  0  0  -0.270255  -0.44097  0  1.459492  0
Cl  Cl51  1  0.02337719  0.26940503  0.07466430  1  0  -0.522198  0  1.125072  0  0  -0.455471  0  1.443751  0  0  -0.475702  0  1.420741  0  0  -0.270225  -0.440913  0  1.459408  0
Cl  Cl52  1  0.61481807  0.99295148  0.77759945  1  0  -0.550014  0  1.038277  0  0  -0.487666  0  1.330232  0  0  -0.507955  0  1.311784  0  0  -0.298668  -0.473124  0  1.343007  0
Cl  Cl53  1  0.38518098  0.49294646  0.22240039  1  0  -0.550037  0  1.038244  0  0  -0.487687  0  1.3302  0  0  -0.507978  0  1.311751  0  0  -0.29867  -0.473146  0  1.342976  0
