# generated using pymatgen
data_CuH12C17S2N5
_symmetry_space_group_name_H-M   'P 1'
_cell_length_a   7.14430420
_cell_length_b   14.39435265
_cell_length_c   16.37500000
_cell_angle_alpha   106.47516786
_cell_angle_beta   90.00000000
_cell_angle_gamma   90.00000000
_symmetry_Int_Tables_number   1
_chemical_formula_structural   CuH12C17S2N5
_chemical_formula_sum   'Cu4 H48 C68 S8 N20'
_cell_volume   1614.82721406
_cell_formula_units_Z   4
loop_
 _symmetry_equiv_pos_site_id
 _symmetry_equiv_pos_as_xyz
  1  'x, y, z'
loop_
 _atom_site_type_symbol
 _atom_site_label
 _atom_site_symmetry_multiplicity
 _atom_site_fract_x
 _atom_site_fract_y
 _atom_site_fract_z
 _atom_site_occupancy
 _atom_site_hle17_bader_spin_density
 _atom_site_hle17_ddec_charge
 _atom_site_hle17_ddec_spin_density
 _atom_site_hle17_ddec_sum_bond_order
 _atom_site_hle17_magmom
 _atom_site_hse06_10hf_bader_spin_density
 _atom_site_hse06_10hf_ddec_charge
 _atom_site_hse06_10hf_ddec_spin_density
 _atom_site_hse06_10hf_ddec_sum_bond_order
 _atom_site_hse06_10hf_magmom
 _atom_site_hse06_bader_spin_density
 _atom_site_hse06_ddec_charge
 _atom_site_hse06_ddec_spin_density
 _atom_site_hse06_ddec_sum_bond_order
 _atom_site_hse06_magmom
 _atom_site_pbe_bader_charge
 _atom_site_pbe_bader_spin_density
 _atom_site_pbe_cm5_charge
 _atom_site_pbe_ddec_charge
 _atom_site_pbe_ddec_spin_density
 _atom_site_pbe_ddec_sum_bond_order
 _atom_site_pbe_magmom
Cu  Cu0  1  0.86148207  0.16051672  0.62505447  1  0  0.397746  0  2.232881  0  0  0.313137  0  2.741908  0  0  0.305645  0  2.703832  0  0.627137  0  0.458162  0.322966  0  2.763352  0
Cu  Cu1  1  0.36147957  0.33949343  0.87494363  1  0  0.397827  0  2.23269  0  0  0.313188  0  2.741714  0  0  0.305685  0  2.703616  0  0.627064  0  0.458126  0.322991  0  2.763167  0
Cu  Cu2  1  0.13850754  0.83948619  0.37494961  1  0  0.397706  0  2.232975  0  0  0.31308  0  2.742018  0  0  0.305583  0  2.703937  0  0.627378  0  0.458133  0.322898  0  2.763467  0
Cu  Cu3  1  0.63851564  0.66050585  0.12505527  1  0  0.397765  0  2.232837  0  0  0.313132  0  2.741877  0  0  0.305645  0  2.703799  0  0.626989  0  0.458141  0.32294  0  2.763326  0
H  H4  1  0.52483767  0.83594140  0.44202499  1  0  0.100791  0  0.957138  0  0  0.101855  0  1.033027  0  0  0.106347  0  1.027452  0  0.171401  0  0.123819  0.098351  0  1.037332  0
H  H5  1  0.02483937  0.66406151  0.05797039  1  0  0.100803  0  0.957234  0  0  0.101839  0  1.03313  0  0  0.106348  0  1.02754  0  0.171544  0  0.123797  0.098335  0  1.037434  0
H  H6  1  0.47516594  0.16405498  0.55797502  1  0  0.100849  0  0.957044  0  0  0.101889  0  1.032948  0  0  0.106343  0  1.027411  0  0.171383  0  0.123818  0.098385  0  1.037255  0
H  H7  1  0.97516984  0.33593777  0.94202790  1  0  0.100771  0  0.957289  0  0  0.101853  0  1.033128  0  0  0.106351  0  1.027547  0  0.171504  0  0.123803  0.09835  0  1.037437  0
H  H8  1  0.60059173  0.13738756  0.75249455  1  0  0.088486  0  0.955223  0  0  0.09606  0  1.018829  0  0  0.09795  0  1.017753  0  0.145344  0  0.11629  0.094478  0  1.019966  0
H  H9  1  0.10059342  0.36262403  0.74749047  1  0  0.088603  0  0.954993  0  0  0.096119  0  1.018687  0  0  0.098008  0  1.017613  0  0.145417  0  0.116299  0.09454  0  1.01982  0
H  H10  1  0.39939369  0.86260809  0.24750406  1  0  0.088534  0  0.955182  0  0  0.096075  0  1.018854  0  0  0.097965  0  1.017778  0  0.145287  0  0.116313  0.094496  0  1.019983  0
H  H11  1  0.89938080  0.63737960  0.25251013  1  0  0.08855  0  0.955239  0  0  0.096029  0  1.018912  0  0  0.097919  0  1.017835  0  0.145272  0  0.116284  0.094452  0  1.020038  0
H  H12  1  0.83996983  0.28280506  0.34372988  1  0  0.065335  0  0.970484  0  0  0.071287  0  1.041639  0  0  0.073825  0  1.039763  0  0.074141  0  0.103178  0.069392  0  1.043087  0
H  H13  1  0.33998132  0.21719350  0.15626045  1  0  0.065179  0  0.970581  0  0  0.071123  0  1.041753  0  0  0.07366  0  1.039878  0  0.074269  0  0.103131  0.069231  0  1.043198  0
H  H14  1  0.16003378  0.71719350  0.65626213  1  0  0.065313  0  0.970513  0  0  0.071236  0  1.041676  0  0  0.073775  0  1.0398  0  0.074327  0  0.103174  0.069344  0  1.043119  0
H  H15  1  0.66001809  0.78280796  0.84373655  1  0  0.065239  0  0.970565  0  0  0.071177  0  1.041737  0  0  0.073713  0  1.039865  0  0.074279  0  0.103154  0.069287  0  1.043178  0
H  H16  1  0.45479026  0.83488803  0.69678468  1  0  0.111299  0  0.963842  0  0  0.1163  0  1.035463  0  0  0.119748  0  1.032036  0  0.130903  0  0.110215  0.113813  0  1.037978  0
H  H17  1  0.95477457  0.66512502  0.80321567  1  0  0.111143  0  0.964102  0  0  0.116282  0  1.035542  0  0  0.119734  0  1.032107  0  0.130762  0  0.110198  0.113803  0  1.038024  0
H  H18  1  0.54521895  0.16510835  0.30321717  1  0  0.111273  0  0.963913  0  0  0.11631  0  1.035488  0  0  0.119757  0  1.032064  0  0.130794  0  0.110237  0.113829  0  1.037984  0
H  H19  1  0.04523184  0.33488586  0.19678795  1  0  0.111293  0  0.964034  0  0  0.116336  0  1.03557  0  0  0.119782  0  1.032145  0  0.1307  0  0.110237  0.11387  0  1.038028  0
H  H20  1  0.44463112  0.00570368  0.79674283  1  0  0.120475  0  0.973369  0  0  0.129603  0  1.031706  0  0  0.132759  0  1.030909  0  0.160645  0  0.107951  0.127315  0  1.032482  0
H  H21  1  0.94462523  0.49431226  0.70325061  1  0  0.120505  0  0.973362  0  0  0.129699  0  1.031657  0  0  0.132847  0  1.030875  0  0.160143  0  0.108005  0.127413  0  1.032434  0
H  H22  1  0.55536969  0.99429053  0.20325848  1  0  0.1205  0  0.97335  0  0  0.129596  0  1.031696  0  0  0.132748  0  1.030898  0  0.160664  0  0.107947  0.127309  0  1.032473  0
H  H23  1  0.05536018  0.50569789  0.29675405  1  0  0.120477  0  0.973281  0  0  0.129609  0  1.031625  0  0  0.13277  0  1.030837  0  0.160501  0  0.107978  0.127323  0  1.032402  0
H  H24  1  0.73754978  0.56160819  0.54326697  1  0  0.133083  0  0.947839  0  0  0.13927  0  1.01103  0  0  0.143317  0  1.009137  0  0.144244  0  0.117312  0.136338  0  1.012585  0
H  H25  1  0.23756127  0.93839761  0.95673341  1  0  0.132944  0  0.947956  0  0  0.139178  0  1.011105  0  0  0.143223  0  1.009214  0  0.144075  0  0.11732  0.136244  0  1.012665  0
H  H26  1  0.26244403  0.43839036  0.45673359  1  0  0.133111  0  0.947807  0  0  0.139272  0  1.011022  0  0  0.143318  0  1.009129  0  0.144304  0  0.117334  0.136337  0  1.012584  0
H  H27  1  0.76244234  0.06160602  0.04326719  1  0  0.133024  0  0.947848  0  0  0.139269  0  1.010978  0  0  0.143314  0  1.009088  0  0.144144  0  0.117339  0.136336  0  1.012534  0
H  H28  1  0.75877508  0.95069752  0.51913409  1  0  0.087543  0  0.981877  0  0  0.092532  0  1.057023  0  0  0.096157  0  1.05304  0  0.142177  0  0.103404  0.089721  0  1.060143  0
H  H29  1  0.25877258  0.54930756  0.98085512  1  0  0.087502  0  0.981937  0  0  0.092477  0  1.057135  0  0  0.096097  0  1.053144  0  0.142388  0  0.103353  0.089636  0  1.060282  0
H  H30  1  0.24122153  0.04930176  0.48086482  1  0  0.087544  0  0.981972  0  0  0.092541  0  1.057101  0  0  0.096166  0  1.053118  0  0.142146  0  0.103411  0.089732  0  1.06022  0
H  H31  1  0.74122404  0.45069244  0.01914336  1  0  0.087534  0  0.9819  0  0  0.09248  0  1.057114  0  0  0.0961  0  1.053125  0  0.142366  0  0.103364  0.089647  0  1.060254  0
H  H32  1  0.43563794  0.36108672  0.19355486  1  0  0.065718  0  0.959548  0  0  0.07148  0  1.03131  0  0  0.074154  0  1.029673  0  0.09139  0  0.100797  0.069452  0  1.032629  0
H  H33  1  0.93568524  0.13891545  0.30644980  1  0  0.065542  0  0.95974  0  0  0.071383  0  1.031418  0  0  0.074053  0  1.029788  0  0.091238  0  0.100796  0.069356  0  1.032739  0
H  H34  1  0.56434887  0.63891473  0.80644458  1  0  0.06567  0  0.959642  0  0  0.071471  0  1.031345  0  0  0.074142  0  1.029714  0  0.091441  0  0.100806  0.069442  0  1.03267  0
H  H35  1  0.06434217  0.86108093  0.69355571  1  0  0.065636  0  0.959757  0  0  0.071435  0  1.031445  0  0  0.074105  0  1.029814  0  0.091502  0  0.100783  0.069407  0  1.032768  0
H  H36  1  0.72857900  0.73198845  0.63837306  1  0  0.103398  0  0.971291  0  0  0.103977  0  1.045358  0  0  0.108157  0  1.041163  0  0.187894  0  0.12552  0.100944  0  1.0484  0
H  H37  1  0.22856670  0.76801880  0.86162157  1  0  0.103326  0  0.971357  0  0  0.103894  0  1.045467  0  0  0.108079  0  1.041258  0  0.187904  0  0.125488  0.100859  0  1.048515  0
H  H38  1  0.27142741  0.26801011  0.36162750  1  0  0.103323  0  0.971413  0  0  0.103893  0  1.045476  0  0  0.10807  0  1.041289  0  0.187862  0  0.125501  0.100856  0  1.048524  0
H  H39  1  0.77143132  0.23198555  0.13837676  1  0  0.103363  0  0.971353  0  0  0.103942  0  1.04543  0  0  0.108123  0  1.041232  0  0.187787  0  0.125504  0.100908  0  1.048475  0
H  H40  1  0.54076365  0.67290501  0.33810359  1  0  0.130495  0  0.943917  0  0  0.138207  0  1.004286  0  0  0.141183  0  1.004253  0  0.154476  0  0.11893  0.135798  0  1.004878  0
H  H41  1  0.04079194  0.82709500  0.16189412  1  0  0.130468  0  0.944102  0  0  0.138157  0  1.004481  0  0  0.141124  0  1.004449  0  0.154551  0  0.118917  0.13575  0  1.00507  0
H  H42  1  0.45922317  0.32708993  0.66189606  1  0  0.130446  0  0.943954  0  0  0.138139  0  1.004351  0  0  0.141106  0  1.004314  0  0.154497  0  0.118912  0.135731  0  1.00494  0
H  H43  1  0.95922567  0.17290428  0.83810662  1  0  0.130409  0  0.944044  0  0  0.138127  0  1.004388  0  0  0.1411  0  1.004354  0  0.154547  0  0.118887  0.135718  0  1.00498  0
H  H44  1  0.85295080  0.44820826  0.44154391  1  0  0.115273  0  0.975283  0  0  0.123214  0  1.038072  0  0  0.126581  0  1.03651  0  0.13287  0  0.10786  0.120742  0  1.039375  0
H  H45  1  0.35295530  0.05179319  0.05844959  1  0  0.115192  0  0.97534  0  0  0.12316  0  1.038109  0  0  0.126527  0  1.036545  0  0.13263  0  0.107832  0.120686  0  1.039418  0
H  H46  1  0.14705281  0.55179029  0.55845237  1  0  0.115166  0  0.975366  0  0  0.123127  0  1.038147  0  0  0.126495  0  1.036582  0  0.132643  0  0.107824  0.120654  0  1.039457  0
H  H47  1  0.64704552  0.94820899  0.94154760  1  0  0.115165  0  0.975359  0  0  0.123126  0  1.038135  0  0  0.126494  0  1.036571  0  0.132718  0  0.107802  0.120655  0  1.03944  0
H  H48  1  0.41923187  0.52769181  0.28909691  1  0  0.108557  0  0.980597  0  0  0.114237  0  1.050095  0  0  0.117212  0  1.049214  0  0.133492  0  0.102129  0.111998  0  1.050864  0
H  H49  1  0.91927777  0.97230675  0.21091631  1  0  0.108525  0  0.980689  0  0  0.114204  0  1.050196  0  0  0.117208  0  1.049229  0  0.132796  0  0.102103  0.11196  0  1.05096  0
H  H50  1  0.58075355  0.47230747  0.71090749  1  0  0.108511  0  0.980703  0  0  0.114202  0  1.050194  0  0  0.117188  0  1.049278  0  0.133549  0  0.102115  0.111962  0  1.050959  0
H  H51  1  0.08075524  0.02768819  0.78909372  1  0  0.108546  0  0.980613  0  0  0.114219  0  1.050134  0  0  0.1172  0  1.049232  0  0.133644  0  0.102115  0.111977  0  1.050896  0
C  C52  1  0.60801022  0.88270465  0.60161269  1  0  0.108384  0  3.762238  0  0  0.106444  0  4.009759  0  0  0.104909  0  4.034557  0  0.200493  0  0.092605  0.107274  0  3.993433  0
C  C53  1  0.10800352  0.61730188  0.89837993  1  0  0.107919  0  3.762488  0  0  0.106095  0  4.009889  0  0  0.104562  0  4.034686  0  0.20016  0  0.092385  0.106925  0  3.993561  0
C  C54  1  0.39199199  0.11729246  0.39838689  1  0  0.108356  0  3.762124  0  0  0.106335  0  4.009763  0  0  0.104799  0  4.034558  0  0.200531  0  0.092598  0.107165  0  3.99344  0
C  C55  1  0.89200429  0.38270320  0.10161981  1  0  0.108261  0  3.762208  0  0  0.106174  0  4.009905  0  0  0.10464  0  4.034701  0  0.200475  0  0.092402  0.107003  0  3.993578  0
C  C56  1  0.57274437  0.77299585  0.46016371  1  0  0.110237  0  3.614785  0  0  0.066445  0  3.872802  0  0  0.077683  0  3.884422  0  0.390362  0  0.068291  0.058373  0  3.866266  0
C  C57  1  0.07275446  0.72700633  0.03983454  1  0  0.110253  0  3.614897  0  0  0.066507  0  3.872844  0  0  0.077727  0  3.884457  0  0.390019  0  0.068305  0.058436  0  3.866309  0
C  C58  1  0.42725364  0.22700343  0.53983520  1  0  0.110011  0  3.614963  0  0  0.066322  0  3.872841  0  0  0.077591  0  3.88448  0  0.390395  0  0.068283  0.05825  0  3.866306  0
C  C59  1  0.92725895  0.27299513  0.96016490  1  0  0.110121  0  3.61503  0  0  0.066359  0  3.872948  0  0  0.077591  0  3.884566  0  0.390266  0  0.068252  0.058284  0  3.866415  0
C  C60  1  0.58119026  0.68130441  0.40384273  1  0  -0.116428  0  3.638887  0  0  -0.133609  0  3.884421  0  0  -0.142069  0  3.902478  0  0.025241  0  -0.058767  -0.128865  0  3.873962  0
C  C61  1  0.08121435  0.81869632  0.09615822  1  0  -0.116474  0  3.639327  0  0  -0.133629  0  3.884751  0  0  -0.142081  0  3.902814  0  0.025261  0  -0.058753  -0.128886  0  3.87429  0
C  C62  1  0.41879936  0.31869415  0.59615844  1  0  -0.116362  0  3.639169  0  0  -0.13356  0  3.884739  0  0  -0.142001  0  3.902773  0  0.02514  0  -0.058754  -0.128814  0  3.874278  0
C  C63  1  0.91880186  0.18130513  0.90384367  1  0  -0.116328  0  3.639187  0  0  -0.133515  0  3.884711  0  0  -0.141967  0  3.902768  0  0.02526  0  -0.058724  -0.128766  0  3.874249  0
C  C64  1  0.59953214  0.06376129  0.71035655  1  0  0.132218  0  3.654969  0  0  0.101179  0  3.904467  0  0  0.107278  0  3.921635  0  0.400638  0  0.045266  0.096879  0  3.893725  0
C  C65  1  0.09953244  0.43625320  0.78963225  1  0  0.132361  0  3.654487  0  0  0.101304  0  3.904148  0  0  0.107407  0  3.921318  0  0.400637  0  0.045268  0.096991  0  3.893398  0
C  C66  1  0.40046167  0.93623799  0.28964113  1  0  0.132304  0  3.654836  0  0  0.101194  0  3.904425  0  0  0.107292  0  3.921594  0  0.400583  0  0.045214  0.096893  0  3.893677  0
C  C67  1  0.90045018  0.56375405  0.21036864  1  0  0.132326  0  3.654919  0  0  0.101368  0  3.904447  0  0  0.10747  0  3.921613  0  0.401243  0  0.045312  0.097051  0  3.893702  0
C  C68  1  0.74856975  0.33886315  0.33292818  1  0  0.109452  0  3.744992  0  0  0.084679  0  4.006595  0  0  0.089019  0  4.024227  0  0.435032  0  0.035353  0.081869  0  3.994681  0
C  C69  1  0.24859244  0.16113468  0.16706685  1  0  0.109544  0  3.745114  0  0  0.084769  0  4.006728  0  0  0.08911  0  4.024361  0  0.434699  0  0.035401  0.081958  0  3.994812  0
C  C70  1  0.25142686  0.66113541  0.66706749  1  0  0.109389  0  3.745072  0  0  0.084652  0  4.006684  0  0  0.08899  0  4.024318  0  0.434786  0  0.035315  0.081843  0  3.994766  0
C  C71  1  0.75141257  0.83886532  0.83293285  1  0  0.109418  0  3.745162  0  0  0.08466  0  4.006765  0  0  0.088998  0  4.024401  0  0.43475  0  0.035324  0.081849  0  3.994849  0
C  C72  1  0.51782929  0.89577755  0.67960699  1  0  -0.07992  0  3.696755  0  0  -0.108564  0  3.949721  0  0  -0.105166  0  3.967191  0  -0.020718  0  -0.067758  -0.110894  0  3.938124  0
C  C73  1  0.01781979  0.60423622  0.82038927  1  0  -0.079553  0  3.696713  0  0  -0.108275  0  3.949579  0  0  -0.104876  0  3.967042  0  -0.020082  0  -0.067616  -0.110601  0  3.938001  0
C  C74  1  0.48217152  0.10421738  0.32039266  1  0  -0.079836  0  3.696847  0  0  -0.10848  0  3.949775  0  0  -0.10508  0  3.967242  0  -0.020419  0  -0.067711  -0.11081  0  3.938185  0
C  C75  1  0.98218382  0.39577103  0.17961162  1  0  -0.079777  0  3.696926  0  0  -0.108358  0  3.949833  0  0  -0.104959  0  3.967299  0  -0.020195  0  -0.067615  -0.110685  0  3.938251  0
C  C76  1  0.75510782  0.43194990  0.38856067  1  0  -0.137065  0  3.688334  0  0  -0.156108  0  3.930077  0  0  -0.161347  0  3.95101  0  0.039183  0  -0.077367  -0.152803  0  3.916135  0
C  C77  1  0.25512351  0.06805010  0.11143612  1  0  -0.136937  0  3.688636  0  0  -0.156021  0  3.930289  0  0  -0.161266  0  3.951227  0  0.039493  0  -0.077302  -0.152709  0  3.916342  0
C  C78  1  0.24488739  0.56804793  0.61143604  1  0  -0.136746  0  3.688332  0  0  -0.155811  0  3.930031  0  0  -0.161051  0  3.950967  0  0.039353  0  -0.077259  -0.152507  0  3.916086  0
C  C79  1  0.74488150  0.93195136  0.88856394  1  0  -0.136828  0  3.688343  0  0  -0.155879  0  3.93007  0  0  -0.161116  0  3.951003  0  0.039248  0  -0.077261  -0.152572  0  3.916127  0
C  C80  1  0.51293728  0.98913381  0.73463491  1  0  -0.097807  0  3.72068  0  0  -0.105798  0  3.961784  0  0  -0.113545  0  3.985134  0  0.046108  0  -0.079446  -0.100964  0  3.946583  0
C  C81  1  0.01292918  0.51087851  0.76535854  1  0  -0.09794  0  3.720364  0  0  -0.106074  0  3.961596  0  0  -0.11382  0  3.984966  0  0.045922  0  -0.079517  -0.101242  0  3.9464  0
C  C82  1  0.48706353  0.01086040  0.26536273  1  0  -0.097933  0  3.720837  0  0  -0.105845  0  3.961934  0  0  -0.113583  0  3.985275  0  0.046024  0  -0.079517  -0.101016  0  3.946741  0
C  C83  1  0.98705903  0.48912801  0.23464156  1  0  -0.097902  0  3.720489  0  0  -0.105952  0  3.961605  0  0  -0.11371  0  3.984963  0  0.045671  0  -0.079532  -0.101123  0  3.94641  0
C  C84  1  0.63598076  0.50310504  0.37439652  1  0  0.075644  0  3.756829  0  0  0.089636  0  3.985547  0  0  0.089988  0  4.007175  0  -0.014469  0  0.010308  0.089619  0  3.970911  0
C  C85  1  0.13600485  0.99689714  0.12560601  1  0  0.075704  0  3.757018  0  0  0.089774  0  3.985563  0  0  0.090128  0  4.007199  0  -0.014484  0  0.010308  0.089747  0  3.970927  0
C  C86  1  0.36401166  0.49689206  0.62560245  1  0  0.075402  0  3.756807  0  0  0.089448  0  3.985528  0  0  0.089799  0  4.007161  0  -0.014325  0  0.010272  0.089433  0  3.970891  0
C  C87  1  0.86400856  0.00310432  0.87439466  1  0  0.075572  0  3.756701  0  0  0.089522  0  3.985498  0  0  0.089871  0  4.007128  0  -0.014275  0  0.010276  0.089503  0  3.970863  0
C  C88  1  0.86402396  0.32552726  0.54429855  1  0  0.265968  0  4.000297  0  0  0.260747  0  4.301065  0  0  0.277894  0  4.318253  0  0.583202  0  0.120145  0.248999  0  4.288213  0
C  C89  1  0.36402285  0.17446839  0.95569533  1  0  0.266211  0  4.000309  0  0  0.260996  0  4.301047  0  0  0.278133  0  4.318228  0  0.583436  0  0.120345  0.249251  0  4.288194  0
C  C90  1  0.13596845  0.67447709  0.45570650  1  0  0.266143  0  4.000204  0  0  0.26093  0  4.300966  0  0  0.278078  0  4.318145  0  0.58285  0  0.120238  0.249181  0  4.288112  0
C  C91  1  0.63596816  0.82549756  0.04428794  1  0  0.266371  0  3.999954  0  0  0.261172  0  4.300699  0  0  0.278324  0  4.317896  0  0.580729  0  0.120407  0.249417  0  4.287843  0
C  C92  1  0.69109459  0.62015553  0.51789988  1  0  -0.128924  0  3.649424  0  0  -0.147758  0  3.898255  0  0  -0.156154  0  3.917106  0  0.051595  0  -0.06446  -0.142661  0  3.886366  0
C  C93  1  0.19110468  0.87984955  0.98209787  1  0  -0.128663  0  3.64923  0  0  -0.147578  0  3.89807  0  0  -0.155976  0  3.916924  0  0.052073  0  -0.064405  -0.142484  0  3.88618  0
C  C94  1  0.30889922  0.37983940  0.48210038  1  0  -0.128903  0  3.649186  0  0  -0.14768  0  3.898003  0  0  -0.156074  0  3.916854  0  0.028775  0  -0.064473  -0.142585  0  3.886116  0
C  C95  1  0.80889893  0.12015335  0.01790255  1  0  -0.128803  0  3.649207  0  0  -0.147677  0  3.898082  0  0  -0.156073  0  3.916933  0  0.051979  0  -0.064488  -0.142579  0  3.886194  0
C  C96  1  0.72840823  0.32767891  0.78044350  1  0  0.26923  0  3.988615  0  0  0.260528  0  4.286564  0  0  0.277877  0  4.300293  0  0.556103  0  0.137631  0.249166  0  4.276323  0
C  C97  1  0.22840713  0.17233123  0.71955888  1  0  0.26921  0  3.988527  0  0  0.260503  0  4.28647  0  0  0.277853  0  4.300198  0  0.557058  0  0.137735  0.249143  0  4.276228  0
C  C98  1  0.27159118  0.67232906  0.21956123  1  0  0.269378  0  3.988403  0  0  0.260684  0  4.286333  0  0  0.278035  0  4.30006  0  0.555632  0  0.13779  0.249321  0  4.276093  0
C  C99  1  0.77158809  0.82766950  0.28043795  1  0  0.269364  0  3.988407  0  0  0.260656  0  4.286342  0  0  0.278008  0  4.300077  0  0.556012  0  0.137823  0.249295  0  4.276101  0
C  C100  1  0.51711264  0.47649051  0.30331702  1  0  -0.138926  0  3.689736  0  0  -0.157798  0  3.934467  0  0  -0.162553  0  3.955256  0  -0.091761  0  -0.078113  -0.154892  0  3.920822  0
C  C101  1  0.01714653  0.02350877  0.19669120  1  0  -0.139018  0  3.689559  0  0  -0.157966  0  3.934346  0  0  -0.162718  0  3.955152  0  -0.091099  0  -0.07816  -0.155046  0  3.920694  0
C  C102  1  0.48287697  0.52350877  0.69668494  1  0  -0.138887  0  3.689774  0  0  -0.157804  0  3.934537  0  0  -0.162557  0  3.955334  0  -0.091896  0  -0.078129  -0.154897  0  3.92089  0
C  C103  1  0.98287388  0.97648761  0.80331309  1  0  -0.138941  0  3.689732  0  0  -0.157814  0  3.934485  0  0  -0.162566  0  3.955278  0  -0.091935  0  -0.078158  -0.1549  0  3.920835  0
C  C104  1  0.68786685  0.96089069  0.58014788  1  0  0.045469  0  3.670501  0  0  0.00664  0  3.926829  0  0  0.012682  0  3.940401  0  0.547309  0  0.039044  0.002363  0  3.918663  0
C  C105  1  0.18787274  0.53911512  0.91984456  1  0  0.045848  0  3.670739  0  0  0.007022  0  3.926859  0  0  0.013075  0  3.940427  0  0.547153  0  0.039206  0.002753  0  3.918704  0
C  C106  1  0.31212697  0.03910787  0.41985206  1  0  0.045463  0  3.670586  0  0  0.006638  0  3.92694  0  0  0.012679  0  3.94051  0  0.547849  0  0.039003  0.002354  0  3.918773  0
C  C107  1  0.81212947  0.46088489  0.08015514  1  0  0.04574  0  3.670577  0  0  0.007026  0  3.926795  0  0  0.013078  0  3.940361  0  0.547142  0  0.039232  0.002752  0  3.918633  0
C  C108  1  0.52355273  0.38187079  0.25054084  1  0  0.110144  0  3.738514  0  0  0.086756  0  3.997451  0  0  0.090791  0  4.015718  0  0.497803  0  0.035652  0.084102  0  3.985271  0
C  C109  1  0.02358242  0.11813283  0.24946113  1  0  0.110453  0  3.738234  0  0  0.087015  0  3.997211  0  0  0.091048  0  4.015487  0  0.497549  0  0.035774  0.084361  0  3.985024  0
C  C110  1  0.47644108  0.61812994  0.74945903  1  0  0.110221  0  3.738406  0  0  0.086827  0  3.997349  0  0  0.090861  0  4.015622  0  0.497819  0  0.035649  0.084173  0  3.985166  0
C  C111  1  0.97643519  0.88186717  0.75054223  1  0  0.110262  0  3.738646  0  0  0.086871  0  3.997576  0  0  0.090906  0  4.015848  0  0.497136  0  0.03575  0.084217  0  3.985391  0
C  C112  1  0.63622851  0.60214035  0.43215746  1  0  0.139862  0  3.685376  0  0  0.146735  0  3.916862  0  0  0.155707  0  3.933661  0  0.048706  0  0.038302  0.140518  0  3.905998  0
C  C113  1  0.13625120  0.89786183  0.06784079  1  0  0.139723  0  3.685498  0  0  0.14666  0  3.916831  0  0  0.155628  0  3.933639  0  0.04827  0  0.038226  0.140451  0  3.905962  0
C  C114  1  0.36376391  0.39785458  0.56784525  1  0  0.139933  0  3.685244  0  0  0.146723  0  3.916806  0  0  0.155694  0  3.93361  0  0.0486  0  0.03824  0.140507  0  3.905942  0
C  C115  1  0.86376361  0.10213962  0.93215987  1  0  0.139835  0  3.685275  0  0  0.146698  0  3.916821  0  0  0.155668  0  3.933623  0  0.04823  0  0.038293  0.140481  0  3.905954  0
C  C116  1  0.68423178  0.71292063  0.57178562  1  0  0.104366  0  3.578682  0  0  0.065438  0  3.830142  0  0  0.074242  0  3.844285  0  0.310498  0  0.063346  0.059189  0  3.821639  0
C  C117  1  0.18423488  0.78708590  0.92820883  1  0  0.104455  0  3.578695  0  0  0.065503  0  3.830224  0  0  0.074311  0  3.844366  0  0.311092  0  0.063308  0.059255  0  3.821718  0
C  C118  1  0.31576763  0.28707431  0.42821281  1  0  0.104456  0  3.578729  0  0  0.065531  0  3.8302  0  0  0.074333  0  3.844342  0  0.333376  0  0.063388  0.05929  0  3.821683  0
C  C119  1  0.81577153  0.21291700  0.07178975  1  0  0.104311  0  3.578621  0  0  0.065373  0  3.830136  0  0  0.074181  0  3.844276  0  0.31103  0  0.063278  0.059112  0  3.821654  0
S  S120  1  0.87725408  0.20710320  0.50173520  1  0  -0.384861  0  2.373678  0  0  -0.366593  0  2.762017  0  0  -0.379063  0  2.750321  0  -0.019612  0  -0.207755  -0.356989  0  2.768149  0
S  S121  1  0.37725297  0.29290043  0.99826127  1  0  -0.384973  0  2.373222  0  0  -0.366715  0  2.761567  0  0  -0.379177  0  2.749856  0  -0.019658  0  -0.207807  -0.357103  0  2.767692  0
S  S122  1  0.12274393  0.79290550  0.49827155  1  0  -0.384876  0  2.373547  0  0  -0.366595  0  2.761845  0  0  -0.379066  0  2.750143  0  -0.019155  0  -0.207739  -0.356985  0  2.767971  0
S  S123  1  0.62276324  0.70708074  0.00172884  1  0  -0.384753  0  2.373952  0  0  -0.366515  0  2.762327  0  0  -0.378985  0  2.750633  0  -0.017923  0  -0.20769  -0.356913  0  2.768457  0
S  S124  1  0.64410051  0.41394777  0.85967158  1  0  -0.347215  0  2.397456  0  0  -0.321087  0  2.772919  0  0  -0.331606  0  2.760147  0  0.020638  0  -0.176739  -0.312846  0  2.779903  0
S  S125  1  0.14408541  0.08605948  0.64033252  1  0  -0.347256  0  2.397515  0  0  -0.321134  0  2.772978  0  0  -0.331658  0  2.760208  0  0.020558  0  -0.176803  -0.312901  0  2.779974  0
S  S126  1  0.35589610  0.58605876  0.14033219  1  0  -0.347373  0  2.397543  0  0  -0.321243  0  2.772985  0  0  -0.331778  0  2.760241  0  0.020711  0  -0.176863  -0.313001  0  2.779966  0
S  S127  1  0.85590840  0.91394052  0.35966595  1  0  -0.347307  0  2.397583  0  0  -0.321161  0  2.773012  0  0  -0.331705  0  2.760267  0  0.020473  0  -0.176821  -0.312923  0  2.780001  0
N  N128  1  0.62208857  0.78755028  0.54298597  1  0  -0.043832  0  3.603561  0  0  0.046501  0  3.801925  0  0  0.032909  0  3.828838  0  -1.263143  0  -0.197314  0.055149  0  3.784364  0
N  N129  1  0.12209307  0.71245987  0.95700999  1  0  -0.04369  0  3.603266  0  0  0.0466  0  3.801591  0  0  0.033003  0  3.828511  0  -1.26357  0  -0.197157  0.055249  0  3.784033  0
N  N130  1  0.37791224  0.21244755  0.45701318  1  0  -0.043697  0  3.603654  0  0  0.046624  0  3.801989  0  0  0.033036  0  3.828891  0  -1.26311  0  -0.197264  0.055269  0  3.784431  0
N  N131  1  0.87791754  0.28754666  0.04299011  1  0  -0.043705  0  3.603183  0  0  0.04665  0  3.801561  0  0  0.033056  0  3.828476  0  -1.263513  0  -0.197184  0.055299  0  3.784004  0
N  N132  1  0.79006154  0.26610985  0.72242644  1  0  -0.495315  0  3.109492  0  0  -0.449766  0  3.434479  0  0  -0.459943  0  3.433918  0  -1.297495  0  -0.428651  -0.443317  0  3.433604  0
N  N133  1  0.29006604  0.23389885  0.77757008  1  0  -0.495263  0  3.109371  0  0  -0.44971  0  3.434392  0  0  -0.459885  0  3.433814  0  -1.298414  0  -0.428695  -0.443261  0  3.43351  0
N  N134  1  0.20994207  0.73389740  0.27757751  1  0  -0.495326  0  3.109281  0  0  -0.44979  0  3.434305  0  0  -0.45996  0  3.433719  0  -1.297209  0  -0.428703  -0.443343  0  3.433427  0
N  N135  1  0.70992778  0.76610260  0.22242570  1  0  -0.495343  0  3.109329  0  0  -0.449786  0  3.434329  0  0  -0.459953  0  3.43374  0  -1.297314  0  -0.428733  -0.443338  0  3.43345  0
N  N136  1  0.68500163  0.05082458  0.63441086  1  0  -0.275405  0  3.348647  0  0  -0.206758  0  3.639418  0  0  -0.216052  0  3.647345  0  -1.225616  0  -0.350351  -0.201559  0  3.634552  0
N  N137  1  0.18500332  0.44918846  0.86558002  1  0  -0.275792  0  3.348753  0  0  -0.207072  0  3.639501  0  0  -0.216375  0  3.647433  0  -1.225102  0  -0.350372  -0.201828  0  3.634587  0
N  N138  1  0.31498799  0.94917542  0.36559066  1  0  -0.275475  0  3.348596  0  0  -0.206769  0  3.639368  0  0  -0.216064  0  3.647295  0  -1.226312  0  -0.350301  -0.201559  0  3.634489  0
N  N139  1  0.81498769  0.55081517  0.13442180  1  0  -0.275683  0  3.348898  0  0  -0.207026  0  3.639613  0  0  -0.216324  0  3.647543  0  -1.225819  0  -0.350378  -0.201782  0  3.634699  0
N  N140  1  0.63554125  0.31275067  0.26453140  1  0  -0.334213  0  3.11292  0  0  -0.293344  0  3.384921  0  0  -0.304463  0  3.400107  0  -1.234047  0  -0.32517  -0.285595  0  3.374433  0
N  N141  1  0.13556954  0.18724934  0.23546539  1  0  -0.334257  0  3.112656  0  0  -0.293403  0  3.384718  0  0  -0.304523  0  3.399905  0  -1.233479  0  -0.325247  -0.285657  0  3.374233  0
N  N142  1  0.36445257  0.68724934  0.73546463  1  0  -0.334262  0  3.112851  0  0  -0.293391  0  3.384839  0  0  -0.304512  0  3.400028  0  -1.23401  0  -0.32515  -0.28564  0  3.374352  0
N  N143  1  0.86443967  0.81274922  0.76453577  1  0  -0.334111  0  3.112797  0  0  -0.293267  0  3.384814  0  0  -0.304387  0  3.400001  0  -1.233419  0  -0.325121  -0.285519  0  3.374327  0
N  N144  1  0.85289201  0.41071087  0.57314127  1  0  -0.519251  0  2.659264  0  0  -0.485685  0  2.888982  0  0  -0.502035  0  2.901445  0  -1.282161  0  -0.369615  -0.47341  0  2.879856  0
N  N145  1  0.35288391  0.08929565  0.92685410  1  0  -0.51941  0  2.659693  0  0  -0.485842  0  2.889397  0  0  -0.502186  0  2.901863  0  -1.282215  0  -0.369777  -0.473567  0  2.880273  0
N  N146  1  0.14710180  0.58930000  0.42686236  1  0  -0.519396  0  2.659334  0  0  -0.485856  0  2.889104  0  0  -0.502201  0  2.901559  0  -1.282264  0  -0.369715  -0.473581  0  2.879987  0
N  N147  1  0.64710850  0.91069349  0.07314045  1  0  -0.51982  0  2.658631  0  0  -0.48628  0  2.888402  0  0  -0.502634  0  2.900863  0  -1.281266  0  -0.369992  -0.474002  0  2.879283  0
