# generated using pymatgen
data_Cu2H9C13N4Cl
_symmetry_space_group_name_H-M   'P 1'
_cell_length_a   8.71506394
_cell_length_b   9.17626653
_cell_length_c   9.76455462
_cell_angle_alpha   62.82990536
_cell_angle_beta   76.00464219
_cell_angle_gamma   64.63769458
_symmetry_Int_Tables_number   1
_chemical_formula_structural   Cu2H9C13N4Cl
_chemical_formula_sum   'Cu4 H18 C26 N8 Cl2'
_cell_volume   626.72242805
_cell_formula_units_Z   2
loop_
 _symmetry_equiv_pos_site_id
 _symmetry_equiv_pos_as_xyz
  1  'x, y, z'
loop_
 _atom_site_type_symbol
 _atom_site_label
 _atom_site_symmetry_multiplicity
 _atom_site_fract_x
 _atom_site_fract_y
 _atom_site_fract_z
 _atom_site_occupancy
 _atom_site_pbe_bader_spin_density
 _atom_site_pbe_cm5_charge
 _atom_site_pbe_ddec_charge
 _atom_site_pbe_ddec_spin_density
 _atom_site_pbe_ddec_sum_bond_order
 _atom_site_pbe_magmom
Cu  Cu0  1  0.72990532  0.18851080  0.08040340  1  0  0.473135  0.306621  0  2.329815  0
Cu  Cu1  1  0.27009536  0.81148695  0.91959817  1  0  0.47316  0.306572  0  2.329904  0
Cu  Cu2  1  0.73739451  0.01222829  0.45482925  1  0  0.470754  0.284768  0  2.32834  0
Cu  Cu3  1  0.26260337  0.98777078  0.54517029  1  0  0.470728  0.284796  0  2.328265  0
H  H4  1  0.90943967  0.71866461  0.99617307  1  0  0.105187  0.112572  0  1.015931  0
H  H5  1  0.09055811  0.28134499  0.00382499  1  0  0.105194  0.112587  0  1.015939  0
H  H6  1  0.91373717  0.91404221  0.71980132  1  0  0.109198  0.074401  0  1.027412  0
H  H7  1  0.08625964  0.08596342  0.28019457  1  0  0.109224  0.074414  0  1.027431  0
H  H8  1  0.62136939  0.72058854  0.62112887  1  0  0.107519  0.081198  0  1.015854  0
H  H9  1  0.37862539  0.27940927  0.37887188  1  0  0.107553  0.081249  0  1.015846  0
H  H10  1  0.60530586  0.51552772  0.89431855  1  0  0.097702  0.100994  0  1.06848  0
H  H11  1  0.39469954  0.48447001  0.10568512  1  0  0.097739  0.101049  0  1.068437  0
H  H12  1  0.79007520  0.60878501  0.26342624  1  0  0.096471  0.138491  0  1.040362  0
H  H13  1  0.20992901  0.39121274  0.73657767  1  0  0.09647  0.138468  0  1.040415  0
H  H14  1  0.98592414  0.34546467  0.54185064  1  0  0.103618  0.117293  0  1.015058  0
H  H15  1  0.01407051  0.65454367  0.45814964  1  0  0.103609  0.117289  0  1.015047  0
H  H16  1  0.97635808  0.25958798  0.82250189  1  0  0.104608  0.075221  0  1.034523  0
H  H17  1  0.02363513  0.74041774  0.17749779  1  0  0.104629  0.07525  0  1.034524  0
H  H18  1  0.53873659  0.15216116  0.89711333  1  0  0.111498  0.087698  0  0.997678  0
H  H19  1  0.46126877  0.84782995  0.10288810  1  0  0.111509  0.087717  0  0.997657  0
H  H20  1  0.52854025  0.23583047  0.61947277  1  0  0.096033  0.113506  0  1.047471  0
H  H21  1  0.47146411  0.76415670  0.38052956  1  0  0.096043  0.113545  0  1.047448  0
C  C22  1  0.84185932  0.71503343  0.91820784  1  0  -0.08595  -0.161725  0  3.932086  0
C  C23  1  0.15814071  0.28496960  0.08179363  1  0  -0.085948  -0.161755  0  3.93224  0
C  C24  1  0.84521434  0.82486104  0.76338004  1  0  0.034304  0.093047  0  3.952141  0
C  C25  1  0.15478125  0.17514465  0.23661916  1  0  0.034279  0.093063  0  3.952232  0
C  C26  1  0.68425773  0.71511220  0.70814590  1  0  0.032145  0.093375  0  3.941865  0
C  C27  1  0.31574776  0.28488544  0.29185062  1  0  0.032133  0.093332  0  3.941961  0
C  C28  1  0.67542607  0.60126074  0.86136377  1  0  -0.095868  -0.18751  0  3.987225  0
C  C29  1  0.32457424  0.39874491  0.13863649  1  0  -0.095933  -0.187593  0  3.987136  0
C  C30  1  0.75644351  0.59730837  0.97199180  1  0  0.009713  0.091792  0  4.00821  0
C  C31  1  0.24355626  0.40269203  0.02800984  1  0  0.009737  0.091892  0  4.008086  0
C  C32  1  0.75387754  0.47864063  0.13379866  1  0  0.076372  0.123742  0  4.058756  0
C  C33  1  0.24612816  0.52135970  0.86620177  1  0  0.076373  0.12366  0  4.058608  0
C  C34  1  0.77510517  0.49786302  0.26210816  1  0  -0.1163  -0.283982  0  3.935239  0
C  C35  1  0.22490148  0.50213463  0.73789016  1  0  -0.116342  -0.284068  0  3.935219  0
C  C36  1  0.75445997  0.35189227  0.38945744  1  0  0.077602  0.135403  0  4.048995  0
C  C37  1  0.24554314  0.64810540  0.61053956  1  0  0.077685  0.135622  0  4.04883  0
C  C38  1  0.75461768  0.30363575  0.55405444  1  0  0.009262  0.093706  0  3.997641  0
C  C39  1  0.24538021  0.69636332  0.44594408  1  0  0.009278  0.093599  0  3.997722  0
C  C40  1  0.88146996  0.30850805  0.61539656  1  0  -0.088564  -0.16939  0  3.951277  0
C  C41  1  0.11852865  0.69149232  0.38460226  1  0  -0.088539  -0.169321  0  3.95128  0
C  C42  1  0.87763401  0.25900012  0.77285515  1  0  0.029052  0.076561  0  3.977429  0
C  C43  1  0.12236251  0.74100291  0.22714296  1  0  0.028951  0.076405  0  3.977524  0
C  C44  1  0.63437867  0.19797335  0.81439598  1  0  0.034322  0.089766  0  3.927018  0
C  C45  1  0.36562312  0.80201781  0.18560720  1  0  0.034281  0.089634  0  3.926974  0
C  C46  1  0.62967454  0.24536397  0.65832519  1  0  -0.08765  -0.168694  0  3.957947  0
C  C47  1  0.37032466  0.75463119  0.34167884  1  0  -0.087629  -0.168621  0  3.957944  0
N  N48  1  0.76709240  0.82748616  0.65747823  1  0  -0.383495  -0.216765  0  3.724548  0
N  N49  1  0.23290723  0.17251814  0.34251868  1  0  -0.3835  -0.216799  0  3.724542  0
N  N50  1  0.72730372  0.32529088  0.18321249  1  0  -0.302188  -0.194576  0  3.641305  0
N  N51  1  0.27270006  0.67470816  0.81678890  1  0  -0.302187  -0.194475  0  3.641215  0
N  N52  1  0.72679241  0.24857761  0.33969002  1  0  -0.307898  -0.197586  0  3.674092  0
N  N53  1  0.27320848  0.75141618  0.66031119  1  0  -0.30797  -0.197707  0  3.674018  0
N  N54  1  0.75515806  0.20610746  0.87300128  1  0  -0.385309  -0.224505  0  3.721029  0
N  N55  1  0.24484177  0.79389288  0.12699526  1  0  -0.385269  -0.22437  0  3.720922  0
Cl  Cl56  1  0.68736818  0.93432684  0.27114428  1  0  -0.32527  -0.48543  0  1.547746  0
Cl  Cl57  1  0.31262683  0.06567362  0.72885833  1  0  -0.325265  -0.485431  0  1.547748  0
