# generated using pymatgen
data_AgH10C11N3O2
_symmetry_space_group_name_H-M   'P 1'
_cell_length_a   6.95763251
_cell_length_b   8.61483472
_cell_length_c   10.89970155
_cell_angle_alpha   67.35269483
_cell_angle_beta   76.16764920
_cell_angle_gamma   70.08460426
_symmetry_Int_Tables_number   1
_chemical_formula_structural   AgH10C11N3O2
_chemical_formula_sum   'Ag2 H20 C22 N6 O4'
_cell_volume   562.48074878
_cell_formula_units_Z   2
loop_
 _symmetry_equiv_pos_site_id
 _symmetry_equiv_pos_as_xyz
  1  'x, y, z'
loop_
 _atom_site_type_symbol
 _atom_site_label
 _atom_site_symmetry_multiplicity
 _atom_site_fract_x
 _atom_site_fract_y
 _atom_site_fract_z
 _atom_site_occupancy
 _atom_site_hle17_bader_spin_density
 _atom_site_hle17_ddec_charge
 _atom_site_hle17_ddec_spin_density
 _atom_site_hle17_ddec_sum_bond_order
 _atom_site_hle17_magmom
 _atom_site_hse06_10hf_bader_spin_density
 _atom_site_hse06_10hf_ddec_charge
 _atom_site_hse06_10hf_ddec_spin_density
 _atom_site_hse06_10hf_ddec_sum_bond_order
 _atom_site_hse06_10hf_magmom
 _atom_site_hse06_bader_spin_density
 _atom_site_hse06_ddec_charge
 _atom_site_hse06_ddec_spin_density
 _atom_site_hse06_ddec_sum_bond_order
 _atom_site_hse06_magmom
 _atom_site_pbe_bader_spin_density
 _atom_site_pbe_cm5_charge
 _atom_site_pbe_ddec_charge
 _atom_site_pbe_ddec_spin_density
 _atom_site_pbe_ddec_sum_bond_order
 _atom_site_pbe_magmom
Ag  Ag0  1  0.49672825  0.94895189  0.39599446  1  0  0.507158  0  1.554068  0  0  0.39237  0  2.016142  0  0  0.423756  0  1.961992  0  0  0.423157  0.371382  0  2.052985  0
Ag  Ag1  1  0.50327276  0.05105105  0.60400759  1  0  0.507132  0  1.554085  0  0  0.392362  0  2.016141  0  0  0.423744  0  1.96199  0  0  0.423181  0.371376  0  2.052977  0
H  H2  1  0.15339442  0.00639589  0.24646349  1  0  0.082556  0  0.935813  0  0  0.092311  0  0.999043  0  0  0.09484  0  0.995292  0  0  0.11507  0.090368  0  1.001688  0
H  H3  1  0.84660452  0.99360438  0.75354149  1  0  0.082515  0  0.935933  0  0  0.092283  0  0.999144  0  0  0.094807  0  0.995403  0  0  0.115033  0.09036  0  1.001764  0
H  H4  1  0.05903810  0.91029149  0.08298240  1  0  0.111006  0  0.998827  0  0  0.120659  0  1.062401  0  0  0.12408  0  1.062689  0  0  0.099951  0.118042  0  1.062869  0
H  H5  1  0.94096498  0.08971414  0.91701579  1  0  0.110998  0  0.998856  0  0  0.120658  0  1.062416  0  0  0.12408  0  1.062701  0  0  0.099948  0.118028  0  1.062896  0
H  H6  1  0.44494062  0.61179776  0.91240933  1  0  0.125886  0  0.959135  0  0  0.145285  0  1.020067  0  0  0.147317  0  1.019344  0  0  0.096067  0.143823  0  1.020572  0
H  H7  1  0.55505979  0.38820256  0.08759358  1  0  0.125877  0  0.959111  0  0  0.145284  0  1.020046  0  0  0.14732  0  1.01932  0  0  0.096074  0.143811  0  1.020565  0
H  H8  1  0.36704795  0.84019870  0.82448342  1  0  0.111662  0  0.967017  0  0  0.127232  0  1.047052  0  0  0.130477  0  1.043138  0  0  0.086539  0.125016  0  1.049534  0
H  H9  1  0.63294951  0.15980163  0.17551810  1  0  0.111676  0  0.967128  0  0  0.127253  0  1.04715  0  0  0.130498  0  1.043237  0  0  0.086555  0.125038  0  1.049633  0
H  H10  1  0.18044991  0.73340215  0.93182454  1  0  0.1162  0  0.934793  0  0  0.139215  0  0.989119  0  0  0.141482  0  0.987944  0  0  0.094036  0.137569  0  0.990067  0
H  H11  1  0.81954755  0.26659813  0.06817974  1  0  0.116178  0  0.934885  0  0  0.139219  0  0.989175  0  0  0.141484  0  0.988003  0  0  0.094062  0.137573  0  0.990121  0
H  H12  1  0.83458559  0.19338989  0.33748815  1  0  0.101112  0  0.956274  0  0  0.111524  0  1.018722  0  0  0.114489  0  1.017027  0  0  0.103248  0.109317  0  1.020067  0
H  H13  1  0.16541229  0.80660924  0.66250724  1  0  0.101123  0  0.956315  0  0  0.111516  0  1.018777  0  0  0.114478  0  1.017083  0  0  0.103248  0.109309  0  1.020122  0
H  H14  1  0.46354601  0.35313558  0.32226359  1  0  0.097601  0  0.961034  0  0  0.107919  0  1.023555  0  0  0.110817  0  1.022196  0  0  0.101457  0.105843  0  1.024574  0
H  H15  1  0.53645395  0.64686617  0.67773163  1  0  0.09758  0  0.961094  0  0  0.107918  0  1.023591  0  0  0.110817  0  1.02223  0  0  0.101465  0.105842  0  1.024608  0
H  H16  1  0.85001992  0.43329639  0.61427472  1  0  0.100375  0  0.942422  0  0  0.112333  0  1.002994  0  0  0.11541  0  1.001541  0  0  0.103816  0.110106  0  1.004032  0
H  H17  1  0.14998136  0.56670142  0.38572238  1  0  0.100497  0  0.942525  0  0  0.112468  0  1.003052  0  0  0.115556  0  1.001571  0  0  0.103854  0.110243  0  1.004091  0
H  H18  1  0.83258267  0.73883276  0.26522729  1  0  0.348673  0  0.909666  0  0  0.327117  0  0.980444  0  0  0.335002  0  0.973459  0  0  0.300611  0.321528  0  0.985387  0
H  H19  1  0.16741922  0.26116755  0.73477632  1  0  0.348692  0  0.909667  0  0  0.327138  0  0.980441  0  0  0.335024  0  0.973453  0  0  0.300661  0.321548  0  0.985384  0
H  H20  1  0.90594091  0.62798513  0.14797005  1  0  0.337796  0  0.864985  0  0  0.332179  0  0.907715  0  0  0.337931  0  0.903752  0  0  0.322702  0.328082  0  0.910655  0
H  H21  1  0.09406054  0.37201651  0.85203231  1  0  0.337735  0  0.865051  0  0  0.332116  0  0.907788  0  0  0.337869  0  0.903821  0  0  0.322691  0.328018  0  0.910729  0
C  C22  1  0.60748143  0.77353851  0.15541024  1  0  0.631353  0  3.839566  0  0  0.58905  0  4.116743  0  0  0.61392  0  4.126563  0  0  0.339392  0.572358  0  4.109517  0
C  C23  1  0.39251914  0.22646573  0.84459240  1  0  0.631231  0  3.839689  0  0  0.588881  0  4.116945  0  0  0.613743  0  4.126768  0  0  0.339295  0.572188  0  4.109717  0
C  C24  1  0.26870460  0.92519146  0.19238555  1  0  0.209928  0  3.73444  0  0  0.171899  0  3.994986  0  0  0.186474  0  4.009325  0  0  0.054397  0.162614  0  3.98498  0
C  C25  1  0.73129877  0.07480888  0.80761691  1  0  0.209977  0  3.734692  0  0  0.171934  0  3.995234  0  0  0.186502  0  4.009565  0  0  0.054422  0.162631  0  3.985219  0
C  C26  1  0.21781453  0.87547036  0.10053233  1  0  -0.292781  0  3.733559  0  0  -0.311756  0  3.985428  0  0  -0.326986  0  4.006572  0  0  -0.120787  -0.30226  0  3.971745  0
C  C27  1  0.78218500  0.12453262  0.89946718  1  0  -0.292789  0  3.733611  0  0  -0.311731  0  3.985486  0  0  -0.326959  0  4.006627  0  0  -0.120734  -0.302228  0  3.97182  0
C  C28  1  0.37935565  0.77826354  0.03162571  1  0  0.375082  0  3.752533  0  0  0.382833  0  3.996836  0  0  0.397796  0  4.01307  0  0  0.132071  0.373109  0  3.985434  0
C  C29  1  0.62064492  0.22174071  0.96837601  1  0  0.375114  0  3.752463  0  0  0.382756  0  3.99692  0  0  0.397721  0  4.013151  0  0  0.131941  0.37303  0  3.985516  0
C  C30  1  0.34043041  0.73642928  0.92016153  1  0  -0.36412  0  3.674287  0  0  -0.442736  0  3.906371  0  0  -0.446711  0  3.910803  0  0  -0.234912  -0.439726  0  3.902895  0
C  C31  1  0.65957192  0.26356973  0.07984148  1  0  -0.364114  0  3.674485  0  0  -0.442725  0  3.906619  0  0  -0.446705  0  3.91105  0  0  -0.234905  -0.439702  0  3.903151  0
C  C32  1  0.08630291  0.20044804  0.48850017  1  0  0.640311  0  3.914438  0  0  0.587895  0  4.203169  0  0  0.622672  0  4.19898  0  0  0.202807  0.564205  0  4.205214  0
C  C33  1  0.91369334  0.79954709  0.51149940  1  0  0.640091  0  3.914492  0  0  0.587656  0  4.203272  0  0  0.622431  0  4.199088  0  0  0.20274  0.563965  0  4.20531  0
C  C34  1  0.86478715  0.30320529  0.47805564  1  0  -0.059077  0  3.759615  0  0  -0.037316  0  3.998983  0  0  -0.044223  0  4.01996  0  0  -0.020589  -0.033021  0  3.985148  0
C  C35  1  0.13520866  0.69679115  0.52194361  1  0  -0.058879  0  3.759496  0  0  -0.037132  0  3.998879  0  0  -0.044041  0  4.019858  0  0  -0.020485  -0.032836  0  3.985043  0
C  C36  1  0.75421254  0.28201666  0.39423217  1  0  -0.084065  0  3.762597  0  0  -0.108253  0  4.01526  0  0  -0.107661  0  4.033494  0  0  -0.093606  -0.108783  0  4.003413  0
C  C37  1  0.24578667  0.71797849  0.60576694  1  0  -0.084174  0  3.762643  0  0  -0.108345  0  4.015341  0  0  -0.10775  0  4.033575  0  0  -0.093637  -0.108878  0  4.003493  0
C  C38  1  0.54823743  0.37027822  0.38623508  1  0  -0.129751  0  3.770734  0  0  -0.144534  0  4.022866  0  0  -0.147689  0  4.041967  0  0  -0.097729  -0.142815  0  4.010632  0
C  C39  1  0.45176429  0.62971827  0.61376326  1  0  -0.129623  0  3.770726  0  0  -0.144425  0  4.022814  0  0  -0.14758  0  4.041911  0  0  -0.097674  -0.142706  0  4.010576  0
C  C40  1  0.44377857  0.48807769  0.45865082  1  0  0.059144  0  3.773938  0  0  0.07495  0  4.001691  0  0  0.074955  0  4.024756  0  0  -0.009756  0.074758  0  3.986561  0
C  C41  1  0.55622020  0.51191877  0.54134798  1  0  0.059064  0  3.774002  0  0  0.074915  0  4.001723  0  0  0.074922  0  4.024786  0  0  -0.00975  0.074724  0  3.98659  0
C  C42  1  0.76589091  0.41674721  0.54980893  1  0  -0.091916  0  3.686942  0  0  -0.126632  0  3.940561  0  0  -0.125389  0  3.958405  0  0  -0.078743  -0.127345  0  3.928627  0
C  C43  1  0.23410742  0.58325059  0.45018770  1  0  -0.092154  0  3.687099  0  0  -0.12686  0  3.940735  0  0  -0.125617  0  3.958585  0  0  -0.07883  -0.127576  0  3.928803  0
N  N44  1  0.46228393  0.87671925  0.22057400  1  0  -0.464164  0  3.170597  0  0  -0.388612  0  3.448078  0  0  -0.414612  0  3.460907  0  0  -0.354705  -0.371161  0  3.439154  0
N  N45  1  0.53771413  0.12328369  0.77942758  1  0  -0.464116  0  3.170643  0  0  -0.388538  0  3.448107  0  0  -0.414528  0  3.460949  0  0  -0.35463  -0.371083  0  3.439185  0
N  N46  1  0.80154234  0.71683495  0.18727755  1  0  -0.706675  0  3.090331  0  0  -0.672125  0  3.324305  0  0  -0.694119  0  3.321913  0  0  -0.571977  -0.656624  0  3.32578  0
N  N47  1  0.19845823  0.28316932  0.81272325  1  0  -0.706556  0  3.090413  0  0  -0.671989  0  3.324396  0  0  -0.693981  0  3.322008  0  0  -0.571952  -0.65649  0  3.325872  0
N  N48  1  0.57353802  0.72594834  0.05956624  1  0  -0.51626  0  2.92317  0  0  -0.482108  0  3.181478  0  0  -0.501595  0  3.190761  0  0  -0.340199  -0.468988  0  3.174734  0
N  N49  1  0.42646506  0.27405726  0.94043379  1  0  -0.51626  0  2.92312  0  0  -0.48205  0  3.181455  0  0  -0.501536  0  3.190739  0  0  -0.340196  -0.468931  0  3.174713  0
O  O50  1  0.18413985  0.14801692  0.39078299  1  0  -0.610212  0  2.055887  0  0  -0.53863  0  2.312589  0  0  -0.569364  0  2.302171  0  0  -0.325445  -0.517024  0  2.318564  0
O  O51  1  0.81585285  0.85197561  0.60921513  1  0  -0.610077  0  2.055931  0  0  -0.538498  0  2.312637  0  0  -0.569226  0  2.302218  0  0  -0.325387  -0.516893  0  2.318614  0
O  O52  1  0.15976367  0.17258470  0.59442122  1  0  -0.6368  0  2.089284  0  0  -0.562099  0  2.353628  0  0  -0.593104  0  2.343764  0  0  -0.32692  -0.540397  0  2.359385  0
O  O53  1  0.84023717  0.82741445  0.40557371  1  0  -0.636761  0  2.089189  0  0  -0.562031  0  2.353543  0  0  -0.593039  0  2.343682  0  0  -0.326944  -0.54034  0  2.359323  0
