# generated using pymatgen
data_AlH5C13N3O11
_symmetry_space_group_name_H-M   'P 1'
_cell_length_a   6.80873998
_cell_length_b   11.27257142
_cell_length_c   15.39201719
_cell_angle_alpha   82.40837275
_cell_angle_beta   75.53754116
_cell_angle_gamma   70.83030194
_symmetry_Int_Tables_number   1
_chemical_formula_structural   AlH5C13N3O11
_chemical_formula_sum   'Al2 H10 C26 N6 O22'
_cell_volume   1078.87909501
_cell_formula_units_Z   2
loop_
 _symmetry_equiv_pos_site_id
 _symmetry_equiv_pos_as_xyz
  1  'x, y, z'
loop_
 _atom_site_type_symbol
 _atom_site_label
 _atom_site_symmetry_multiplicity
 _atom_site_fract_x
 _atom_site_fract_y
 _atom_site_fract_z
 _atom_site_occupancy
 _atom_site_pbe_bader_charge
 _atom_site_pbe_bader_spin_density
 _atom_site_pbe_cm5_charge
 _atom_site_pbe_ddec_charge
 _atom_site_pbe_ddec_spin_density
 _atom_site_pbe_ddec_sum_bond_order
 _atom_site_pbe_magmom
Al  Al0  1  0.50166627  0.49995906  0.50693984  1  2.504385  0  0.403568  1.636354  0  2.535188  0
Al  Al1  1  0.00726154  0.49229386  0.50590596  1  2.508931  0  0.400965  1.652093  0  2.537267  0
H  H2  1  0.25207994  0.40508943  0.60879105  1  0.631815  0  0.333392  0.414403  0  0.900779  0
H  H3  1  0.78008095  0.55993123  0.39761544  1  0.626635  0  0.324313  0.397971  0  0.93354  0
H  H4  1  0.86610228  0.46645502  0.93876716  1  0.093166  0  0.114958  0.120961  0  0.99874  0
H  H5  1  0.19592160  0.44528005  0.07397550  1  0.075251  0  0.116451  0.123463  0  0.996036  0
H  H6  1  0.65606704  0.56393421  0.22866969  1  0.162157  0  0.109924  0.108187  0  1.080931  0
H  H7  1  0.73194294  0.57661655  0.06264444  1  0.053183  0  0.10847  0.109406  0  0.994917  0
H  H8  1  0.27844765  0.55795352  0.77954731  1  0.181157  0  0.11348  0.110948  0  1.094342  0
H  H9  1  0.19394497  0.56014969  0.94613402  1  0.056188  0  0.1049  0.10171  0  1.006394  0
H  H10  1  0.22822813  0.23272707  0.38493987  1  0.163212  0  0.12546  0.138953  0  1.02822  0
H  H11  1  0.43206752  0.76754621  0.37014529  1  0.148153  0  0.128458  0.143997  0  0.99274  0
C  C12  1  0.86777441  0.27087125  0.50376378  1  1.673791  0  0.272951  0.645643  0  4.108581  0
C  C13  1  0.66017170  0.51115522  0.66537868  1  1.587188  0  0.281887  0.665289  0  4.063634  0
C  C14  1  0.13665238  0.72195527  0.49954907  1  1.595815  0  0.272422  0.644325  0  4.101856  0
C  C15  1  0.34168722  0.49323802  0.34555997  1  1.580581  0  0.274453  0.655924  0  4.079746  0
C  C16  1  0.61248453  0.51445591  0.76525834  1  0.031061  0  0.001482  -0.080871  0  3.927345  0
C  C17  1  0.38124485  0.50472360  0.24552342  1  0.055121  0  -0.004119  -0.089911  0  3.945167  0
C  C18  1  0.77196815  0.49442616  0.81274247  1  0.093251  0  0.09562  0.079601  0  3.961195  0
C  C19  1  0.73335255  0.48812763  0.90572489  1  0.085106  0  -0.075458  -0.179389  0  3.929924  0
C  C20  1  0.25091289  0.47749104  0.19853035  1  0.262375  0  0.090876  0.072476  0  3.958911  0
C  C21  1  0.29808820  0.47367322  0.10590839  1  0.012623  0  -0.074083  -0.176044  0  3.925502  0
C  C22  1  0.55629626  0.53886835  0.19373948  1  -0.079797  0  -0.067939  -0.046901  0  3.94204  0
C  C23  1  0.60061333  0.54284383  0.10050130  1  0.084727  0  -0.075369  -0.114446  0  3.918587  0
C  C24  1  0.40445542  0.53648133  0.81606966  1  0.083589  0  -0.070114  -0.052528  0  3.943715  0
C  C25  1  0.35956124  0.53600203  0.90912562  1  -0.081028  0  -0.079078  -0.119633  0  3.939302  0
C  C26  1  0.52327646  0.50920017  0.95592712  1  0.013153  0  0.010071  0.097214  0  3.978256  0
C  C27  1  0.47585204  0.50729555  0.05479177  1  0.004405  0  0.013059  0.103234  0  3.966961  0
C  C28  1  0.93926955  0.13014553  0.49759658  1  0.070987  0  0.022449  -0.070558  0  3.846223  0
C  C29  1  0.13460815  0.06557138  0.43973072  1  0.070807  0  0.022175  0.087324  0  3.904932  0
C  C30  1  0.80763381  0.06207062  0.54584422  1  0.22019  0  0.097944  0.016412  0  3.904771  0
C  C31  1  0.26871142  0.13133288  0.38328946  1  0.128296  0  -0.055993  -0.123077  0  3.875392  0
C  C32  1  0.44858162  0.06781455  0.32406198  1  0.184951  0  0.089892  0.03099  0  3.938309  0
C  C33  1  0.06115980  0.86359651  0.49217334  1  0.130435  0  0.017136  -0.084984  0  3.853677  0
C  C34  1  0.86550063  0.93064922  0.54170228  1  0.214611  0  0.098722  0.024599  0  3.906042  0
C  C35  1  0.19488124  0.93130748  0.43637675  1  0.055739  0  0.024856  0.095533  0  3.906577  0
C  C36  1  0.38244292  0.86904327  0.37412541  1  0.031431  0  -0.056128  -0.125605  0  3.87066  0
C  C37  1  0.50401278  0.93634699  0.31863163  1  0.199566  0  0.092302  0.040192  0  3.943943  0
N  N38  1  0.98867496  0.48879606  0.76320835  1  0.395311  0  0.059331  0.508605  0  4.225924  0
N  N39  1  0.04519939  0.46151506  0.24624294  1  0.38168  0  0.064368  0.520681  0  4.206224  0
N  N40  1  0.71682818  0.86439716  0.59777316  1  0.434239  0  0.062535  0.506521  0  4.245  0
N  N41  1  0.60517268  0.12677086  0.60756066  1  0.428336  0  0.064233  0.516001  0  4.23371  0
N  N42  1  0.57052637  0.14135798  0.26049543  1  0.412069  0  0.060629  0.515628  0  4.230792  0
N  N43  1  0.70167049  0.86708261  0.25741466  1  0.429906  0  0.062334  0.520479  0  4.235124  0
O  O44  1  0.67570851  0.32591984  0.49831412  1  -1.246921  0  -0.225422  -0.57652  0  2.362062  0
O  O45  1  0.84643470  0.51252359  0.62422498  1  -1.266213  0  -0.228061  -0.602038  0  2.427572  0
O  O46  1  0.00724341  0.66650895  0.49247876  1  -1.240135  0  -0.224726  -0.568536  0  2.344044  0
O  O47  1  0.47446686  0.51290420  0.38258420  1  -1.252169  0  -0.224649  -0.571514  0  2.345786  0
O  O48  1  0.32490240  0.67326010  0.51141759  1  -1.235072  0  -0.21771  -0.557675  0  2.356614  0
O  O49  1  0.17544025  0.46376913  0.38698357  1  -1.263756  0  -0.235988  -0.608724  0  2.417002  0
O  O50  1  0.00455496  0.31882420  0.51360044  1  -1.234556  0  -0.219006  -0.556246  0  2.335695  0
O  O51  1  0.51636206  0.50417871  0.62919132  1  -1.247501  0  -0.219418  -0.568838  0  2.348792  0
O  O52  1  0.26066467  0.44412983  0.54801181  1  -1.434264  0  -0.452468  -0.988416  0  2.152368  0
O  O53  1  0.75266334  0.54611939  0.46306695  1  -1.433086  0  -0.456364  -0.98508  0  2.147101  0
O  O54  1  0.01799045  0.59236849  0.74259883  1  -0.424401  0  -0.085424  -0.265387  0  1.991662  0
O  O55  1  0.12378249  0.38489413  0.74749604  1  -0.440225  0  -0.103168  -0.307231  0  1.933662  0
O  O56  1  0.90763441  0.56011541  0.27506846  1  -0.472734  0  -0.099724  -0.309859  0  2.08024  0
O  O57  1  0.01808766  0.35787296  0.25088642  1  -0.426027  0  -0.09915  -0.286239  0  1.905693  0
O  O58  1  0.73383761  0.83665642  0.67656533  1  -0.406634  0  -0.10897  -0.293295  0  1.879578  0
O  O59  1  0.58920737  0.84484428  0.56170651  1  -0.398894  0  -0.087882  -0.268882  0  1.940765  0
O  O60  1  0.44007584  0.11712240  0.59387091  1  -0.409719  0  -0.103711  -0.287806  0  1.905077  0
O  O61  1  0.61939408  0.18325586  0.66802899  1  -0.418344  0  -0.105272  -0.290424  0  1.885586  0
O  O62  1  0.59777970  0.23050781  0.28972551  1  -0.447928  0  -0.113456  -0.308548  0  1.946586  0
O  O63  1  0.63229876  0.10987113  0.18169835  1  -0.425335  0  -0.125885  -0.316633  0  1.875658  0
O  O64  1  0.68405956  0.80080118  0.20382672  1  -0.437742  0  -0.115335  -0.30787  0  1.918791  0
O  O65  1  0.86958647  0.87912452  0.26647319  1  -0.43309  0  -0.125997  -0.315408  0  1.871065  0
