# generated using pymatgen
data_AgH19C18N3Cl
_symmetry_space_group_name_H-M   'P 1'
_cell_length_a   8.75765955
_cell_length_b   9.33692387
_cell_length_c   11.07956815
_cell_angle_alpha   85.80502568
_cell_angle_beta   78.35752617
_cell_angle_gamma   65.98568511
_symmetry_Int_Tables_number   1
_chemical_formula_structural   AgH19C18N3Cl
_chemical_formula_sum   'Ag2 H38 C36 N6 Cl2'
_cell_volume   810.48741833
_cell_formula_units_Z   2
loop_
 _symmetry_equiv_pos_site_id
 _symmetry_equiv_pos_as_xyz
  1  'x, y, z'
loop_
 _atom_site_type_symbol
 _atom_site_label
 _atom_site_symmetry_multiplicity
 _atom_site_fract_x
 _atom_site_fract_y
 _atom_site_fract_z
 _atom_site_occupancy
 _atom_site_pbe_bader_spin_density
 _atom_site_pbe_cm5_charge
 _atom_site_pbe_ddec_charge
 _atom_site_pbe_ddec_spin_density
 _atom_site_pbe_ddec_sum_bond_order
 _atom_site_pbe_magmom
Ag  Ag0  1  0.07691145  0.36265985  0.08555093  1  0  0.302072  0.167632  0  2.428038  0
Ag  Ag1  1  0.92308860  0.63733996  0.91444685  1  0  0.302083  0.167666  0  2.427992  0
H  H2  1  0.81257153  0.93552383  0.19340225  1  0  0.112015  0.127873  0  1.051428  0
H  H3  1  0.18742852  0.06447597  0.80659824  1  0  0.112009  0.127849  0  1.051441  0
H  H4  1  0.00357980  0.91107517  0.37034517  1  0  0.119846  0.124079  0  1.040476  0
H  H5  1  0.99641974  0.08892581  0.62965533  1  0  0.119843  0.124064  0  1.040486  0
H  H6  1  0.77875830  0.10564191  0.98843608  1  0  0.112971  0.100858  0  0.987903  0
H  H7  1  0.22124226  0.89435672  0.01156350  1  0  0.112979  0.100858  0  0.987911  0
H  H8  1  0.85606259  0.25705375  0.97309988  1  0  0.109589  0.097815  0  1.024846  0
H  H9  1  0.14393914  0.74294489  0.02689861  1  0  0.109582  0.09778  0  1.024891  0
H  H10  1  0.70059463  0.44605037  0.19815133  1  0  0.0954  0.099553  0  1.06252  0
H  H11  1  0.29940360  0.55394826  0.80184952  1  0  0.095392  0.099533  0  1.062513  0
H  H12  1  0.40544284  0.62407241  0.29480418  1  0  0.106112  0.111003  0  1.015382  0
H  H13  1  0.59455656  0.37592623  0.70519558  1  0  0.106103  0.110977  0  1.015412  0
H  H14  1  0.15614826  0.59193070  0.23703000  1  0  0.103436  0.075464  0  1.037432  0
H  H15  1  0.84385231  0.40806794  0.76296687  1  0  0.103427  0.075445  0  1.037428  0
H  H16  1  0.47646789  0.22236548  0.00253639  1  0  0.110251  0.085262  0  1.032264  0
H  H17  1  0.52353370  0.77763082  0.99746046  1  0  0.110246  0.085273  0  1.032291  0
H  H18  1  0.10162823  0.36535178  0.57697967  1  0  0.095225  0.113729  0  1.024822  0
H  H19  1  0.89837131  0.63464920  0.42302083  1  0  0.095236  0.11376  0  1.024816  0
H  H20  1  0.55903269  0.06527300  0.34041602  1  0  0.095208  0.102293  0  1.033474  0
H  H21  1  0.44096685  0.93472798  0.65958448  1  0  0.095208  0.102287  0  1.033478  0
H  H22  1  0.82962693  0.39898124  0.54383237  1  0  0.090581  0.126011  0  1.035472  0
H  H23  1  0.17037145  0.60101973  0.45616921  1  0  0.090558  0.12596  0  1.035476  0
H  H24  1  0.81742407  0.23231297  0.48371622  1  0  0.086888  0.117469  0  1.029579  0
H  H25  1  0.18257598  0.76768683  0.51628427  1  0  0.086888  0.11747  0  1.029601  0
H  H26  1  0.82251659  0.38883589  0.38595183  1  0  0.094065  0.136505  0  1.013386  0
H  H27  1  0.17748346  0.61116391  0.61404956  1  0  0.094067  0.136516  0  1.013336  0
H  H28  1  0.46587935  0.37291975  0.48732104  1  0  0.086314  0.123583  0  1.012351  0
H  H29  1  0.53412071  0.62708005  0.51268035  1  0  0.086306  0.123555  0  1.012355  0
H  H30  1  0.57136016  0.17598957  0.53240333  1  0  0.084377  0.119209  0  1.034386  0
H  H31  1  0.42863938  0.82401140  0.46759717  1  0  0.08437  0.11919  0  1.0344  0
H  H32  1  0.38075121  0.30450589  0.62818346  1  0  0.081588  0.133807  0  1.037706  0
H  H33  1  0.61924884  0.69549391  0.37181794  1  0  0.081599  0.133821  0  1.037704  0
H  H34  1  0.36390522  0.86870352  0.19690956  1  0  0.086941  0.118856  0  1.028452  0
H  H35  1  0.63609549  0.13129746  0.80309076  1  0  0.086939  0.118847  0  1.028444  0
H  H36  1  0.54899540  0.90665120  0.18280586  1  0  0.08229  0.132837  0  1.039442  0
H  H37  1  0.45100466  0.09334861  0.81719373  1  0  0.082287  0.132833  0  1.039435  0
H  H38  1  0.37963177  0.02703662  0.10548776  1  0  0.084925  0.112205  0  1.043001  0
H  H39  1  0.62036777  0.97296436  0.89451184  1  0  0.084915  0.112188  0  1.042991  0
C  C40  1  0.99460532  0.18813595  0.16500705  1  0  0.048754  -0.116567  0  3.769658  0
C  C41  1  0.00539590  0.81186386  0.83499235  1  0  0.048716  -0.116621  0  3.769663  0
C  C42  1  0.87992165  0.00599010  0.20843008  1  0  0.000276  -0.091273  0  3.922435  0
C  C43  1  0.12007906  0.99401087  0.79157024  1  0  0.000279  -0.09124  0  3.922401  0
C  C44  1  0.97835478  0.99026666  0.29351503  1  0  -0.000447  -0.091307  0  3.916453  0
C  C45  1  0.02164527  0.00973314  0.70648456  1  0  -0.00041  -0.091239  0  3.916412  0
C  C46  1  0.78772612  0.19854106  0.03820921  1  0  -0.047063  -0.109382  0  3.881903  0
C  C47  1  0.21227561  0.80145757  0.96179018  1  0  -0.047021  -0.109311  0  3.881943  0
C  C48  1  0.61249100  0.31483089  0.09565194  1  0  -0.006128  0.056836  0  3.935475  0
C  C49  1  0.38750956  0.68516774  0.90434673  1  0  -0.006132  0.056832  0  3.935497  0
C  C50  1  0.59067488  0.43172182  0.17772696  1  0  -0.069119  -0.074979  0  3.912711  0
C  C51  1  0.40932452  0.56827681  0.82227280  1  0  -0.069144  -0.075015  0  3.912759  0
C  C52  1  0.42612152  0.53247486  0.23028556  1  0  -0.08728  -0.128746  0  3.990507  0
C  C53  1  0.57387671  0.46752378  0.76971258  1  0  -0.087285  -0.128713  0  3.990601  0
C  C54  1  0.28783726  0.51585862  0.19884989  1  0  0.039174  0.073038  0  3.955557  0
C  C55  1  0.71216214  0.48414003  0.80114626  1  0  0.039184  0.073063  0  3.95554  0
C  C56  1  0.46665579  0.30886851  0.06796294  1  0  0.041861  0.027588  0  3.918645  0
C  C57  1  0.53334646  0.69112896  0.93203554  1  0  0.041903  0.027602  0  3.918723  0
C  C58  1  0.14841940  0.13786059  0.33547570  1  0  0.071859  0.012801  0  3.962623  0
C  C59  1  0.85157963  0.86214157  0.66452391  1  0  0.071855  0.012801  0  3.962606  0
C  C60  1  0.06451716  0.24515438  0.43378992  1  0  -0.013878  0.101039  0  4.027268  0
C  C61  1  0.93548238  0.75484660  0.56621058  1  0  -0.013828  0.101078  0  4.027258  0
C  C62  1  0.16391677  0.28463328  0.49841935  1  0  -0.099947  -0.217833  0  3.929021  0
C  C63  1  0.83608277  0.71536770  0.50158024  1  0  -0.099951  -0.217865  0  3.929008  0
C  C64  1  0.34183871  0.22235557  0.46496044  1  0  -0.008544  0.18797  0  3.993839  0
C  C65  1  0.65816083  0.77764541  0.53504006  1  0  -0.008542  0.187982  0  3.993824  0
C  C66  1  0.42043864  0.11611231  0.36602587  1  0  -0.097819  -0.204655  0  3.926815  0
C  C67  1  0.57956207  0.88388867  0.63397354  1  0  -0.09783  -0.204666  0  3.926788  0
C  C68  1  0.32611333  0.07216098  0.29965042  1  0  -0.010044  0.113228  0  4.011145  0
C  C69  1  0.67388570  0.92784117  0.70035009  1  0  -0.010065  0.113231  0  4.011055  0
C  C70  1  0.87347812  0.31967803  0.46437485  1  0  -0.243048  -0.414912  0  3.961901  0
C  C71  1  0.12652142  0.68032295  0.53562655  1  0  -0.243043  -0.41488  0  3.961895  0
C  C72  1  0.44575165  0.27124251  0.53239966  1  0  -0.246286  -0.419637  0  3.945008  0
C  C73  1  0.55424789  0.72875846  0.46760175  1  0  -0.246289  -0.419619  0  3.945004  0
C  C74  1  0.41025013  0.96263879  0.19085908  1  0  -0.247238  -0.418494  0  3.97749  0
C  C75  1  0.58974941  0.03736218  0.80914143  1  0  -0.247222  -0.418476  0  3.977455  0
N  N76  1  0.89199167  0.12672970  0.13139864  1  0  -0.246962  0.058119  0  3.812536  0
N  N77  1  0.10800955  0.87327011  0.86860167  1  0  -0.246974  0.058106  0  3.812465  0
N  N78  1  0.04664287  0.10229666  0.26541523  1  0  -0.23757  0.029546  0  3.864988  0
N  N79  1  0.95335718  0.89770315  0.73458435  1  0  -0.237579  0.029511  0  3.865015  0
N  N80  1  0.30758487  0.40682814  0.11759000  1  0  -0.336041  -0.178488  0  3.553934  0
N  N81  1  0.69241570  0.59317050  0.88240597  1  0  -0.336042  -0.178479  0  3.553883  0
Cl  Cl82  1  0.15032044  0.34579846  0.83748254  1  0  -0.344611  -0.519944  0  1.29985  0
Cl  Cl83  1  0.84967495  0.65420135  0.16251598  1  0  -0.344609  -0.519947  0  1.299846  0
