# generated using pymatgen
data_Zn4H8C28S2Cl2O13F4
_symmetry_space_group_name_H-M   'P 1'
_cell_length_a   18.56463711
_cell_length_b   19.74595854
_cell_length_c   32.85312287
_cell_angle_alpha   86.01084979
_cell_angle_beta   73.58702782
_cell_angle_gamma   61.95547870
_symmetry_Int_Tables_number   1
_chemical_formula_structural   Zn4H8C28S2Cl2O13F4
_chemical_formula_sum   'Zn16 H32 C112 S8 Cl8 O52 F16'
_cell_volume   10167.44799967
_cell_formula_units_Z   4
loop_
 _symmetry_equiv_pos_site_id
 _symmetry_equiv_pos_as_xyz
  1  'x, y, z'
loop_
 _atom_site_type_symbol
 _atom_site_label
 _atom_site_symmetry_multiplicity
 _atom_site_fract_x
 _atom_site_fract_y
 _atom_site_fract_z
 _atom_site_occupancy
 _atom_site_pbe_bader_charge
 _atom_site_pbe_bader_spin_density
 _atom_site_pbe_cm5_charge
 _atom_site_pbe_ddec_charge
 _atom_site_pbe_ddec_spin_density
 _atom_site_pbe_ddec_sum_bond_order
 _atom_site_pbe_magmom
Zn  Zn0  1  0.87429568  0.55606594  0.51882371  1  1.325181  0  0.672282  0.960972  0  2.357358  0
Zn  Zn1  1  0.03834382  0.48493941  0.43853071  1  1.317961  0  0.676971  0.963378  0  2.409387  0
Zn  Zn2  1  0.04190858  0.39797613  0.52354873  1  1.315295  0  0.6741  0.96612  0  2.356857  0
Zn  Zn3  1  0.04677616  0.56018510  0.51850338  1  1.319026  0  0.673967  0.966859  0  2.356799  0
Zn  Zn4  1  0.62423498  0.19183108  0.73251281  1  1.310877  0  0.674354  0.962869  0  2.381693  0
Zn  Zn5  1  0.46460960  0.34999773  0.72574650  1  1.314609  0  0.673818  0.962557  0  2.382659  0
Zn  Zn6  1  0.45788142  0.26582434  0.81278444  1  1.319052  0  0.67481  0.967357  0  2.355297  0
Zn  Zn7  1  0.45295190  0.19223421  0.72918299  1  1.319604  0  0.673924  0.966706  0  2.354365  0
Zn  Zn8  1  0.46285546  0.76212150  0.31275341  1  1.32595  0  0.671397  0.959009  0  2.360471  0
Zn  Zn9  1  0.45365698  0.69271630  0.23076386  1  1.320499  0  0.676653  0.963125  0  2.410821  0
Zn  Zn10  1  0.62564179  0.69249519  0.22902978  1  1.318285  0  0.674583  0.96683  0  2.356892  0
Zn  Zn11  1  0.45832804  0.85213353  0.22653837  1  1.317007  0  0.673934  0.965276  0  2.358869  0
Zn  Zn12  1  0.03516364  0.90003444  0.02437035  1  1.314213  0  0.674583  0.962551  0  2.383249  0
Zn  Zn13  1  0.05100203  0.05606070  0.01855495  1  1.317668  0  0.672051  0.9601  0  2.358928  0
Zn  Zn14  1  0.87591241  0.05967378  0.01984093  1  1.317826  0  0.67661  0.967261  0  2.384206  0
Zn  Zn15  1  0.03672458  0.98420195  0.93722697  1  1.320527  0  0.67359  0.965822  0  2.35836  0
H  H16  1  0.54273925  0.48273455  0.62160837  1  0.060092  0  0.102234  0.115273  0  0.97326  0
H  H17  1  0.54804433  0.52275699  0.66696213  1  0.041553  0  0.100343  0.112476  0  0.977594  0
H  H18  1  0.64402532  0.57092863  0.61893103  1  0.052115  0  0.098991  0.110329  0  0.979565  0
H  H19  1  0.63873590  0.53082962  0.57356682  1  0.055393  0  0.098514  0.108396  0  0.981039  0
H  H20  1  0.35298922  0.67382730  0.43083031  1  0.065734  0  0.098549  0.108516  0  0.981255  0
H  H21  1  0.26229720  0.76204741  0.42822322  1  0.03221  0  0.098899  0.110812  0  0.979468  0
H  H22  1  0.16610213  0.71404354  0.47620969  1  0.066119  0  0.100405  0.111846  0  0.975159  0
H  H23  1  0.25674115  0.62589834  0.47884118  1  0.055154  0  0.100967  0.112636  0  0.974581  0
H  H24  1  0.54744162  0.76217344  0.42808418  1  0.033829  0  0.09902  0.110683  0  0.979829  0
H  H25  1  0.54233492  0.67398321  0.43065210  1  0.05042  0  0.098102  0.107591  0  0.981707  0
H  H26  1  0.63838379  0.62589330  0.47864783  1  0.062586  0  0.098222  0.10787  0  0.981438  0
H  H27  1  0.64362145  0.71401300  0.47612782  1  0.063005  0  0.099132  0.110993  0  0.979563  0
H  H28  1  0.33376877  0.17927134  0.63109842  1  0.077075  0  0.101046  0.112208  0  0.976011  0
H  H29  1  0.24314023  0.21918997  0.67647955  1  0.089416  0  0.10247  0.115205  0  0.971691  0
H  H30  1  0.14695856  0.26726537  0.62845509  1  0.046387  0  0.102136  0.115012  0  0.973415  0
H  H31  1  0.23767761  0.22726981  0.58310790  1  0.076866  0  0.100965  0.112639  0  0.975732  0
H  H32  1  0.95720196  0.07633575  0.81932830  1  0.073644  0  0.101789  0.11387  0  0.973723  0
H  H33  1  0.95193714  0.98828945  0.82196159  1  0.04078  0  0.100934  0.112499  0  0.975208  0
H  H34  1  0.85589072  0.03621838  0.77393700  1  0.066356  0  0.099322  0.11065  0  0.979829  0
H  H35  1  0.86108208  0.12432472  0.77127823  1  0.067418  0  0.101691  0.1143  0  0.974013  0
H  H36  1  0.16615769  0.21374674  0.97600960  1  0.077072  0  0.099388  0.110709  0  0.979713  0
H  H37  1  0.25693158  0.12567048  0.97862209  1  0.055024  0  0.09987  0.10986  0  0.979681  0
H  H38  1  0.35293071  0.17372078  0.93060155  1  0.078111  0  0.103245  0.116834  0  0.971202  0
H  H39  1  0.26222507  0.26175328  0.92797976  1  0.036653  0  0.101119  0.113583  0  0.97466  0
H  H40  1  0.25692127  0.03109822  0.07348248  1  0.062642  0  0.098898  0.108493  0  0.980411  0
H  H41  1  0.16603197  0.07128520  0.11880017  1  0.06968  0  0.099822  0.111149  0  0.978768  0
H  H42  1  0.26201194  0.02316244  0.16689901  1  0.077028  0  0.101289  0.113503  0  0.974289  0
H  H43  1  0.35279178  0.98306906  0.12159333  1  0.045655  0  0.102088  0.114952  0  0.973183  0
H  H44  1  0.95195212  0.72702577  0.08311157  1  0.041803  0  0.099692  0.110659  0  0.979181  0
H  H45  1  0.95727193  0.76710849  0.12843907  1  0.058812  0  0.103217  0.116536  0  0.971831  0
H  H46  1  0.86125757  0.71907335  0.17650308  1  0.061937  0  0.102537  0.115494  0  0.972584  0
H  H47  1  0.85595246  0.67896019  0.13118460  1  0.051187  0  0.100636  0.112194  0  0.976092  0
C  C48  1  0.86249580  0.56822013  0.43111480  1  1.565344  0  0.229524  0.627649  0  4.173167  0
C  C49  1  0.12335437  0.31556726  0.43861304  1  1.578952  0  0.214527  0.617804  0  4.217414  0
C  C50  1  0.86336871  0.43051110  0.56855373  1  1.590557  0  0.228737  0.627197  0  4.168488  0
C  C51  1  0.13801489  0.43200534  0.56845584  1  1.586146  0  0.229547  0.628254  0  4.169266  0
C  C52  1  0.87651531  0.68399259  0.56095002  1  1.585852  0  0.216647  0.624138  0  4.209542  0
C  C53  1  0.13746208  0.56891730  0.43096280  1  1.582098  0  0.229563  0.625609  0  4.172967  0
C  C54  1  0.63865838  0.31797075  0.68140405  1  1.586332  0  0.228444  0.625201  0  4.173967  0
C  C55  1  0.37733955  0.43428094  0.81109636  1  1.559699  0  0.217188  0.625145  0  4.209184  0
C  C56  1  0.63631115  0.18152257  0.81934837  1  1.572503  0  0.229886  0.628156  0  4.169414  0
C  C57  1  0.36195884  0.18121151  0.81825568  1  1.577524  0  0.230342  0.628603  0  4.16597  0
C  C58  1  0.62313027  0.06597100  0.68860649  1  1.575935  0  0.216753  0.622735  0  4.210305  0
C  C59  1  0.36330322  0.31924666  0.68082380  1  1.57741  0  0.230418  0.629459  0  4.166346  0
C  C60  1  0.36303185  0.68073470  0.31872465  1  1.562663  0  0.229191  0.625238  0  4.174387  0
C  C61  1  0.62290677  0.56591216  0.18832850  1  1.53183  0  0.215452  0.621156  0  4.214832  0
C  C62  1  0.63792393  0.68083135  0.31837565  1  1.569664  0  0.229301  0.627775  0  4.169046  0
C  C63  1  0.63646958  0.81939949  0.18097352  1  1.583985  0  0.228943  0.626328  0  4.17146  0
C  C64  1  0.37703177  0.93313022  0.31172966  1  1.55116  0  0.216178  0.623528  0  4.211724  0
C  C65  1  0.36201549  0.81855448  0.18122955  1  1.573142  0  0.228282  0.623907  0  4.175197  0
C  C66  1  0.13733974  0.93079502  0.06867819  1  1.588415  0  0.230879  0.631256  0  4.164497  0
C  C67  1  0.87906245  0.18390129  0.06128469  1  1.612884  0  0.214537  0.617525  0  4.217285  0
C  C68  1  0.86151976  0.93191904  0.06890331  1  1.565898  0  0.229118  0.625893  0  4.173812  0
C  C69  1  0.86183226  0.06908540  0.93147480  1  1.574221  0  0.229112  0.626229  0  4.172483  0
C  C70  1  0.12156967  0.81580789  0.93891984  1  1.572504  0  0.216314  0.624679  0  4.210161  0
C  C71  1  0.13751234  0.06817149  0.93093237  1  1.581928  0  0.229596  0.628244  0  4.167934  0
C  C72  1  0.73744785  0.80289558  0.60099909  1  0.090175  0  0.010172  0.104591  0  4.077283  0
C  C73  1  0.76232948  0.94673701  0.64901863  1  0.107131  0  0.009695  0.10173  0  4.080397  0
C  C74  1  0.82553728  0.75846820  0.58612597  1  -0.104865  0  -0.028861  -0.186518  0  3.931167  0
C  C75  1  0.67418370  0.99118330  0.66376264  1  -0.097966  0  -0.0281  -0.184221  0  3.930468  0
C  C76  1  0.78537529  0.87804116  0.62607488  1  -0.092839  0  -0.027637  -0.072982  0  4.096185  0
C  C77  1  0.71440519  0.87159406  0.62389565  1  -0.104847  0  -0.028577  -0.074961  0  4.100486  0
C  C78  1  0.20206568  0.22671858  0.36898703  1  0.230788  0  0.011481  0.103682  0  4.077862  0
C  C79  1  0.29825740  0.02237165  0.38127594  1  0.200205  0  0.009266  0.104786  0  4.075688  0
C  C80  1  0.17266397  0.24159049  0.41309630  1  -0.123655  0  -0.029013  -0.185094  0  3.932238  0
C  C81  1  0.32774473  0.00725613  0.33722957  1  -0.098501  0  -0.028542  -0.186799  0  3.931484  0
C  C82  1  0.25242879  0.10238838  0.39284956  1  -0.194038  0  -0.028492  -0.073937  0  4.100375  0
C  C83  1  0.24793972  0.14661445  0.35742333  1  -0.200638  0  -0.027449  -0.073665  0  4.095989  0
C  C84  1  0.69670900  0.34488980  0.65286160  1  0.051262  0  -0.017767  -0.1673  0  3.980137  0
C  C85  1  0.80804599  0.40079019  0.59707695  1  0.121969  0  -0.01723  -0.165176  0  3.976498  0
C  C86  1  0.66623414  0.41721048  0.63640482  1  -0.004874  0  -0.006213  0.065037  0  3.906707  0
C  C87  1  0.83964295  0.32767750  0.61346079  1  0.494442  0  0.099446  0.158632  0  4.042894  0
C  C88  1  0.71924941  0.44380502  0.60985607  1  -0.057893  0  -0.007034  0.063585  0  3.907217  0
C  C89  1  0.78620593  0.30083661  0.64020795  1  0.541694  0  0.099989  0.160274  0  4.041171  0
C  C90  1  0.58557406  0.49014074  0.63595173  1  0.006468  0  -0.148422  -0.19527  0  3.872836  0
C  C91  1  0.64571182  0.52031775  0.60585843  1  -0.008737  0  -0.149024  -0.193861  0  3.878933  0
C  C92  1  0.30581831  0.65209457  0.34628676  1  0.037141  0  -0.016968  -0.165815  0  3.979898  0
C  C93  1  0.19423431  0.59646434  0.40190982  1  -0.01043  0  -0.018232  -0.167492  0  3.982376  0
C  C94  1  0.28020359  0.66358837  0.39064948  1  0.020192  0  -0.007491  0.063588  0  3.913074  0
C  C95  1  0.21956244  0.58435702  0.35715142  1  0.53147  0  0.101482  0.159753  0  4.038892  0
C  C96  1  0.22707418  0.63713676  0.41713630  1  -0.001919  0  -0.007049  0.063784  0  3.912328  0
C  C97  1  0.27311967  0.61115137  0.33041480  1  0.563081  0  0.101192  0.160737  0  4.038347  0
C  C98  1  0.28836234  0.69922653  0.42738366  1  0.001916  0  -0.150736  -0.19808  0  3.881653  0
C  C99  1  0.22809422  0.66914261  0.45745477  1  -0.011289  0  -0.147546  -0.191528  0  3.873939  0
C  C100  1  0.69608047  0.65215815  0.34608570  1  0.130834  0  -0.018614  -0.168671  0  3.977733  0
C  C101  1  0.80737590  0.59633013  0.40195494  1  -0.027346  0  -0.018169  -0.167761  0  3.981483  0
C  C102  1  0.66564928  0.66368451  0.39047448  1  -0.024127  0  -0.007178  0.06501  0  3.908391  0
C  C103  1  0.83907668  0.58433757  0.35719173  1  0.549492  0  0.101213  0.160405  0  4.040533  0
C  C104  1  0.71863349  0.63713715  0.41703412  1  0.066921  0  -0.008024  0.063407  0  3.911906  0
C  C105  1  0.78557904  0.61119783  0.33039062  1  0.469638  0  0.10158  0.161406  0  4.041514  0
C  C106  1  0.58503385  0.69934841  0.42720801  1  0.007133  0  -0.149572  -0.194006  0  3.877663  0
C  C107  1  0.64524070  0.66919499  0.45731984  1  -0.011717  0  -0.148972  -0.194323  0  3.879451  0
C  C108  1  0.30587953  0.34933048  0.65278387  1  0.080306  0  -0.018176  -0.168438  0  3.979023  0
C  C109  1  0.19431678  0.40515300  0.59707560  1  0.040851  0  -0.017941  -0.170386  0  3.980773  0
C  C110  1  0.27272811  0.30634008  0.64013938  1  -0.037187  0  -0.006147  0.065693  0  3.907754  0
C  C111  1  0.22706473  0.44926289  0.60971210  1  0.500209  0  0.098388  0.159731  0  4.043317  0
C  C112  1  0.21961282  0.33290084  0.61361194  1  0.023386  0  -0.006733  0.065627  0  3.907452  0
C  C113  1  0.28059973  0.42248856  0.63644268  1  0.534336  0  0.099188  0.158796  0  4.04171  0
C  C114  1  0.27175297  0.22982515  0.64419376  1  -0.058167  0  -0.147007  -0.193781  0  3.87344  0
C  C115  1  0.21152263  0.25992867  0.61411066  1  -0.011277  0  -0.148626  -0.196784  0  3.876079  0
C  C116  1  0.29814134  0.58318973  0.82086765  1  0.201322  0  0.010604  0.103653  0  4.079798  0
C  C117  1  0.20197352  0.66689121  0.92919223  1  0.202612  0  0.010878  0.102884  0  4.079904  0
C  C118  1  0.32758452  0.50955567  0.83538292  1  -0.143204  0  -0.029793  -0.187991  0  3.934363  0
C  C119  1  0.17229195  0.74049352  0.91465395  1  -0.144934  0  -0.02903  -0.186012  0  3.932926  0
C  C120  1  0.24787137  0.60952139  0.89492701  1  -0.161716  0  -0.027917  -0.073509  0  4.098591  0
C  C121  1  0.25229954  0.64056516  0.85510573  1  -0.156142  0  -0.028568  -0.073897  0  4.100008  0
C  C122  1  0.80355437  0.09818948  0.90387602  1  0.122327  0  -0.017089  -0.167508  0  3.979938  0
C  C123  1  0.69183769  0.15388560  0.84831249  1  -0.025083  0  -0.018981  -0.16929  0  3.982602  0
C  C124  1  0.83380029  0.08674948  0.85949753  1  -0.030518  0  -0.005495  0.065917  0  3.91068  0
C  C125  1  0.66045394  0.16586996  0.89304833  1  0.540393  0  0.099123  0.158683  0  4.045654  0
C  C126  1  0.78065797  0.11328337  0.83300265  1  0.105791  0  -0.008129  0.061719  0  3.906571  0
C  C127  1  0.71405583  0.13918297  0.91975899  1  0.475872  0  0.101288  0.161733  0  4.042134  0
C  C128  1  0.91437665  0.05110236  0.82278472  1  -0.011755  0  -0.14819  -0.193709  0  3.874403  0
C  C129  1  0.85414563  0.08116617  0.79269796  1  -0.032068  0  -0.148231  -0.194722  0  3.875457  0
C  C130  1  0.19407267  0.09606570  0.90181754  1  0.054709  0  -0.018229  -0.167341  0  3.977702  0
C  C131  1  0.30550387  0.15185834  0.84600000  1  0.044036  0  -0.017289  -0.16571  0  3.977437  0
C  C132  1  0.22711036  0.13667957  0.91695747  1  -0.028796  0  -0.006025  0.065566  0  3.90752  0
C  C133  1  0.27270856  0.11085786  0.83029172  1  0.553189  0  0.098882  0.157841  0  4.043245  0
C  C134  1  0.28015242  0.16325392  0.89039771  1  0.002924  0  -0.006736  0.063297  0  3.908711  0
C  C135  1  0.21918610  0.08414022  0.85706759  1  0.515849  0  0.099246  0.158393  0  4.042261  0
C  C136  1  0.22815739  0.16884742  0.95723057  1  -0.027188  0  -0.148608  -0.193467  0  3.878029  0
C  C137  1  0.28836066  0.19893515  0.92711698  1  -0.000865  0  -0.147896  -0.196344  0  3.872651  0
C  C138  1  0.64238144  0.44670491  0.14896309  1  0.142488  0  0.011276  0.104275  0  4.078058  0
C  C139  1  0.85918464  0.30298714  0.10098505  1  0.1581  0  0.009787  0.10393  0  4.080634  0
C  C140  1  0.67149032  0.49107576  0.16368418  1  -0.105375  0  -0.028548  -0.184776  0  3.931444  0
C  C141  1  0.83038321  0.25856397  0.08615845  1  -0.148771  0  -0.029158  -0.187271  0  3.937837  0
C  C142  1  0.79061713  0.37159735  0.12389053  1  -0.148843  0  -0.028278  -0.072664  0  4.102026  0
C  C143  1  0.71103808  0.37800208  0.12605804  1  -0.107927  0  -0.027797  -0.076586  0  4.098037  0
C  C144  1  0.19404803  0.90106618  0.09705858  1  0.073103  0  -0.018233  -0.169282  0  3.980714  0
C  C145  1  0.30544366  0.84538362  0.15279933  1  0.038659  0  -0.016857  -0.166819  0  3.979658  0
C  C146  1  0.22698157  0.94417208  0.10978823  1  -0.008284  0  -0.007529  0.063805  0  3.910649  0
C  C147  1  0.27279326  0.80113575  0.14017970  1  0.520631  0  0.100536  0.160214  0  4.042038  0
C  C148  1  0.27996433  0.91766097  0.13634957  1  -0.00821  0  -0.006575  0.065866  0  3.909894  0
C  C149  1  0.21922807  0.82794226  0.11344099  1  0.533893  0  0.099912  0.159464  0  4.042517  0
C  C150  1  0.22803321  0.02066322  0.10576153  1  -0.028087  0  -0.148629  -0.193538  0  3.877106  0
C  C151  1  0.28817785  0.99052980  0.13589379  1  -0.011632  0  -0.148484  -0.196231  0  3.873436  0
C  C152  1  0.80338970  0.90491451  0.09715225  1  0.052965  0  -0.018309  -0.168615  0  3.983177  0
C  C153  1  0.69191198  0.84925799  0.15281154  1  0.127127  0  -0.016927  -0.165733  0  3.978678  0
C  C154  1  0.83380665  0.83259725  0.11360107  1  -0.011016  0  -0.006569  0.064648  0  3.90868  0
C  C155  1  0.66039882  0.92240489  0.13648166  1  0.495072  0  0.099045  0.157923  0  4.044282  0
C  C156  1  0.78072694  0.80607915  0.14013519  1  -0.053902  0  -0.00685  0.063593  0  3.906679  0
C  C157  1  0.71390961  0.94916760  0.10974650  1  0.546143  0  0.100815  0.160467  0  4.04366  0
C  C158  1  0.91441174  0.75969491  0.11411499  1  0.009499  0  -0.14789  -0.194655  0  3.874067  0
C  C159  1  0.85423274  0.72959395  0.14422924  1  -0.00812  0  -0.147613  -0.194451  0  3.87403  0
S  S160  1  0.87995991  0.80067121  0.60023848  1  0.301989  0  0.095962  0.162342  0  2.772806  0
S  S161  1  0.61980183  0.94898076  0.64962931  1  0.296325  0  0.094196  0.160319  0  2.774606  0
S  S162  1  0.20096482  0.15800107  0.44020915  1  0.309182  0  0.091582  0.156332  0  2.777388  0
S  S163  1  0.29949369  0.09083620  0.31008605  1  0.314703  0  0.098385  0.165113  0  2.770226  0
S  S164  1  0.29926910  0.51067016  0.89074776  1  0.319771  0  0.096493  0.16292  0  2.773171  0
S  S165  1  0.20067871  0.73943835  0.85930226  1  0.317051  0  0.094482  0.159862  0  2.774807  0
S  S166  1  0.78217690  0.44890032  0.14962640  1  0.307833  0  0.092229  0.156941  0  2.777275  0
S  S167  1  0.71964783  0.30064748  0.10023679  1  0.351152  0  0.102036  0.17137  0  2.768089  0
Cl  Cl168  1  0.66258123  0.78149415  0.59383155  1  -0.157074  0  0.007556  -0.032361  0  1.494407  0
Cl  Cl169  1  0.83702897  0.96832391  0.65611564  1  -0.148362  0  0.014141  -0.022717  0  1.494514  0
Cl  Cl170  1  0.18768151  0.29279621  0.33174852  1  -0.152001  0  0.020618  -0.013498  0  1.493308  0
Cl  Cl171  1  0.31255492  0.95631764  0.41868076  1  -0.153386  0  0.006555  -0.034086  0  1.494448  0
Cl  Cl172  1  0.31234236  0.60614592  0.76915672  1  -0.156609  0  0.0116  -0.025558  0  1.493178  0
Cl  Cl173  1  0.18765971  0.64394355  0.98088273  1  -0.153068  0  0.015224  -0.021167  0  1.493664  0
Cl  Cl174  1  0.53908422  0.46826601  0.15612781  1  -0.141335  0  0.020588  -0.013676  0  1.492987  0
Cl  Cl175  1  0.96263581  0.28154570  0.09382105  1  -0.167532  0  0.007624  -0.032369  0  1.493907  0
O  O176  1  0.99937133  0.50021134  0.50091324  1  -1.238896  0  -0.571198  -1.032175  0  2.530424  0
O  O177  1  0.82372587  0.58408484  0.47091067  1  -1.157193  0  -0.30977  -0.539375  0  2.311655  0
O  O178  1  0.10247873  0.37618247  0.41846419  1  -1.172502  0  -0.311523  -0.531843  0  2.380471  0
O  O179  1  0.94339389  0.38724937  0.55863468  1  -1.158454  0  -0.312461  -0.541304  0  2.366578  0
O  O180  1  0.94242858  0.53116618  0.41434826  1  -1.150276  0  -0.309689  -0.533771  0  2.37456  0
O  O181  1  0.82414261  0.49796061  0.55652508  1  -1.16582  0  -0.308583  -0.535049  0  2.311197  0
O  O182  1  0.10593610  0.31206768  0.47912926  1  -1.144477  0  -0.318892  -0.543965  0  2.318582  0
O  O183  1  0.11551917  0.38404749  0.55957033  1  -1.157116  0  -0.306817  -0.531673  0  2.312156  0
O  O184  1  0.95741865  0.65724311  0.55134256  1  -1.139582  0  -0.318928  -0.542089  0  2.319457  0
O  O185  1  0.11742045  0.49896677  0.55540577  1  -1.167465  0  -0.313124  -0.542681  0  2.365321  0
O  O186  1  0.83646259  0.65316792  0.55100421  1  -1.166417  0  -0.315309  -0.542324  0  2.370398  0
O  O187  1  0.11225951  0.53096832  0.41421899  1  -1.151853  0  -0.30991  -0.533738  0  2.372982  0
O  O188  1  0.11902312  0.58622421  0.47069676  1  -1.148617  0  -0.308212  -0.536291  0  2.311737  0
O  O189  1  0.49933687  0.24968685  0.75026362  1  -1.224089  0  -0.571228  -1.03293  0  2.531137  0
O  O190  1  0.67188897  0.25124425  0.69472041  1  -1.164776  0  -0.312185  -0.540963  0  2.367861  0
O  O191  1  0.39930652  0.43408008  0.77069436  1  -1.131652  0  -0.315511  -0.541392  0  2.375003  0
O  O192  1  0.55623952  0.21861387  0.83587701  1  -1.163729  0  -0.313275  -0.544236  0  2.365262  0
O  O193  1  0.55924144  0.36562727  0.69000015  1  -1.162636  0  -0.306079  -0.52965  0  2.314741  0
O  O194  1  0.67551789  0.16487588  0.77963710  1  -1.161587  0  -0.307203  -0.530497  0  2.316972  0
O  O195  1  0.39407636  0.37544537  0.83319729  1  -1.167139  0  -0.318699  -0.543034  0  2.31747  0
O  O196  1  0.38448429  0.21853145  0.83776929  1  -1.16307  0  -0.307111  -0.532459  0  2.310199  0
O  O197  1  0.54218957  0.09423357  0.69698186  1  -1.147575  0  -0.318649  -0.542526  0  2.316096  0
O  O198  1  0.38269626  0.16716153  0.77824730  1  -1.16588  0  -0.314468  -0.544333  0  2.364462  0
O  O199  1  0.66329390  0.09569873  0.69948899  1  -1.160262  0  -0.314029  -0.538637  0  2.372915  0
O  O200  1  0.38983919  0.36273435  0.69084457  1  -1.16527  0  -0.312896  -0.541371  0  2.367374  0
O  O201  1  0.38091977  0.25128481  0.69225905  1  -1.158125  0  -0.307094  -0.533937  0  2.309952  0
O  O202  1  0.50072786  0.75086159  0.25026032  1  -1.242963  0  -0.571485  -1.031578  0  2.530859  0
O  O203  1  0.38695915  0.71699027  0.33811632  1  -1.158973  0  -0.309791  -0.537189  0  2.311185  0
O  O204  1  0.54212623  0.59593648  0.19868010  1  -1.137473  0  -0.311814  -0.533786  0  2.379004  0
O  O205  1  0.67126919  0.66754087  0.27838624  1  -1.165446  0  -0.311381  -0.540492  0  2.36591  0
O  O206  1  0.38328357  0.66688233  0.27876694  1  -1.145931  0  -0.309015  -0.532987  0  2.376233  0
O  O207  1  0.55842844  0.71663752  0.33799084  1  -1.15741  0  -0.308272  -0.533891  0  2.311271  0
O  O208  1  0.66686044  0.59420301  0.19712109  1  -1.161693  0  -0.319118  -0.545106  0  2.319933  0
O  O209  1  0.67554022  0.75135790  0.19229761  1  -1.164061  0  -0.30724  -0.532468  0  2.314669  0
O  O210  1  0.39411210  0.93720951  0.27128951  1  -1.131584  0  -0.317663  -0.540507  0  2.320676  0
O  O211  1  0.55641959  0.86297414  0.19122728  1  -1.16121  0  -0.312975  -0.54205  0  2.36826  0
O  O212  1  0.39794243  0.87236031  0.33177580  1  -1.164406  0  -0.315897  -0.542641  0  2.371995  0
O  O213  1  0.38325596  0.75123559  0.19379053  1  -1.160063  0  -0.310174  -0.534706  0  2.373632  0
O  O214  1  0.38429804  0.86643259  0.19049888  1  -1.155881  0  -0.306731  -0.533263  0  2.311677  0
O  O215  1  0.00072405  0.00019051  0.99964978  1  -1.231424  0  -0.571499  -1.032126  0  2.531649  0
O  O216  1  0.11011925  0.88760501  0.05904199  1  -1.161765  0  -0.312519  -0.540644  0  2.369661  0
O  O217  1  0.95993858  0.15307310  0.05100791  1  -1.167181  0  -0.315779  -0.544035  0  2.373557  0
O  O218  1  0.82840818  0.99921274  0.05626399  1  -1.16435  0  -0.310501  -0.537963  0  2.370054  0
O  O219  1  0.12113746  0.99813277  0.05647604  1  -1.166342  0  -0.308879  -0.536472  0  2.311432  0
O  O220  1  0.94091729  0.88393539  0.05989461  1  -1.144467  0  -0.307181  -0.531292  0  2.314888  0
O  O221  1  0.83437225  0.15675636  0.05224936  1  -1.167122  0  -0.31532  -0.532263  0  2.323151  0
O  O222  1  0.82853874  0.08402380  0.97141077  1  -1.157074  0  -0.310685  -0.5374  0  2.370261  0
O  O223  1  0.10276327  0.87458736  0.91674439  1  -1.177825  0  -0.319119  -0.544019  0  2.317736  0
O  O224  1  0.94120492  0.03122682  0.91201489  1  -1.163574  0  -0.30702  -0.533328  0  2.311973  0
O  O225  1  0.10081731  0.81602471  0.97930462  1  -1.130225  0  -0.313438  -0.538853  0  2.374057  0
O  O226  1  0.12126008  0.08389566  0.97066044  1  -1.147207  0  -0.30819  -0.533721  0  2.311421  0
O  O227  1  0.11063621  0.03168644  0.91425350  1  -1.16254  0  -0.31292  -0.542579  0  2.365699  0
F  F228  1  0.92387110  0.27886634  0.60432838  1  -0.615267  0  -0.09352  -0.109537  0  1.390872  0
F  F229  1  0.82600856  0.22972264  0.65328889  1  -0.611787  0  -0.093455  -0.109339  0  1.389291  0
F  F230  1  0.19357011  0.54612018  0.33728872  1  -0.608736  0  -0.089335  -0.103404  0  1.389853  0
F  F231  1  0.29154465  0.59519097  0.28836067  1  -0.616265  0  -0.088593  -0.102725  0  1.391368  0
F  F232  1  0.92319646  0.54604783  0.33737908  1  -0.609759  0  -0.088774  -0.102986  0  1.391062  0
F  F233  1  0.82536338  0.59521341  0.28832083  1  -0.613932  0  -0.091944  -0.107387  0  1.390301  0
F  F234  1  0.20889599  0.52034326  0.59654657  1  -0.610523  0  -0.094015  -0.110287  0  1.389388  0
F  F235  1  0.30689122  0.47135620  0.64552803  1  -0.61388  0  -0.094685  -0.110911  0  1.389123  0
F  F236  1  0.57624917  0.20393216  0.91291631  1  -0.616971  0  -0.092529  -0.108243  0  1.389982  0
F  F237  1  0.67445768  0.15505118  0.96183089  1  -0.616298  0  -0.090713  -0.105202  0  1.389416  0
F  F238  1  0.29093736  0.09495413  0.78818029  1  -0.620761  0  -0.094045  -0.109717  0  1.389531  0
F  F239  1  0.19294031  0.04601616  0.83720574  1  -0.610187  0  -0.094093  -0.109525  0  1.388354  0
F  F240  1  0.29104278  0.73010209  0.15325334  1  -0.610411  0  -0.089162  -0.103588  0  1.391843  0
F  F241  1  0.19307128  0.77906617  0.10428003  1  -0.611445  0  -0.09252  -0.108164  0  1.391154  0
F  F242  1  0.57616964  0.97129036  0.14563173  1  -0.6145  0  -0.093844  -0.109788  0  1.39029  0
F  F243  1  0.67431617  0.02020567  0.09662897  1  -0.610248  0  -0.090727  -0.104786  0  1.389257  0
