# generated using pymatgen
data_ZnH22C20NClO8
_symmetry_space_group_name_H-M   'P 1'
_cell_length_a   9.97276865
_cell_length_b   10.98146915
_cell_length_c   13.96967709
_cell_angle_alpha   91.92338553
_cell_angle_beta   95.90165931
_cell_angle_gamma   91.59183277
_symmetry_Int_Tables_number   1
_chemical_formula_structural   ZnH22C20NClO8
_chemical_formula_sum   'Zn2 H44 C40 N2 Cl2 O16'
_cell_volume   1520.18154770
_cell_formula_units_Z   2
loop_
 _symmetry_equiv_pos_site_id
 _symmetry_equiv_pos_as_xyz
  1  'x, y, z'
loop_
 _atom_site_type_symbol
 _atom_site_label
 _atom_site_symmetry_multiplicity
 _atom_site_fract_x
 _atom_site_fract_y
 _atom_site_fract_z
 _atom_site_occupancy
 _atom_site_pbe_bader_charge
 _atom_site_pbe_bader_spin_density
 _atom_site_pbe_cm5_charge
 _atom_site_pbe_ddec_charge
 _atom_site_pbe_ddec_spin_density
 _atom_site_pbe_ddec_sum_bond_order
 _atom_site_pbe_magmom
Zn  Zn0  1  0.63786551  0.51437183  0.49708487  1  1.307302  0  0.685314  0.865752  0  2.29663  0
Zn  Zn1  1  0.34121882  0.49718741  0.48580665  1  1.301141  0  0.686765  0.863057  0  2.361222  0
H  H2  1  0.91910907  0.39041859  0.70180011  1  0.061068  0  0.115571  0.075234  0  0.957815  0
H  H3  1  0.72729053  0.59187264  0.21879582  1  0.075017  0  0.107914  0.075546  0  0.99108  0
H  H4  1  0.87022157  0.49869367  0.22588058  1  0.084396  0  0.105873  0.068057  0  1.013811  0
H  H5  1  0.02446274  0.68349570  0.24314240  1  0.045135  0  0.09133  0.130933  0  1.025378  0
H  H6  1  0.90385914  0.69982223  0.14186960  1  0.048642  0  0.094836  0.131243  0  0.989255  0
H  H7  1  0.88266448  0.77890426  0.25246532  1  0.067032  0  0.094634  0.137308  0  1.033344  0
H  H8  1  0.82868966  0.70232656  0.67613411  1  0.072023  0  0.092136  0.059926  0  1.007266  0
H  H9  1  0.00252575  0.71807721  0.72278681  1  0.012628  0  0.091351  0.046925  0  0.982333  0
H  H10  1  0.85700957  0.85195147  0.81587717  1  -0.002665  0  0.091027  0.121976  0  0.998677  0
H  H11  1  0.93528740  0.74001926  0.89067421  1  0.021188  0  0.085413  0.113722  0  1.006727  0
H  H12  1  0.76193880  0.72079052  0.84457334  1  0.050301  0  0.091485  0.128439  0  0.997179  0
H  H13  1  0.16271899  0.57243724  0.71638554  1  0.090492  0  0.108008  0.140024  0  0.973259  0
H  H14  1  0.22249861  0.99680926  0.66257591  1  0.05169  0  0.10184  0.066791  0  0.963997  0
H  H15  1  0.08334588  0.01315043  0.57409841  1  0.075826  0  0.089753  0.052124  0  1.051872  0
H  H16  1  0.05274627  0.22619749  0.63801165  1  0.010761  0  0.089335  0.12179  0  1.013231  0
H  H17  1  0.03645800  0.11609476  0.72689189  1  0.031689  0  0.091591  0.121951  0  1.000758  0
H  H18  1  0.18772643  0.20800697  0.73045399  1  0.040423  0  0.091574  0.125111  0  1.000498  0
H  H19  1  0.08187622  0.79085255  0.41230707  1  0.089945  0  0.094439  0.064459  0  1.007061  0
H  H20  1  0.24471277  0.78508217  0.37093496  1  0.062848  0  0.097188  0.065086  0  0.995117  0
H  H21  1  0.23067618  0.01140880  0.33511697  1  0.041456  0  0.088078  0.124443  0  1.005455  0
H  H22  1  0.09858864  0.92227721  0.26893160  1  0.00515  0  0.091317  0.128817  0  1.000676  0
H  H23  1  0.06512164  0.00985589  0.37294345  1  0.045587  0  0.085005  0.118269  0  1.033907  0
H  H24  1  0.16951933  0.41075424  0.70546903  1  0.095612  0  0.101824  0.131739  0  1.014572  0
H  H25  1  0.54060202  0.98475838  0.28393494  1  0.063687  0  0.098269  0.060427  0  0.997018  0
H  H26  1  0.52375630  0.82359006  0.29878443  1  0.046138  0  0.095795  0.063463  0  0.984387  0
H  H27  1  0.65871572  0.78516307  0.15992379  1  0.029115  0  0.089187  0.12154  0  1.021558  0
H  H28  1  0.52130938  0.87896833  0.12467007  1  0.047416  0  0.094264  0.125889  0  0.991834  0
H  H29  1  0.68687453  0.94520125  0.14990054  1  0.035802  0  0.088895  0.118827  0  1.01189  0
H  H30  1  0.89032300  0.11869150  0.32170859  1  0.033251  0  0.091237  0.045906  0  1.007136  0
H  H31  1  0.86401084  0.26790996  0.37036873  1  0.011301  0  0.083614  0.033246  0  1.005968  0
H  H32  1  0.70839517  0.30872109  0.22103434  1  0.075536  0  0.088438  0.129806  0  1.037919  0
H  H33  1  0.87179908  0.27121366  0.19028597  1  0.016823  0  0.084101  0.108168  0  1.051441  0
H  H34  1  0.73757233  0.16074489  0.17323695  1  0.035903  0  0.089538  0.122881  0  1.008437  0
H  H35  1  0.80070011  0.12995468  0.49247877  1  0.074843  0  0.098467  0.060547  0  0.986862  0
H  H36  1  0.04508080  0.31324963  0.30606710  1  0.040554  0  0.098135  0.054191  0  1.025545  0
H  H37  1  0.21909345  0.35570748  0.33431144  1  0.130542  0  0.105474  0.084737  0  1.021942  0
H  H38  1  0.21949823  0.45463297  0.17475355  1  0.094102  0  0.090667  0.134188  0  1.030835  0
H  H39  1  0.17263611  0.29740874  0.15875253  1  0.036016  0  0.097676  0.135765  0  0.979965  0
H  H40  1  0.04678410  0.40945036  0.14483805  1  0.02762  0  0.086796  0.112968  0  1.026497  0
H  H41  1  0.83557845  0.43180497  0.91114232  1  0.083399  0  0.104806  0.074342  0  0.978977  0
H  H42  1  0.72686307  0.31172187  0.85777217  1  0.071467  0  0.104668  0.072076  0  0.974114  0
H  H43  1  0.93253094  0.28645711  0.03625237  1  0.038196  0  0.089853  0.120274  0  1.039281  0
H  H44  1  0.82086575  0.16820649  0.98226228  1  0.040103  0  0.094393  0.127651  0  0.993012  0
H  H45  1  0.94968442  0.23106641  0.91752182  1  0.038306  0  0.096648  0.129512  0  0.992875  0
C  C46  1  0.48108249  0.27215935  0.50850339  1  1.635147  0  0.217647  0.626513  0  4.153866  0
C  C47  1  0.71527918  0.09041198  0.44372511  1  0.514652  0  0.00267  0.028144  0  3.894679  0
C  C48  1  0.07577223  0.49995499  0.57482991  1  0.508272  0  0.115399  0.190154  0  3.940868  0
C  C49  1  0.51499120  0.51114746  0.67590157  1  1.712784  0  0.221831  0.647278  0  4.268935  0
C  C50  1  0.04264310  0.51089087  0.41219070  1  1.186157  0  0.223616  0.25363  0  4.046503  0
C  C51  1  0.90437811  0.54228662  0.42015079  1  1.153549  0  0.234588  0.27478  0  4.02829  0
C  C52  1  0.93889614  0.50935910  0.58068307  1  0.474881  0  0.111452  0.084132  0  3.904809  0
C  C53  1  0.95375641  0.48400983  0.68921005  1  0.574835  0  0.022578  0.119895  0  3.884567  0
C  C54  1  0.11270532  0.48984974  0.68138072  1  -0.035774  0  -0.155351  -0.315302  0  3.859743  0
C  C55  1  0.47111760  0.73518176  0.48277537  1  1.546854  0  0.213083  0.601021  0  4.180782  0
C  C56  1  0.48964544  0.47246142  0.30973129  1  1.691839  0  0.215966  0.64273  0  4.265182  0
C  C57  1  0.53622900  0.48691584  0.77724152  1  0.048252  0  -0.011377  -0.100393  0  3.901492  0
C  C58  1  0.48914569  0.45696419  0.20688420  1  -0.066099  0  -0.027706  -0.152158  0  3.917636  0
C  C59  1  0.47471472  0.45898950  0.01966524  1  0.191652  0  -0.001996  0.022339  0  4.122967  0
C  C60  1  0.57035593  0.42915293  0.95852293  1  0.653121  0  0.098092  0.211727  0  4.145537  0
C  C61  1  0.55147696  0.45760505  0.86093642  1  -0.253566  0  -0.044096  -0.124996  0  4.181987  0
C  C62  1  0.48909009  0.45263397  0.11919839  1  -0.196678  0  -0.041293  -0.052299  0  4.179514  0
C  C63  1  0.78195797  0.34660720  0.92583219  1  0.365498  0  -0.062475  0.082081  0  3.861202  0
C  C64  1  0.87617843  0.25268477  0.96863267  1  -0.058951  0  -0.240267  -0.391641  0  3.970073  0
C  C65  1  0.83293316  0.58666126  0.24865300  1  0.37067  0  -0.055738  0.098919  0  3.835559  0
C  C66  1  0.91701481  0.69402718  0.22074732  1  -0.073844  0  -0.252353  -0.425087  0  3.963878  0
C  C67  1  0.90132005  0.68686880  0.73915806  1  0.398942  0  -0.075466  0.080397  0  3.930911  0
C  C68  1  0.58330266  0.06957733  0.48499650  1  -0.059769  0  -0.018361  0.004845  0  4.000632  0
C  C69  1  0.86171282  0.75373230  0.82807892  1  -0.003446  0  -0.244202  -0.388537  0  3.980637  0
C  C70  1  0.16427689  0.06315116  0.61945587  1  0.409261  0  -0.071101  0.079243  0  3.894307  0
C  C71  1  0.10787078  0.15963279  0.68259307  1  -0.056212  0  -0.244417  -0.3952  0  3.979701  0
C  C72  1  0.17338213  0.84492219  0.40298295  1  0.366524  0  -0.071795  0.084998  0  3.879577  0
C  C73  1  0.14030027  0.95392405  0.34170461  1  -0.065366  0  -0.2516  -0.409232  0  3.97176  0
C  C74  1  0.58920065  0.89692873  0.27533257  1  0.406664  0  -0.07152  0.091828  0  3.88338  0
C  C75  1  0.61649439  0.87501582  0.17159406  1  -0.080359  0  -0.242136  -0.388307  0  3.96596  0
C  C76  1  0.81799291  0.19307060  0.32149672  1  0.416838  0  -0.07438  0.088937  0  3.95017  0
C  C77  1  0.78181010  0.23628627  0.22073875  1  -0.054127  0  -0.251482  -0.404117  0  3.970928  0
C  C78  1  0.12527252  0.37888813  0.29206349  1  0.331934  0  -0.064946  0.084834  0  3.831236  0
C  C79  1  0.47561901  0.13606451  0.51189704  1  0.009127  0  -0.016254  -0.133234  0  3.922677  0
C  C80  1  0.14158360  0.38601961  0.18635867  1  -0.086294  0  -0.246522  -0.39862  0  3.969848  0
C  C81  1  0.35927078  0.06570556  0.52843230  1  0.509708  0  0.096889  0.147662  0  4.001986  0
C  C82  1  0.35268644  0.93691223  0.50737529  1  0.560161  0  0.084907  0.133932  0  3.981965  0
C  C83  1  0.46776006  0.87121343  0.48758086  1  0.031204  0  -0.020402  -0.137762  0  3.956975  0
C  C84  1  0.58172119  0.94357848  0.47447425  1  0.054492  0  -0.027213  -0.071556  0  3.991214  0
C  C85  1  0.71425932  0.94320707  0.42986811  1  0.653691  0  0.115711  0.254788  0  3.836748  0
N  N86  1  0.12973253  0.49440241  0.49046758  1  -1.214957  0  -0.294958  -0.275458  0  3.443264  0
N  N87  1  0.84953756  0.52874095  0.50444639  1  -1.213197  0  -0.298953  -0.285009  0  3.469617  0
Cl  Cl88  1  0.32272115  0.51707786  0.96940068  1  -0.199532  0  -0.01727  -0.079025  0  1.444186  0
Cl  Cl89  1  0.85374972  0.87502782  0.50091585  1  -0.2675  0  -0.043506  -0.157473  0  1.420145  0
O  O90  1  0.59212716  0.32795460  0.53596415  1  -1.169272  0  -0.31378  -0.550568  0  2.242143  0
O  O91  1  0.82072220  0.58780806  0.35203937  1  -1.067013  0  -0.143828  -0.162303  0  2.624898  0
O  O92  1  0.90079552  0.55873052  0.75803596  1  -1.0602  0  -0.223304  -0.244204  0  2.507312  0
O  O93  1  0.25296651  0.12490788  0.55883112  1  -1.056079  0  -0.178133  -0.177392  0  2.536848  0
O  O94  1  0.22666614  0.88214850  0.50082802  1  -1.051612  0  -0.199194  -0.225662  0  2.555863  0
O  O95  1  0.71722576  0.89908011  0.33531605  1  -1.038096  0  -0.208515  -0.25254  0  2.4858  0
O  O96  1  0.69616436  0.15153452  0.35699700  1  -1.048607  0  -0.212257  -0.203313  0  2.510964  0
O  O97  1  0.08363303  0.50037607  0.32386536  1  -1.069893  0  -0.176479  -0.221616  0  2.570443  0
O  O98  1  0.37213947  0.31994006  0.47338401  1  -1.16178  0  -0.319813  -0.556762  0  2.383147  0
O  O99  1  0.61654508  0.55362629  0.63812552  1  -1.145283  0  -0.302923  -0.523978  0  2.300015  0
O  O100  1  0.39758822  0.48495445  0.63554580  1  -1.144832  0  -0.293051  -0.518945  0  2.281543  0
O  O101  1  0.58072688  0.68884206  0.46246514  1  -1.154799  0  -0.308935  -0.540465  0  2.345244  0
O  O102  1  0.36614670  0.67643793  0.50273591  1  -1.159169  0  -0.316595  -0.540457  0  2.407516  0
O  O103  1  0.59729933  0.44422651  0.36030250  1  -1.13833  0  -0.302717  -0.527638  0  2.339457  0
O  O104  1  0.38360050  0.51466096  0.34008872  1  -1.149557  0  -0.305689  -0.545676  0  2.296147  0
O  O105  1  0.68436870  0.37401097  0.99424112  1  -1.031321  0  -0.164609  -0.173006  0  2.457558  0
