# generated using pymatgen
data_AlH7C14S6O23
_symmetry_space_group_name_H-M   'P 1'
_cell_length_a   7.24398213
_cell_length_b   18.16974345
_cell_length_c   24.16564956
_cell_angle_alpha   89.99421749
_cell_angle_beta   89.99462945
_cell_angle_gamma   90.13714136
_symmetry_Int_Tables_number   1
_chemical_formula_structural   AlH7C14S6O23
_chemical_formula_sum   'Al4 H28 C56 S24 O92'
_cell_volume   3180.70499373
_cell_formula_units_Z   4
loop_
 _symmetry_equiv_pos_site_id
 _symmetry_equiv_pos_as_xyz
  1  'x, y, z'
loop_
 _atom_site_type_symbol
 _atom_site_label
 _atom_site_symmetry_multiplicity
 _atom_site_fract_x
 _atom_site_fract_y
 _atom_site_fract_z
 _atom_site_occupancy
 _atom_site_pbe_bader_charge
 _atom_site_pbe_bader_spin_density
 _atom_site_pbe_cm5_charge
 _atom_site_pbe_ddec_charge
 _atom_site_pbe_ddec_spin_density
 _atom_site_pbe_ddec_sum_bond_order
 _atom_site_pbe_magmom
Al  Al0  1  0.09822876  0.74902970  0.24906381  1  2.505475  0  0.43253  1.635747  0  2.515865  0
Al  Al1  1  0.90178135  0.25100491  0.74903763  1  2.506277  0  0.432371  1.636025  0  2.515542  0
Al  Al2  1  0.59795260  0.74894551  0.25081620  1  2.506789  0  0.431682  1.636229  0  2.520022  0
Al  Al3  1  0.40204514  0.25107960  0.75072939  1  2.505751  0  0.43183  1.635709  0  2.51953  0
H  H4  1  0.58583456  0.58088589  0.60874102  1  0.698909  0  0.325747  0.401454  0  0.931142  0
H  H5  1  0.13564366  0.39734820  0.36626960  1  0.689346  0  0.322623  0.394936  0  0.9318  0
H  H6  1  0.41371100  0.41779969  0.10890742  1  0.680015  0  0.325385  0.400818  0  0.932064  0
H  H7  1  0.86345004  0.60273004  0.86696598  1  0.672664  0  0.322896  0.395345  0  0.930896  0
H  H8  1  0.37971986  0.90080479  0.87004027  1  0.688102  0  0.326163  0.400326  0  0.92418  0
H  H9  1  0.64235963  0.10437505  0.13297665  1  0.673468  0  0.322778  0.394894  0  0.929601  0
H  H10  1  0.62184892  0.09953518  0.36966740  1  0.690152  0  0.326724  0.400984  0  0.922995  0
H  H11  1  0.35898984  0.89601007  0.63267752  1  0.678163  0  0.323  0.395775  0  0.92796  0
H  H12  1  0.13983067  0.68228514  0.57061689  1  0.684617  0  0.332261  0.406461  0  0.913326  0
H  H13  1  0.89159951  0.31600673  0.43170228  1  0.675242  0  0.318767  0.386539  0  0.949613  0
H  H14  1  0.85985434  0.31671835  0.07046542  1  0.687237  0  0.332099  0.406325  0  0.914931  0
H  H15  1  0.10832266  0.68375738  0.93265956  1  0.666949  0  0.318699  0.386515  0  0.949237  0
H  H16  1  0.65575238  0.82056136  0.93526320  1  0.674535  0  0.328031  0.398164  0  0.923572  0
H  H17  1  0.37711644  0.18308118  0.06900479  1  0.682434  0  0.321099  0.389847  0  0.941691  0
H  H18  1  0.34613471  0.17993043  0.43489824  1  0.674427  0  0.32776  0.397668  0  0.923571  0
H  H19  1  0.62302951  0.81720831  0.56860973  1  0.686115  0  0.32074  0.389237  0  0.942954  0
H  H20  1  0.80491957  0.39142275  0.63948376  1  0.66707  0  0.340426  0.398827  0  0.873936  0
H  H21  1  0.55022049  0.59918515  0.47726680  1  0.678585  0  0.315806  0.375191  0  0.98126  0
H  H22  1  0.19505957  0.60728094  0.13999627  1  0.665196  0  0.340327  0.397792  0  0.875298  0
H  H23  1  0.44927503  0.40013433  0.97738685  1  0.680197  0  0.315971  0.37574  0  0.980609  0
H  H24  1  0.29304559  0.10526151  0.86225581  1  0.660349  0  0.342289  0.3976  0  0.870358  0
H  H25  1  0.04762655  0.89973263  0.01787255  1  0.682265  0  0.317595  0.37219  0  0.983114  0
H  H26  1  0.70787036  0.89521858  0.36194675  1  0.669471  0  0.342782  0.397914  0  0.869135  0
H  H27  1  0.95366691  0.10076507  0.51755730  1  0.679179  0  0.317442  0.371883  0  0.983577  0
H  H28  1  0.34608037  0.65760158  0.27463855  1  0.609229  0  0.335371  0.422023  0  0.867161  0
H  H29  1  0.65369731  0.34258886  0.77428542  1  0.609966  0  0.335665  0.42232  0  0.866454  0
H  H30  1  0.84842796  0.84030375  0.22509274  1  0.618884  0  0.33545  0.421911  0  0.866563  0
H  H31  1  0.15146980  0.15957640  0.72531911  1  0.620551  0  0.335551  0.422245  0  0.866036  0
C  C32  1  0.34587669  0.83154653  0.32403901  1  1.694454  0  0.290857  0.73236  0  4.122694  0
C  C33  1  0.65028943  0.17572426  0.67257092  1  1.697521  0  0.298979  0.742068  0  4.099715  0
C  C34  1  0.65408205  0.16877984  0.82418873  1  1.698646  0  0.290158  0.731916  0  4.12288  0
C  C35  1  0.34991122  0.82409031  0.17250341  1  1.694645  0  0.299722  0.743033  0  4.099374  0
C  C36  1  0.84443785  0.66640367  0.17581583  1  1.701951  0  0.289849  0.729502  0  4.127414  0
C  C37  1  0.15236724  0.32622192  0.82713532  1  1.683591  0  0.300161  0.742879  0  4.102719  0
C  C38  1  0.15550180  0.33316507  0.67544497  1  1.668554  0  0.290418  0.730248  0  4.127647  0
C  C39  1  0.84757531  0.67400953  0.32730331  1  1.687589  0  0.29947  0.742532  0  4.102512  0
C  C40  1  0.11932006  0.53531855  0.53567264  1  -0.080947  0  0.014254  -0.102354  0  3.530683  0
C  C41  1  0.90851942  0.45960206  0.46023911  1  -0.059881  0  0.009969  -0.118104  0  3.54691  0
C  C42  1  0.88004964  0.46382460  0.03596354  1  -0.069995  0  0.01375  -0.104433  0  3.533101  0
C  C43  1  0.09078900  0.53988599  0.96067407  1  -0.080404  0  0.010607  -0.115419  0  3.543818  0
C  C44  1  0.61706782  0.96596100  0.96360434  1  -0.084597  0  0.01153  -0.112281  0  3.53367  0
C  C45  1  0.40925432  0.03966211  0.04056064  1  -0.094801  0  0.009947  -0.117334  0  3.549522  0
C  C46  1  0.38419637  0.03446332  0.46330126  1  -0.088818  0  0.010804  -0.112535  0  3.531011  0
C  C47  1  0.59195898  0.96064498  0.54021291  1  -0.094148  0  0.009669  -0.117018  0  3.549648  0
C  C48  1  0.90799330  0.55031337  0.52369000  1  -0.09233  0  0.011233  -0.122216  0  3.543061  0
C  C49  1  0.12030701  0.44462284  0.47258593  1  -0.078713  0  0.012185  -0.108573  0  3.54038  0
C  C50  1  0.09133313  0.44885878  0.02390462  1  -0.092519  0  0.011684  -0.11983  0  3.542522  0
C  C51  1  0.87904402  0.55481636  0.97311326  1  -0.078934  0  0.01195  -0.109979  0  3.543323  0
C  C52  1  0.40723819  0.94921325  0.97731672  1  -0.097686  0  0.008246  -0.127543  0  3.572892  0
C  C53  1  0.61922834  0.05662843  0.02668604  1  -0.08188  0  0.013286  -0.105156  0  3.53146  0
C  C54  1  0.59407641  0.05122321  0.47702079  1  -0.1008  0  0.008723  -0.125176  0  3.56728  0
C  C55  1  0.38194194  0.94375184  0.52637627  1  -0.095157  0  0.013529  -0.105347  0  3.531302  0
C  C56  1  0.85875964  0.63076046  0.37689467  1  0.021267  0  0.004901  -0.102017  0  3.843451  0
C  C57  1  0.15618881  0.37029350  0.62303762  1  -0.330175  0  -0.003864  -0.127258  0  3.878625  0
C  C58  1  0.14096787  0.36919727  0.87684815  1  0.085134  0  0.005429  -0.101552  0  3.843712  0
C  C59  1  0.84359253  0.62890178  0.12356677  1  0.038324  0  -0.003764  -0.126824  0  3.877969  0
C  C60  1  0.36182790  0.86799318  0.12321672  1  -0.444455  0  0.004583  -0.102581  0  3.842183  0
C  C61  1  0.65096221  0.13102675  0.87644165  1  -0.335313  0  -0.00295  -0.124525  0  3.873417  0
C  C62  1  0.63864783  0.13203126  0.62317538  1  0.350442  0  0.004478  -0.102051  0  3.840968  0
C  C63  1  0.34931980  0.86939303  0.37621574  1  -0.454489  0  -0.00353  -0.125181  0  3.874754  0
C  C64  1  0.15993007  0.53027002  0.47135067  1  -0.078229  0  0.013435  -0.094339  0  3.554855  0
C  C65  1  0.86800116  0.46437380  0.52438068  1  -0.106501  0  0.013473  -0.098556  0  3.583032  0
C  C66  1  0.83940787  0.46917093  0.97166620  1  -0.07868  0  0.014103  -0.092348  0  3.554195  0
C  C67  1  0.13139853  0.53477851  0.02478973  1  -0.0852  0  0.013021  -0.100252  0  3.584257  0
C  C68  1  0.66308706  0.97120230  0.02758395  1  -0.083746  0  0.014836  -0.090679  0  3.542517  0
C  C69  1  0.36310029  0.03463153  0.97680282  1  -0.094622  0  0.012992  -0.096793  0  3.577828  0
C  C70  1  0.33828347  0.02921871  0.52729830  1  -0.055368  0  0.014759  -0.091188  0  3.543695  0
C  C71  1  0.63804940  0.96577628  0.47645216  1  -0.095112  0  0.01285  -0.096707  0  3.578745  0
C  C72  1  0.94813731  0.54502027  0.45940071  1  0.084633  0  0.028349  0.134805  0  3.792502  0
C  C73  1  0.07881549  0.44976179  0.53649777  1  0.162  0  0.02992  0.140943  0  3.796175  0
C  C74  1  0.05120148  0.45443924  0.95962798  1  0.08728  0  0.027911  0.132768  0  3.792475  0
C  C75  1  0.92066728  0.54936427  0.03700512  1  0.14008  0  0.029738  0.141029  0  3.800263  0
C  C76  1  0.45256259  0.95469860  0.04111670  1  0.120665  0  0.028189  0.134534  0  3.794483  0
C  C77  1  0.57260730  0.05106158  0.96305650  1  0.155456  0  0.02908  0.140184  0  3.795503  0
C  C78  1  0.54876031  0.04563381  0.54083580  1  0.117066  0  0.028421  0.13446  0  3.79437  0
C  C79  1  0.42852517  0.94934786  0.46275994  1  0.155814  0  0.028844  0.138014  0  3.798557  0
C  C80  1  0.88853801  0.59281908  0.41707606  1  -0.108444  0  -0.022844  -0.034666  0  4.0615  0
C  C81  1  0.13587847  0.40343127  0.57999828  1  0.176903  0  -0.020801  -0.027784  0  4.056394  0
C  C82  1  0.11094626  0.40683925  0.91717608  1  -0.174057  0  -0.023042  -0.034149  0  4.060458  0
C  C83  1  0.86405916  0.59558752  0.08061423  1  -0.216092  0  -0.02072  -0.028354  0  4.057844  0
C  C84  1  0.39482545  0.90635642  0.08344141  1  0.337153  0  -0.023325  -0.035361  0  4.060529  0
C  C85  1  0.62676748  0.09767020  0.91925816  1  0.161796  0  -0.022018  -0.033631  0  4.061108  0
C  C86  1  0.60635219  0.09384378  0.58326156  1  -0.459477  0  -0.023234  -0.035896  0  4.058998  0
C  C87  1  0.37426495  0.90274982  0.41898811  1  0.28533  0  -0.021537  -0.032384  0  4.061563  0
S  S88  1  0.78781066  0.62878301  0.55332695  1  3.176435  0  0.577399  1.180731  0  5.952712  0
S  S89  1  0.23199811  0.36309584  0.44517012  1  3.183941  0  0.557309  1.149174  0  5.99774  0
S  S90  1  0.21158668  0.37029326  0.05337182  1  3.188094  0  0.577725  1.179906  0  5.950267  0
S  S91  1  0.76724971  0.63651279  0.94598717  1  3.178985  0  0.557583  1.149555  0  5.998846  0
S  S92  1  0.30118529  0.86702983  0.94946061  1  3.164737  0  0.572603  1.161293  0  5.957894  0
S  S93  1  0.72680757  0.13970252  0.05342116  1  3.17338  0  0.556639  1.149136  0  5.996162  0
S  S94  1  0.70033839  0.13337316  0.44909236  1  3.155576  0  0.573981  1.162411  0  5.958767  0
S  S95  1  0.27392634  0.86074422  0.55316090  1  3.184467  0  0.55674  1.149928  0  5.99429  0
S  S96  1  0.22390537  0.57709378  0.59635639  1  3.15905  0  0.561197  1.155145  0  5.999314  0
S  S97  1  0.79371686  0.41799883  0.40086629  1  3.171054  0  0.555249  1.147536  0  6.016203  0
S  S98  1  0.77564736  0.42168140  0.09654907  1  3.155316  0  0.559901  1.153264  0  5.999512  0
S  S99  1  0.20580418  0.58191450  0.90145622  1  3.173303  0  0.554995  1.148337  0  6.013072  0
S  S100  1  0.72712541  0.92538622  0.90276734  1  3.168566  0  0.559062  1.153533  0  5.982731  0
S  S101  1  0.29448004  0.07967563  0.10047137  1  3.176344  0  0.554116  1.146461  0  6.019765  0
S  S102  1  0.27430847  0.07508814  0.40243865  1  3.168909  0  0.558013  1.151084  0  5.983044  0
S  S103  1  0.70665455  0.92049569  0.60005234  1  3.18992  0  0.555483  1.147975  0  6.019045  0
S  S104  1  0.69338141  0.41152449  0.55817953  1  3.162094  0  0.54903  1.150347  0  6.02694  0
S  S105  1  0.30995001  0.58344871  0.42836542  1  3.236257  0  0.53942  1.158112  0  6.106084  0
S  S106  1  0.30633040  0.58735945  0.05869487  1  3.163461  0  0.549343  1.150455  0  6.028691  0
S  S107  1  0.68956467  0.41613719  0.92853334  1  3.23014  0  0.539718  1.159211  0  6.107251  0
S  S108  1  0.18523355  0.08613390  0.94358718  1  3.178971  0  0.550543  1.152704  0  6.011266  0
S  S109  1  0.81519402  0.91729056  0.06929872  1  3.223745  0  0.539282  1.15514  0  6.098673  0
S  S110  1  0.81581924  0.91437007  0.44319699  1  3.177872  0  0.550794  1.153593  0  6.015573  0
S  S111  1  0.18618494  0.08324107  0.56897008  1  3.222328  0  0.541147  1.158537  0  6.098872  0
O  O112  1  0.50644928  0.80766739  0.19295766  1  -1.230448  0  -0.213314  -0.576872  0  2.302493  0
O  O113  1  0.49215398  0.18132955  0.80485630  1  -1.228019  0  -0.224573  -0.596015  0  2.267524  0
O  O114  1  0.49370648  0.19199088  0.69307108  1  -1.230063  0  -0.213304  -0.576843  0  2.301307  0
O  O115  1  0.50781684  0.81894002  0.30466982  1  -1.221281  0  -0.225059  -0.596909  0  2.266681  0
O  O116  1  0.00386189  0.68925689  0.30610849  1  -1.226572  0  -0.212513  -0.576037  0  2.304978  0
O  O117  1  0.99212775  0.32020690  0.69379153  1  -1.220233  0  -0.222531  -0.593367  0  2.266921  0
O  O118  1  0.99610588  0.31108579  0.80585539  1  -1.226128  0  -0.213023  -0.576749  0  2.30535  0
O  O119  1  0.00786521  0.67949910  0.19406915  1  -1.227807  0  -0.222435  -0.592816  0  2.264833  0
O  O120  1  0.18907470  0.81687861  0.30354007  1  -1.223717  0  -0.214576  -0.565115  0  2.280651  0
O  O121  1  0.81066608  0.19211545  0.69035159  1  -1.234623  0  -0.218304  -0.582337  0  2.28052  0
O  O122  1  0.81083455  0.18342350  0.80363932  1  -1.222518  0  -0.214286  -0.565491  0  2.281311  0
O  O123  1  0.18946410  0.80772134  0.19025871  1  -1.232902  0  -0.21904  -0.582968  0  2.279166  0
O  O124  1  0.68905456  0.68032898  0.19738422  1  -1.221792  0  -0.213667  -0.563697  0  2.288735  0
O  O125  1  0.31289765  0.30924148  0.80988004  1  -1.23034  0  -0.218914  -0.582926  0  2.279909  0
O  O126  1  0.31090589  0.31945325  0.69707094  1  -1.224152  0  -0.213838  -0.563644  0  2.287643  0
O  O127  1  0.68708160  0.69102933  0.31007865  1  -1.231991  0  -0.218512  -0.5828  0  2.281226  0
O  O128  1  0.34769404  0.70290158  0.25308080  1  -1.413361  0  -0.458494  -0.977401  0  1.988212  0
O  O129  1  0.65225486  0.29717011  0.75285076  1  -1.413986  0  -0.458548  -0.977232  0  1.987152  0
O  O130  1  0.84911816  0.79495910  0.24660300  1  -1.42209  0  -0.458248  -0.977327  0  1.986099  0
O  O131  1  0.15090520  0.20502286  0.74669658  1  -1.423833  0  -0.458184  -0.977551  0  1.985317  0
O  O132  1  0.92299795  0.68622164  0.56072559  1  -1.277109  0  -0.274469  -0.492402  0  2.262637  0
O  O133  1  0.63474078  0.64864623  0.51789768  1  -1.288147  0  -0.281519  -0.500179  0  2.31471  0
O  O134  1  0.71842323  0.60346726  0.61012213  1  -1.274186  0  -0.31826  -0.479467  0  2.280223  0
O  O135  1  0.40657124  0.34870022  0.46930421  1  -1.262877  0  -0.264773  -0.449709  0  2.292138  0
O  O136  1  0.08890160  0.30716708  0.45346318  1  -1.290051  0  -0.300226  -0.526878  0  2.247787  0
O  O137  1  0.25885296  0.38027911  0.38284384  1  -1.264223  0  -0.328684  -0.481652  0  2.25454  0
O  O138  1  0.07648161  0.31279025  0.06063947  1  -1.291381  0  -0.273669  -0.491704  0  2.263918  0
O  O139  1  0.36471522  0.35061066  0.01790955  1  -1.28737  0  -0.282043  -0.49994  0  2.315891  0
O  O140  1  0.28098814  0.39535685  0.11022310  1  -1.253767  0  -0.318136  -0.478958  0  2.280908  0
O  O141  1  0.59274888  0.65078655  0.97020934  1  -1.260277  0  -0.265241  -0.450103  0  2.290247  0
O  O142  1  0.91033725  0.69240457  0.95433344  1  -1.283901  0  -0.300384  -0.527271  0  2.247338  0
O  O143  1  0.74017544  0.61957433  0.88362280  1  -1.244592  0  -0.32881  -0.481546  0  2.254371  0
O  O144  1  0.44336987  0.81164779  0.95471129  1  -1.2678  0  -0.276546  -0.499681  0  2.256203  0
O  O145  1  0.12824661  0.84978640  0.97580903  1  -1.288375  0  -0.268105  -0.464539  0  2.314304  0
O  O146  1  0.25709200  0.88557783  0.88854857  1  -1.258826  0  -0.318018  -0.46894  0  2.244758  0
O  O147  1  0.89736645  0.15760693  0.02784188  1  -1.261094  0  -0.265595  -0.450416  0  2.274192  0
O  O148  1  0.57770415  0.19314749  0.04737246  1  -1.292648  0  -0.301248  -0.531692  0  2.253525  0
O  O149  1  0.76322094  0.12169313  0.11529619  1  -1.236444  0  -0.328759  -0.480687  0  2.248914  0
O  O150  1  0.55835290  0.18883358  0.45437812  1  -1.272809  0  -0.276759  -0.500035  0  2.257482  0
O  O151  1  0.87336832  0.15055841  0.47539596  1  -1.285661  0  -0.268947  -0.465346  0  2.315319  0
O  O152  1  0.74440799  0.11480688  0.38818437  1  -1.251704  0  -0.318524  -0.46982  0  2.247685  0
O  O153  1  0.10310856  0.84308993  0.52765773  1  -1.261918  0  -0.265203  -0.45043  0  2.273218  0
O  O154  1  0.42255128  0.80709148  0.54704604  1  -1.303436  0  -0.301495  -0.531881  0  2.25107  0
O  O155  1  0.23799207  0.87877368  0.61505082  1  -1.241052  0  -0.329409  -0.482118  0  2.247281  0
O  O156  1  0.08319549  0.56895471  0.63753085  1  -1.249234  0  -0.283184  -0.482489  0  2.16235  0
O  O157  1  0.40333317  0.54648760  0.60839835  1  -1.300542  0  -0.285382  -0.503174  0  2.360828  0
O  O158  1  0.26292470  0.65814798  0.57890081  1  -1.248009  0  -0.333214  -0.503525  0  2.289715  0
O  O159  1  0.61858122  0.44937852  0.38977292  1  -1.260956  0  -0.265994  -0.447714  0  2.274695  0
O  O160  1  0.93544774  0.42556989  0.35808797  1  -1.284753  0  -0.302708  -0.534074  0  2.197507  0
O  O161  1  0.76733976  0.33639779  0.41787345  1  -1.24742  0  -0.331755  -0.491766  0  2.299552  0
O  O162  1  0.91655991  0.42953715  0.13768155  1  -1.248507  0  -0.28268  -0.481558  0  2.162664  0
O  O163  1  0.59627628  0.45220573  0.10877420  1  -1.297574  0  -0.284626  -0.501407  0  2.359986  0
O  O164  1  0.73664760  0.34075078  0.07882496  1  -1.252375  0  -0.333038  -0.503671  0  2.292869  0
O  O165  1  0.38083695  0.55048942  0.89028451  1  -1.262112  0  -0.266129  -0.448446  0  2.275998  0
O  O166  1  0.06423152  0.57486701  0.85861215  1  -1.282621  0  -0.302592  -0.534884  0  2.196894  0
O  O167  1  0.23252402  0.66339435  0.91882681  1  -1.238691  0  -0.33124  -0.491515  0  2.297733  0
O  O168  1  0.57815619  0.92709273  0.86186740  1  -1.297098  0  -0.305267  -0.543848  0  2.211113  0
O  O169  1  0.89532238  0.95981169  0.88745081  1  -1.256376  0  -0.266422  -0.448082  0  2.260373  0
O  O170  1  0.77197134  0.84534566  0.92114629  1  -1.238752  0  -0.331276  -0.494698  0  2.305174  0
O  O171  1  0.12363543  0.04491886  0.11257994  1  -1.256773  0  -0.266923  -0.448878  0  2.263656  0
O  O172  1  0.43946596  0.07582910  0.14242026  1  -1.285078  0  -0.303975  -0.537192  0  2.195812  0
O  O173  1  0.25634162  0.16033668  0.08300429  1  -1.254463  0  -0.330176  -0.487857  0  2.302884  0
O  O174  1  0.42331185  0.07316089  0.36153240  1  -1.298865  0  -0.305172  -0.543618  0  2.210037  0
O  O175  1  0.10589298  0.04083054  0.38711994  1  -1.256524  0  -0.265831  -0.446958  0  2.261322  0
O  O176  1  0.22988001  0.15519787  0.42074898  1  -1.238226  0  -0.330631  -0.493459  0  2.30464  0
O  O177  1  0.87772426  0.95512281  0.61207142  1  -1.260751  0  -0.267355  -0.449293  0  2.261452  0
O  O178  1  0.56186845  0.92444023  0.64206643  1  -1.293589  0  -0.304581  -0.538095  0  2.197434  0
O  O179  1  0.74409268  0.83980653  0.58253626  1  -1.259082  0  -0.330199  -0.487716  0  2.302851  0
O  O180  1  0.52377703  0.44578745  0.54314759  1  -1.281833  0  -0.286127  -0.490889  0  2.328393  0
O  O181  1  0.73575931  0.33579113  0.54772714  1  -1.258884  0  -0.28297  -0.478733  0  2.14078  0
O  O182  1  0.72734967  0.42964269  0.62179384  1  -1.217301  0  -0.336853  -0.497626  0  2.194689  0
O  O183  1  0.28523229  0.55570569  0.37339114  1  -1.275242  0  -0.290606  -0.487057  0  2.136032  0
O  O184  1  0.27132207  0.65890405  0.44216860  1  -1.282935  0  -0.302513  -0.506997  0  2.118652  0
O  O185  1  0.50296396  0.56074385  0.44981096  1  -1.286143  0  -0.34909  -0.528122  0  2.405479  0
O  O186  1  0.47563762  0.55294400  0.04351408  1  -1.285576  0  -0.286886  -0.491554  0  2.328685  0
O  O187  1  0.26446045  0.66320613  0.04846336  1  -1.253443  0  -0.282586  -0.478525  0  2.139496  0
O  O188  1  0.27252588  0.56903648  0.12228883  1  -1.217787  0  -0.336467  -0.496009  0  2.196977  0
O  O189  1  0.71445307  0.44410645  0.87362975  1  -1.276602  0  -0.290635  -0.487468  0  2.137099  0
O  O190  1  0.72817103  0.34063507  0.94218856  1  -1.280075  0  -0.302595  -0.507379  0  2.119423  0
O  O191  1  0.49644630  0.43867189  0.94997885  1  -1.283606  0  -0.349912  -0.529401  0  2.404674  0
O  O192  1  0.01581599  0.05276948  0.96001551  1  -1.280389  0  -0.280469  -0.483649  0  2.33161  0
O  O193  1  0.22920439  0.16224866  0.95235110  1  -1.264258  0  -0.28509  -0.482885  0  2.136688  0
O  O194  1  0.21874982  0.06614080  0.88009374  1  -1.210542  0  -0.335698  -0.494957  0  2.187386  0
O  O195  1  0.79602395  0.94498624  0.12444909  1  -1.277924  0  -0.289367  -0.48377  0  2.13814  0
O  O196  1  0.77101086  0.84221224  0.05555204  1  -1.274344  0  -0.301012  -0.506729  0  2.128467  0
O  O197  1  0.00880526  0.93780148  0.04661298  1  -1.283406  0  -0.347239  -0.525176  0  2.407621  0
O  O198  1  0.98508857  0.94782447  0.45964838  1  -1.281015  0  -0.280404  -0.483595  0  2.330702  0
O  O199  1  0.77207625  0.83822390  0.45190540  1  -1.266051  0  -0.285273  -0.483425  0  2.138407  0
O  O200  1  0.78220749  0.93437697  0.37969818  1  -1.217175  0  -0.33619  -0.495526  0  2.187754  0
O  O201  1  0.20532863  0.05566594  0.62415441  1  -1.276364  0  -0.289751  -0.484578  0  2.138769  0
O  O202  1  0.23049166  0.15828036  0.55513092  1  -1.277905  0  -0.301925  -0.508206  0  2.128775  0
O  O203  1  0.99256218  0.06273966  0.54632453  1  -1.282617  0  -0.347595  -0.525435  0  2.408771  0
