# generated using pymatgen
data_CuH7C10INO2
_symmetry_space_group_name_H-M   'P 1'
_cell_length_a   4.12452696
_cell_length_b   10.04041078
_cell_length_c   12.30473080
_cell_angle_alpha   94.78750547
_cell_angle_beta   97.67234108
_cell_angle_gamma   99.53258582
_symmetry_Int_Tables_number   1
_chemical_formula_structural   CuH7C10INO2
_chemical_formula_sum   'Cu2 H14 C20 I2 N2 O4'
_cell_volume   495.11397006
_cell_formula_units_Z   2
loop_
 _symmetry_equiv_pos_site_id
 _symmetry_equiv_pos_as_xyz
  1  'x, y, z'
loop_
 _atom_site_type_symbol
 _atom_site_label
 _atom_site_symmetry_multiplicity
 _atom_site_fract_x
 _atom_site_fract_y
 _atom_site_fract_z
 _atom_site_occupancy
 _atom_site_hle17_bader_spin_density
 _atom_site_hle17_ddec_charge
 _atom_site_hle17_ddec_spin_density
 _atom_site_hle17_ddec_sum_bond_order
 _atom_site_hle17_magmom
 _atom_site_hse06_10hf_bader_spin_density
 _atom_site_hse06_10hf_ddec_charge
 _atom_site_hse06_10hf_ddec_spin_density
 _atom_site_hse06_10hf_ddec_sum_bond_order
 _atom_site_hse06_10hf_magmom
 _atom_site_hse06_bader_spin_density
 _atom_site_hse06_ddec_charge
 _atom_site_hse06_ddec_spin_density
 _atom_site_hse06_ddec_sum_bond_order
 _atom_site_hse06_magmom
 _atom_site_pbe_bader_spin_density
 _atom_site_pbe_cm5_charge
 _atom_site_pbe_ddec_charge
 _atom_site_pbe_ddec_spin_density
 _atom_site_pbe_ddec_sum_bond_order
 _atom_site_pbe_magmom
Cu  Cu0  1  0.23641195  0.10561916  0.03634813  1  0  0.261379  0  2.148941  0  0  0.180823  0  2.621687  0  0  0.191732  0  2.570415  0  0  0.257596  0.177154  0  2.65404  0
Cu  Cu1  1  0.76360614  0.89438338  0.96365085  1  0  0.261299  0  2.148986  0  0  0.180792  0  2.621654  0  0  0.191647  0  2.570466  0  0  0.257578  0.177124  0  2.654015  0
H  H2  1  0.55075945  0.10596367  0.54842579  1  0  0.39909  0  0.893925  0  0  0.368918  0  0.968978  0  0  0.382197  0  0.954781  0  0  0.304397  0.359596  0  0.978853  0
H  H3  1  0.44921651  0.89403285  0.45156209  1  0  0.398974  0  0.894137  0  0  0.368927  0  0.968946  0  0  0.382207  0  0.954745  0  0  0.304443  0.359601  0  0.97882  0
H  H4  1  0.95150377  0.02716701  0.22525951  1  0  0.082613  0  0.976915  0  0  0.085274  0  1.053728  0  0  0.089721  0  1.048084  0  0  0.100077  0.081862  0  1.057834  0
H  H5  1  0.04851776  0.97283248  0.77473696  1  0  0.082577  0  0.976875  0  0  0.085313  0  1.053599  0  0  0.089761  0  1.047953  0  0  0.100105  0.081897  0  1.057716  0
H  H6  1  0.04853250  0.37807587  0.46204702  1  0  0.102729  0  0.945692  0  0  0.112294  0  1.013977  0  0  0.115326  0  1.010571  0  0  0.110532  0.110019  0  1.016403  0
H  H7  1  0.95145557  0.62191959  0.53795184  1  0  0.102742  0  0.945804  0  0  0.112318  0  1.014066  0  0  0.115349  0  1.010663  0  0  0.110547  0.110043  0  1.016487  0
H  H8  1  0.38138994  0.59709694  0.42272879  1  0  0.093891  0  0.972992  0  0  0.102577  0  1.040633  0  0  0.105162  0  1.039638  0  0  0.098559  0.100605  0  1.04162  0
H  H9  1  0.61859749  0.40289647  0.57727803  1  0  0.093963  0  0.972966  0  0  0.102673  0  1.040584  0  0  0.105252  0  1.039579  0  0  0.098604  0.100702  0  1.041574  0
H  H10  1  0.72245916  0.72402955  0.30012132  1  0  0.107041  0  0.939342  0  0  0.116383  0  0.998488  0  0  0.120158  0  0.996372  0  0  0.100517  0.113786  0  0.999631  0
H  H11  1  0.27753934  0.27597197  0.69988979  1  0  0.107047  0  0.939316  0  0  0.116424  0  0.998433  0  0  0.120199  0  0.996317  0  0  0.100536  0.113827  0  0.999581  0
H  H12  1  0.81670127  0.60790316  0.12389293  1  0  0.088987  0  0.971929  0  0  0.098078  0  1.036356  0  0  0.101162  0  1.034891  0  0  0.088628  0.095535  0  1.03781  0
H  H13  1  0.18330482  0.39210444  0.87611811  1  0  0.088961  0  0.971965  0  0  0.098007  0  1.036423  0  0  0.101083  0  1.034972  0  0  0.088612  0.095465  0  1.037876  0
H  H14  1  0.57924331  0.36251573  0.06972715  1  0  0.101566  0  0.987056  0  0  0.107419  0  1.05927  0  0  0.112169  0  1.055831  0  0  0.087733  0.1036  0  1.062478  0
H  H15  1  0.42077431  0.63749086  0.93027697  1  0  0.101591  0  0.9871  0  0  0.10746  0  1.059292  0  0  0.112225  0  1.055837  0  0  0.087792  0.103644  0  1.06249  0
C  C16  1  0.04589493  0.13464712  0.25136140  1  0  0.143994  0  3.645506  0  0  0.096719  0  3.906216  0  0  0.109623  0  3.916919  0  0  0.04988  0.088969  0  3.898695  0
C  C17  1  0.95411390  0.86535138  0.74863366  1  0  0.144137  0  3.645367  0  0  0.096839  0  3.906092  0  0  0.109721  0  3.916766  0  0  0.049933  0.089088  0  3.898578  0
C  C18  1  0.97551351  0.19382398  0.35190151  1  0  -0.140859  0  3.77942  0  0  -0.118493  0  4.025923  0  0  -0.133461  0  4.047915  0  0  -0.026459  -0.109194  0  4.011334  0
C  C19  1  0.02448270  0.80617351  0.64809458  1  0  -0.140754  0  3.779598  0  0  -0.118447  0  4.026174  0  0  -0.133362  0  4.048093  0  0  -0.026423  -0.10915  0  4.011582  0
C  C20  1  0.09750117  0.33037780  0.38453414  1  0  -0.033616  0  3.660857  0  0  -0.075981  0  3.915657  0  0  -0.064957  0  3.927928  0  0  -0.057652  -0.082428  0  3.906625  0
C  C21  1  0.90248926  0.66961766  0.61546239  1  0  -0.033777  0  3.661074  0  0  -0.076133  0  3.915878  0  0  -0.065118  0  3.928143  0  0  -0.057711  -0.08258  0  3.906844  0
C  C22  1  0.29062670  0.40654347  0.31726362  1  0  0.001539  0  3.810146  0  0  0.025142  0  4.034052  0  0  0.018429  0  4.06081  0  0  -0.007588  0.029401  0  4.016093  0
C  C23  1  0.70937501  0.59345502  0.68273764  1  0  0.001649  0  3.810048  0  0  0.025273  0  4.033892  0  0  0.018537  0  4.060686  0  0  -0.007574  0.029524  0  4.01593  0
C  C24  1  0.34748706  0.33965323  0.21563631  1  0  0.204564  0  3.731842  0  0  0.201197  0  3.962864  0  0  0.208548  0  3.985314  0  0  0.108072  0.196133  0  3.948599  0
C  C25  1  0.65251841  0.66034830  0.78436371  1  0  0.204477  0  3.73186  0  0  0.201164  0  3.962854  0  0  0.208504  0  3.985317  0  0  0.108053  0.196127  0  3.948557  0
C  C26  1  0.42916976  0.54618253  0.34624439  1  0  -0.104952  0  3.735174  0  0  -0.125674  0  3.98354  0  0  -0.12844  0  4.00734  0  0  -0.088114  -0.123746  0  3.967471  0
C  C27  1  0.57082811  0.45381798  0.65376092  1  0  -0.105124  0  3.735099  0  0  -0.125893  0  3.983518  0  0  -0.128636  0  4.007306  0  0  -0.088193  -0.123964  0  3.967455  0
C  C28  1  0.61576411  0.61685922  0.27772459  1  0  -0.05543  0  3.733302  0  0  -0.071813  0  3.988282  0  0  -0.074383  0  4.008614  0  0  -0.087233  -0.069956  0  3.973868  0
C  C29  1  0.38423719  0.38314331  0.72228345  1  0  -0.055295  0  3.733304  0  0  -0.071711  0  3.988283  0  0  -0.074279  0  4.008607  0  0  -0.08719  -0.069854  0  3.973874  0
C  C30  1  0.66774348  0.55057979  0.17708639  1  0  -0.019815  0  3.723658  0  0  -0.034319  0  3.968958  0  0  -0.032624  0  3.988132  0  0  -0.079547  -0.035412  0  3.956322  0
C  C31  1  0.33226356  0.44942478  0.82292041  1  0  -0.019944  0  3.723705  0  0  -0.03439  0  3.969051  0  0  -0.032692  0  3.988225  0  0  -0.079612  -0.035487  0  3.956416  0
C  C32  1  0.53665264  0.41486902  0.14648732  1  0  -0.14311  0  3.695493  0  0  -0.159205  0  3.940775  0  0  -0.165443  0  3.95971  0  0  -0.091413  -0.155835  0  3.92936  0
C  C33  1  0.46336009  0.58513757  0.85351661  1  0  -0.143035  0  3.695401  0  0  -0.159182  0  3.940694  0  0  -0.165426  0  3.959617  0  0  -0.09144  -0.155818  0  3.929273  0
C  C34  1  0.77413625  0.10740811  0.41866430  1  0  0.667942  0  3.807029  0  0  0.613753  0  4.106614  0  0  0.647848  0  4.099372  0  0  0.236557  0.590576  0  4.111377  0
C  C35  1  0.22584409  0.89257621  0.58132451  1  0  0.66762  0  3.806969  0  0  0.613443  0  4.106596  0  0  0.647524  0  4.099351  0  0  0.236432  0.590275  0  4.111349  0
I  I36  1  0.29592881  0.85172811  0.08822738  1  0  -0.35229  0  1.803174  0  0  -0.294124  0  2.267399  0  0  -0.313979  0  2.22546  0  0  -0.150647  -0.281009  0  2.295239  0
I  I37  1  0.70408388  0.14827342  0.91176968  1  0  -0.352299  0  1.803156  0  0  -0.294131  0  2.267408  0  0  -0.313991  0  2.225455  0  0  -0.150653  -0.281011  0  2.295244  0
N  N38  1  0.22307230  0.20346991  0.18494997  1  0  -0.300811  0  3.318566  0  0  -0.229514  0  3.60603  0  0  -0.243874  0  3.614144  0  0  -0.35252  -0.221435  0  3.600481  0
N  N39  1  0.77694579  0.79653262  0.81504901  1  0  -0.300773  0  3.318315  0  0  -0.229517  0  3.605788  0  0  -0.243849  0  3.613887  0  0  -0.352522  -0.221446  0  3.600231  0
O  O40  1  0.68298243  0.98269797  0.39104363  1  0  -0.561586  0  1.999336  0  0  -0.511691  0  2.219393  0  0  -0.533533  0  2.210322  0  0  -0.283357  -0.496768  0  2.224993  0
O  O41  1  0.31700835  0.01730971  0.60894729  1  0  -0.561528  0  1.998676  0  0  -0.511592  0  2.218799  0  0  -0.533442  0  2.209741  0  0  -0.283301  -0.496671  0  2.224397  0
O  O42  1  0.70071906  0.17218996  0.50748754  1  0  -0.542814  0  2.1171  0  0  -0.487783  0  2.337264  0  0  -0.51138  0  2.325214  0  0  -0.318053  -0.471476  0  2.345262  0
O  O43  1  0.29926242  0.82780756  0.49250633  1  0  -0.54256  0  2.117595  0  0  -0.48762  0  2.337721  0  0  -0.511212  0  2.325667  0  0  -0.317982  -0.471314  0  2.345715  0
