# generated using pymatgen
data_LaP3H17C12O13
_symmetry_space_group_name_H-M   'P 1'
_cell_length_a   9.89159440
_cell_length_b   11.73355237
_cell_length_c   11.00075187
_cell_angle_alpha   102.21651837
_cell_angle_beta   87.04173379
_cell_angle_gamma   99.06762924
_symmetry_Int_Tables_number   1
_chemical_formula_structural   LaP3H17C12O13
_chemical_formula_sum   'La2 P6 H34 C24 O26'
_cell_volume   1232.05808461
_cell_formula_units_Z   2
loop_
 _symmetry_equiv_pos_site_id
 _symmetry_equiv_pos_as_xyz
  1  'x, y, z'
loop_
 _atom_site_type_symbol
 _atom_site_label
 _atom_site_symmetry_multiplicity
 _atom_site_fract_x
 _atom_site_fract_y
 _atom_site_fract_z
 _atom_site_occupancy
 _atom_site_hle17_bader_spin_density
 _atom_site_hle17_ddec_charge
 _atom_site_hle17_ddec_spin_density
 _atom_site_hle17_ddec_sum_bond_order
 _atom_site_hle17_magmom
 _atom_site_hse06_10hf_bader_spin_density
 _atom_site_hse06_10hf_ddec_charge
 _atom_site_hse06_10hf_ddec_spin_density
 _atom_site_hse06_10hf_ddec_sum_bond_order
 _atom_site_hse06_10hf_magmom
 _atom_site_hse06_bader_spin_density
 _atom_site_hse06_ddec_charge
 _atom_site_hse06_ddec_spin_density
 _atom_site_hse06_ddec_sum_bond_order
 _atom_site_hse06_magmom
 _atom_site_pbe_bader_spin_density
 _atom_site_pbe_cm5_charge
 _atom_site_pbe_ddec_charge
 _atom_site_pbe_ddec_spin_density
 _atom_site_pbe_ddec_sum_bond_order
 _atom_site_pbe_magmom
La  La0  1  0.98963856  0.65370853  0.78146751  1  0  2.106937  0  1.739092  0  0  1.997802  0  2.23077  0  0  2.088286  0  2.142332  0  0  1.497888  1.929823  0  2.291842  0
La  La1  1  0.01035702  0.34629665  0.21853058  1  0  2.106991  0  1.739045  0  0  1.997864  0  2.230721  0  0  2.088359  0  2.142269  0  0  1.497913  1.929876  0  2.291802  0
P  P2  1  0.23161332  0.72908425  0.61176387  1  0  1.397322  0  4.801764  0  0  1.241939  0  5.317368  0  0  1.289152  0  5.285184  0  0  0.325713  1.208886  0  5.338855  0
P  P3  1  0.76838816  0.27091235  0.38823756  1  0  1.397386  0  4.802012  0  0  1.241988  0  5.317623  0  0  1.289206  0  5.285443  0  0  0.325798  1.208931  0  5.339108  0
P  P4  1  0.12272466  0.41478971  0.86169876  1  0  1.459793  0  4.721738  0  0  1.310536  0  5.224002  0  0  1.360975  0  5.187072  0  0  0.372629  1.275096  0  5.249244  0
P  P5  1  0.87727826  0.58521753  0.13829967  1  0  1.459758  0  4.721884  0  0  1.310626  0  5.224079  0  0  1.361063  0  5.187134  0  0  0.372643  1.275075  0  5.249389  0
P  P6  1  0.84397005  0.86959639  0.92232426  1  0  1.383839  0  4.763113  0  0  1.227705  0  5.277809  0  0  1.274663  0  5.245868  0  0  0.330002  1.194921  0  5.298979  0
P  P7  1  0.15602255  0.13040953  0.07767498  1  0  1.383852  0  4.762999  0  0  1.227825  0  5.277794  0  0  1.27479  0  5.245849  0  0  0.330079  1.195049  0  5.298922  0
H  H8  1  0.33857759  0.84927042  0.50369305  1  0  0.441288  0  0.78189  0  0  0.426841  0  0.828543  0  0  0.434822  0  0.819986  0  0  0.356876  0.421117  0  0.834797  0
H  H9  1  0.66143666  0.15072404  0.49631217  1  0  0.441291  0  0.781901  0  0  0.426848  0  0.828567  0  0  0.434827  0  0.820011  0  0  0.356896  0.421125  0  0.834819  0
H  H10  1  0.55935096  0.83624685  0.70532207  1  0  0.390547  0  0.822052  0  0  0.379535  0  0.873683  0  0  0.386994  0  0.865677  0  0  0.328451  0.374194  0  0.879451  0
H  H11  1  0.44068345  0.16370830  0.29465899  1  0  0.390586  0  0.822217  0  0  0.379565  0  0.873859  0  0  0.387027  0  0.865848  0  0  0.328424  0.37422  0  0.879635  0
H  H12  1  0.04408996  0.26794499  0.96232970  1  0  0.43044  0  0.869626  0  0  0.398137  0  0.939454  0  0  0.4104  0  0.921661  0  0  0.319134  0.389529  0  0.95188  0
H  H13  1  0.95591409  0.73206402  0.03767185  1  0  0.430375  0  0.869618  0  0  0.398052  0  0.939541  0  0  0.410314  0  0.921748  0  0  0.319113  0.389434  0  0.951984  0
H  H14  1  0.27108419  0.71465513  0.94431941  1  0  0.389475  0  0.829155  0  0  0.376796  0  0.881308  0  0  0.38467  0  0.873793  0  0  0.334613  0.371134  0  0.88669  0
H  H15  1  0.72891214  0.28535538  0.05567628  1  0  0.389519  0  0.829137  0  0  0.376871  0  0.881246  0  0  0.384743  0  0.873728  0  0  0.334632  0.37121  0  0.886625  0
H  H16  1  0.92743454  0.05854149  0.94008482  1  0  0.441653  0  0.858669  0  0  0.409452  0  0.922298  0  0  0.421095  0  0.905607  0  0  0.309151  0.401192  0  0.93413  0
H  H17  1  0.07255724  0.94146530  0.05991191  1  0  0.441633  0  0.858683  0  0  0.409413  0  0.922346  0  0  0.421057  0  0.905654  0  0  0.309148  0.401153  0  0.934178  0
H  H18  1  0.71365427  0.73878253  0.13405308  1  0  0.375534  0  0.920922  0  0  0.352035  0  0.994061  0  0  0.362316  0  0.980477  0  0  0.290299  0.344825  0  1.002159  0
H  H19  1  0.28634186  0.26121746  0.86593924  1  0  0.375486  0  0.921121  0  0  0.351948  0  0.993857  0  0  0.362184  0  0.980494  0  0  0.29032  0.344829  0  1.002274  0
H  H20  1  0.84081007  0.48525983  0.54985019  1  0  0.464168  0  0.824863  0  0  0.434003  0  0.884861  0  0  0.445987  0  0.867706  0  0  0.307597  0.425444  0  0.897062  0
H  H21  1  0.15919544  0.51473609  0.45014918  1  0  0.464179  0  0.824841  0  0  0.43402  0  0.884832  0  0  0.446003  0  0.867679  0  0  0.307616  0.425462  0  0.897031  0
H  H22  1  0.74132167  0.57792865  0.60522030  1  0  0.422736  0  0.854702  0  0  0.400845  0  0.913916  0  0  0.408777  0  0.902925  0  0  0.314299  0.395245  0  0.921687  0
H  H23  1  0.25867508  0.42205910  0.39476823  1  0  0.422711  0  0.854814  0  0  0.400832  0  0.913937  0  0  0.408761  0  0.902951  0  0  0.314315  0.395232  0  0.921707  0
H  H24  1  0.39476937  0.69837779  0.74805968  1  0  0.080247  0  0.973722  0  0  0.084699  0  1.04569  0  0  0.086522  0  1.044551  0  0  0.117356  0.083224  0  1.04681  0
H  H25  1  0.60522204  0.30160428  0.25194582  1  0  0.080303  0  0.973649  0  0  0.084769  0  1.045536  0  0  0.086594  0  1.044399  0  0  0.117366  0.083287  0  1.046666  0
H  H26  1  0.30173902  0.47635084  0.64466840  1  0  0.10893  0  0.959132  0  0  0.116722  0  1.022844  0  0  0.119978  0  1.020683  0  0  0.11088  0.114204  0  1.024855  0
H  H27  1  0.69825311  0.52363655  0.35533560  1  0  0.109019  0  0.958978  0  0  0.116813  0  1.022671  0  0  0.120069  0  1.02051  0  0  0.110942  0.114299  0  1.02467  0
H  H28  1  0.61481612  0.69925120  0.47812854  1  0  0.118856  0  0.932781  0  0  0.127719  0  0.988335  0  0  0.131933  0  0.985385  0  0  0.11067  0.124606  0  0.990634  0
H  H29  1  0.38517792  0.30073538  0.52187614  1  0  0.118896  0  0.93276  0  0  0.127722  0  0.988349  0  0  0.131945  0  0.985389  0  0  0.110651  0.124604  0  0.990653  0
H  H30  1  0.17210671  0.56569014  0.04597394  1  0  0.094488  0  0.952486  0  0  0.099873  0  1.015233  0  0  0.102577  0  1.013464  0  0  0.122823  0.097971  0  1.016757  0
H  H31  1  0.82790432  0.43431743  0.95402532  1  0  0.094436  0  0.952474  0  0  0.099806  0  1.015264  0  0  0.102501  0  1.013487  0  0  0.122817  0.097906  0  1.016785  0
H  H32  1  0.33229562  0.53239373  0.17565026  1  0  0.089813  0  0.952303  0  0  0.09887  0  1.016392  0  0  0.101746  0  1.015274  0  0  0.106752  0.097026  0  1.017109  0
H  H33  1  0.66770870  0.46760662  0.82434107  1  0  0.089928  0  0.952295  0  0  0.098964  0  1.016387  0  0  0.10184  0  1.015268  0  0  0.106791  0.097115  0  1.017117  0
H  H34  1  0.44033839  0.51120963  0.78768321  1  0  0.079964  0  1.011231  0  0  0.090886  0  1.075513  0  0  0.092448  0  1.076206  0  0  0.095935  0.089702  0  1.075365  0
H  H35  1  0.55966929  0.48879348  0.21230871  1  0  0.080002  0  1.011175  0  0  0.090899  0  1.075474  0  0  0.092463  0  1.076162  0  0  0.095942  0.08971  0  1.075333  0
H  H36  1  0.77454627  0.93133578  0.13499608  1  0  0.097249  0  0.900174  0  0  0.108569  0  0.949115  0  0  0.1106  0  0.947849  0  0  0.122792  0.107099  0  0.950291  0
H  H37  1  0.22544752  0.06866486  0.86500827  1  0  0.097143  0  0.900213  0  0  0.108531  0  0.949221  0  0  0.110561  0  0.947959  0  0  0.122795  0.107071  0  0.950369  0
H  H38  1  0.48649557  0.78277465  0.92968300  1  0  0.091255  0  0.973505  0  0  0.098763  0  1.043935  0  0  0.101887  0  1.041961  0  0  0.098187  0.09638  0  1.0459  0
H  H39  1  0.51349634  0.21722934  0.07032944  1  0  0.091212  0  0.973451  0  0  0.098648  0  1.043981  0  0  0.101759  0  1.042045  0  0  0.098139  0.096268  0  1.045936  0
H  H40  1  0.69997110  0.11133587  0.12350748  1  0  0.102991  0  0.996209  0  0  0.111125  0  1.064119  0  0  0.114574  0  1.062436  0  0  0.100364  0.108557  0  1.065288  0
H  H41  1  0.30002104  0.88866904  0.87650153  1  0  0.102926  0  0.996333  0  0  0.111088  0  1.064196  0  0  0.114535  0  1.062521  0  0  0.100363  0.108522  0  1.065366  0
C  C42  1  0.40499488  0.70945686  0.65091002  1  0  -0.087572  0  3.710556  0  0  -0.098976  0  3.969521  0  0  -0.099711  0  3.977867  0  0  -0.002581  -0.098736  0  3.964316  0
C  C43  1  0.59500143  0.29053243  0.34909707  1  0  -0.087602  0  3.710854  0  0  -0.098936  0  3.969708  0  0  -0.099669  0  3.978046  0  0  -0.00249  -0.098683  0  3.964492  0
C  C44  1  0.45378959  0.60146441  0.57181764  1  0  0.051197  0  3.77745  0  0  0.063224  0  4.016721  0  0  0.062803  0  4.041947  0  0  -0.018042  0.063552  0  4.000129  0
C  C45  1  0.54620216  0.39852031  0.42818756  1  0  0.05123  0  3.777551  0  0  0.063303  0  4.01672  0  0  0.06289  0  4.041933  0  0  -0.01793  0.063629  0  4.000123  0
C  C46  1  0.38955206  0.48839172  0.58219610  1  0  -0.120132  0  3.769321  0  0  -0.136614  0  4.017627  0  0  -0.138634  0  4.037427  0  0  -0.088185  -0.135738  0  4.005262  0
C  C47  1  0.61043681  0.51159293  0.41780459  1  0  -0.1202  0  3.769193  0  0  -0.136712  0  4.017522  0  0  -0.138738  0  4.037321  0  0  -0.088235  -0.135834  0  4.005164  0
C  C48  1  0.56462039  0.61215106  0.48852149  1  0  -0.113486  0  3.740588  0  0  -0.132547  0  3.986451  0  0  -0.134408  0  4.005147  0  0  -0.089166  -0.131373  0  3.974359  0
C  C49  1  0.43537449  0.38783466  0.51148480  1  0  -0.113467  0  3.740651  0  0  -0.132518  0  3.986435  0  0  -0.13439  0  4.005131  0  0  -0.089161  -0.131336  0  3.974344  0
C  C50  1  0.22791697  0.54611130  0.95666474  1  0  -0.092171  0  3.629985  0  0  -0.104703  0  3.883212  0  0  -0.104544  0  3.890413  0  0  -0.002158  -0.105283  0  3.87889  0
C  C51  1  0.77208954  0.45389964  0.04333085  1  0  -0.091918  0  3.629765  0  0  -0.104489  0  3.883212  0  0  -0.104264  0  3.890308  0  0  -0.002102  -0.105069  0  3.878895  0
C  C52  1  0.36989656  0.52558020  0.97865701  1  0  0.050081  0  3.783054  0  0  0.064993  0  4.022248  0  0  0.064211  0  4.04678  0  0  -0.014936  0.065842  0  4.005413  0
C  C53  1  0.63011521  0.47443101  0.02133400  1  0  0.050054  0  3.782983  0  0  0.064821  0  4.022377  0  0  0.064028  0  4.046885  0  0  -0.014901  0.065656  0  4.005576  0
C  C54  1  0.40505790  0.51733741  0.09782381  1  0  -0.087869  0  3.718481  0  0  -0.109436  0  3.970956  0  0  -0.111754  0  3.991735  0  0  -0.07979  -0.107254  0  3.956055  0
C  C55  1  0.59495462  0.48267206  0.90216859  1  0  -0.087945  0  3.718616  0  0  -0.109433  0  3.971149  0  0  -0.111749  0  3.991927  0  0  -0.079831  -0.107257  0  3.956266  0
C  C56  1  0.46649783  0.50815105  0.88148174  1  0  -0.073453  0  3.711576  0  0  -0.096202  0  3.960534  0  0  -0.09724  0  3.980996  0  0  -0.086152  -0.095525  0  3.946756  0
C  C57  1  0.53351223  0.49185481  0.11850986  1  0  -0.073476  0  3.711581  0  0  -0.096109  0  3.960529  0  0  -0.097139  0  3.980977  0  0  -0.086162  -0.095449  0  3.946793  0
C  C58  1  0.71685903  0.87801093  0.05346331  1  0  -0.075802  0  3.737107  0  0  -0.081681  0  3.985382  0  0  -0.08203  0  3.993656  0  0  0.000418  -0.082284  0  3.980925  0
C  C59  1  0.28313552  0.12199504  0.94653863  1  0  -0.075347  0  3.736682  0  0  -0.081752  0  3.985704  0  0  -0.082108  0  3.993972  0  0  0.00043  -0.082277  0  3.981171  0
C  C60  1  0.60391524  0.94132229  0.02774568  1  0  0.078664  0  3.780149  0  0  0.094736  0  4.011266  0  0  0.094459  0  4.036366  0  0  -0.014113  0.095422  0  3.993872  0
C  C61  1  0.39607840  0.05868536  0.97225940  1  0  0.078379  0  3.780459  0  0  0.09467  0  4.011462  0  0  0.094409  0  4.036537  0  0  -0.014151  0.095354  0  3.99405  0
C  C62  1  0.49054539  0.87814664  0.95980975  1  0  -0.123188  0  3.758367  0  0  -0.143222  0  4.010935  0  0  -0.145041  0  4.03091  0  0  -0.100429  -0.142864  0  3.998058  0
C  C63  1  0.50945017  0.12186022  0.04019511  1  0  -0.122993  0  3.75839  0  0  -0.143002  0  4.010862  0  0  -0.144828  0  4.030824  0  0  -0.10035  -0.142638  0  3.997972  0
C  C64  1  0.61282682  0.06355021  0.06763487  1  0  -0.129659  0  3.763184  0  0  -0.154146  0  4.019544  0  0  -0.157133  0  4.040673  0  0  -0.100229  -0.151198  0  4.00464  0
C  C65  1  0.38716549  0.93645560  0.93237254  1  0  -0.129435  0  3.763266  0  0  -0.153953  0  4.019508  0  0  -0.156947  0  4.040643  0  0  -0.100156  -0.151007  0  4.004612  0
O  O66  1  0.16697985  0.80416514  0.72365868  1  0  -0.862547  0  1.910496  0  0  -0.804847  0  2.173388  0  0  -0.8364  0  2.157225  0  0  -0.440134  -0.781864  0  2.183324  0
O  O67  1  0.83302359  0.19583067  0.27634161  1  0  -0.862615  0  1.910516  0  0  -0.8049  0  2.173412  0  0  -0.836444  0  2.157232  0  0  -0.440167  -0.781916  0  2.183347  0
O  O68  1  0.25693265  0.78917390  0.49362163  1  0  -0.663682  0  1.929306  0  0  -0.599294  0  2.122507  0  0  -0.61687  0  2.102446  0  0  -0.362837  -0.587032  0  2.136397  0
O  O69  1  0.74308080  0.21082145  0.50638018  1  0  -0.663684  0  1.929251  0  0  -0.599291  0  2.122466  0  0  -0.616864  0  2.102402  0  0  -0.362873  -0.587026  0  2.136356  0
O  O70  1  0.13703578  0.61131968  0.57621441  1  0  -0.856615  0  1.928576  0  0  -0.78162  0  2.169403  0  0  -0.813071  0  2.154177  0  0  -0.38576  -0.758698  0  2.178665  0
O  O71  1  0.86296495  0.38867781  0.42378269  1  0  -0.856623  0  1.928745  0  0  -0.781679  0  2.169638  0  0  -0.813144  0  2.154421  0  0  -0.385819  -0.758757  0  2.178899  0
O  O72  1  0.49024943  0.81780961  0.64097390  1  0  -0.528534  0  2.044817  0  0  -0.490996  0  2.242717  0  0  -0.503787  0  2.232502  0  0  -0.390241  -0.481888  0  2.249904  0
O  O73  1  0.50975575  0.18217827  0.35903542  1  0  -0.52866  0  2.045043  0  0  -0.491149  0  2.242926  0  0  -0.503945  0  2.232711  0  0  -0.390338  -0.482045  0  2.250109  0
O  O74  1  0.20376940  0.33031186  0.77933381  1  0  -0.786553  0  1.846115  0  0  -0.721217  0  2.064752  0  0  -0.745649  0  2.046816  0  0  -0.361185  -0.704  0  2.076755  0
O  O75  1  0.79623371  0.66969629  0.22066211  1  0  -0.786585  0  1.846069  0  0  -0.721314  0  2.064738  0  0  -0.745776  0  2.046782  0  0  -0.361183  -0.703995  0  2.076688  0
O  O76  1  0.01478004  0.46347889  0.80088015  1  0  -0.869679  0  1.92141  0  0  -0.806022  0  2.190045  0  0  -0.839701  0  2.171095  0  0  -0.472215  -0.781151  0  2.202278  0
O  O77  1  0.98521794  0.53653072  0.19912348  1  0  -0.86976  0  1.921462  0  0  -0.8061  0  2.190062  0  0  -0.839777  0  2.171109  0  0  -0.472324  -0.781231  0  2.202323  0
O  O78  1  0.04831145  0.35643643  0.97366019  1  0  -0.818587  0  2.115126  0  0  -0.746409  0  2.363488  0  0  -0.773002  0  2.337897  0  0  -0.415646  -0.727114  0  2.380516  0
O  O79  1  0.95169878  0.64357455  0.02634534  1  0  -0.818476  0  2.115117  0  0  -0.746303  0  2.363608  0  0  -0.772889  0  2.338006  0  0  -0.415579  -0.727002  0  2.380651  0
O  O80  1  0.22491647  0.64245218  0.89194912  1  0  -0.584444  0  2.144315  0  0  -0.535802  0  2.377436  0  0  -0.556427  0  2.369105  0  0  -0.402269  -0.52046  0  2.382585  0
O  O81  1  0.77507994  0.35755919  0.10804768  1  0  -0.584662  0  2.144193  0  0  -0.535968  0  2.377193  0  0  -0.556642  0  2.368913  0  0  -0.402346  -0.520626  0  2.382336  0
O  O82  1  0.79792973  0.77091418  0.81136358  1  0  -0.858138  0  1.834315  0  0  -0.798077  0  2.090957  0  0  -0.829699  0  2.075231  0  0  -0.440419  -0.775014  0  2.100718  0
O  O83  1  0.20206094  0.22909253  0.18863588  1  0  -0.858166  0  1.83442  0  0  -0.798097  0  2.091039  0  0  -0.82972  0  2.075312  0  0  -0.440416  -0.775034  0  2.100792  0
O  O84  1  0.97941270  0.84350571  0.97178364  1  0  -0.892828  0  1.993346  0  0  -0.806036  0  2.23142  0  0  -0.836654  0  2.213777  0  0  -0.39334  -0.783934  0  2.24254  0
O  O85  1  0.02058220  0.15650123  0.02821124  1  0  -0.892878  0  1.993397  0  0  -0.806143  0  2.231469  0  0  -0.836762  0  2.213828  0  0  -0.393401  -0.784036  0  2.242571  0
O  O86  1  0.86960688  0.99165388  0.88084589  1  0  -0.710039  0  1.978054  0  0  -0.64296  0  2.187661  0  0  -0.662346  0  2.162846  0  0  -0.381395  -0.62959  0  2.204791  0
O  O87  1  0.13038372  0.00835196  0.11915246  1  0  -0.710035  0  1.97795  0  0  -0.642947  0  2.187544  0  0  -0.662339  0  2.162735  0  0  -0.38142  -0.629582  0  2.20467  0
O  O88  1  0.66392547  0.76279361  0.06893043  1  0  -0.533427  0  2.121061  0  0  -0.49577  0  2.340983  0  0  -0.511923  0  2.332507  0  0  -0.396097  -0.483984  0  2.345629  0
O  O89  1  0.33606898  0.23720979  0.93106454  1  0  -0.533518  0  2.121182  0  0  -0.495541  0  2.341215  0  0  -0.511644  0  2.33292  0  0  -0.396111  -0.483989  0  2.345848  0
O  O90  1  0.82070586  0.54608977  0.62595429  1  0  -0.879172  0  1.815697  0  0  -0.829391  0  2.000222  0  0  -0.856004  0  1.969046  0  0  -0.635588  -0.810123  0  2.021878  0
O  O91  1  0.17929572  0.45390686  0.37404441  1  0  -0.87914  0  1.815755  0  0  -0.829384  0  2.000223  0  0  -0.855999  0  1.969052  0  0  -0.635614  -0.810115  0  2.021878  0
