# generated using pymatgen
data_KH15(C9O4)2
_symmetry_space_group_name_H-M   'P 1'
_cell_length_a   9.79893775
_cell_length_b   9.84662788
_cell_length_c   10.28902376
_cell_angle_alpha   110.76999262
_cell_angle_beta   110.99020650
_cell_angle_gamma   96.01889770
_symmetry_Int_Tables_number   1
_chemical_formula_structural   KH15(C9O4)2
_chemical_formula_sum   'K2 H30 C36 O16'
_cell_volume   835.50506538
_cell_formula_units_Z   2
loop_
 _symmetry_equiv_pos_site_id
 _symmetry_equiv_pos_as_xyz
  1  'x, y, z'
loop_
 _atom_site_type_symbol
 _atom_site_label
 _atom_site_symmetry_multiplicity
 _atom_site_fract_x
 _atom_site_fract_y
 _atom_site_fract_z
 _atom_site_occupancy
 _atom_site_hle17_bader_spin_density
 _atom_site_hle17_ddec_charge
 _atom_site_hle17_ddec_spin_density
 _atom_site_hle17_ddec_sum_bond_order
 _atom_site_hle17_magmom
 _atom_site_hse06_10hf_bader_spin_density
 _atom_site_hse06_10hf_ddec_charge
 _atom_site_hse06_10hf_ddec_spin_density
 _atom_site_hse06_10hf_ddec_sum_bond_order
 _atom_site_hse06_10hf_magmom
 _atom_site_hse06_bader_spin_density
 _atom_site_hse06_ddec_charge
 _atom_site_hse06_ddec_spin_density
 _atom_site_hse06_ddec_sum_bond_order
 _atom_site_hse06_magmom
 _atom_site_pbe_bader_spin_density
 _atom_site_pbe_cm5_charge
 _atom_site_pbe_ddec_charge
 _atom_site_pbe_ddec_spin_density
 _atom_site_pbe_ddec_sum_bond_order
 _atom_site_pbe_magmom
K  K0  1  0.19852836  0.83424472  0.17616136  1  0  0.918836  0  0.469319  0  0  0.864093  0  0.662753  0  0  0.877223  0  0.642736  0  0  0.769172  0.854754  0  0.676155  0
K  K1  1  0.80147765  0.16575694  0.82384985  1  0  0.918848  0  0.46933  0  0  0.864103  0  0.662779  0  0  0.877234  0  0.642755  0  0  0.769156  0.854749  0  0.676178  0
H  H2  1  0.42825468  0.73150610  0.43695918  1  0  0.413587  0  0.870517  0  0  0.379184  0  0.952621  0  0  0.393176  0  0.937145  0  0  0.301111  0.369393  0  0.963356  0
H  H3  1  0.57174368  0.26849703  0.56303850  1  0  0.413515  0  0.87061  0  0  0.379106  0  0.952723  0  0  0.393097  0  0.937251  0  0  0.301071  0.369315  0  0.963448  0
H  H4  1  0.38427074  0.57513586  0.18531466  1  0  0.393888  0  0.899278  0  0  0.364279  0  0.977107  0  0  0.376267  0  0.963589  0  0  0.298191  0.355776  0  0.986552  0
H  H5  1  0.61572161  0.42486031  0.81468437  1  0  0.393865  0  0.899247  0  0  0.364256  0  0.977074  0  0  0.376242  0  0.96356  0  0  0.298173  0.355752  0  0.986515  0
H  H6  1  0.93755071  0.54890939  0.80156733  1  0  0.397851  0  0.800189  0  0  0.387639  0  0.847738  0  0  0.395039  0  0.839962  0  0  0.346389  0.382213  0  0.853591  0
H  H7  1  0.06244860  0.45109394  0.19842489  1  0  0.397835  0  0.80019  0  0  0.38762  0  0.847744  0  0  0.39502  0  0.83997  0  0  0.346401  0.382197  0  0.853599  0
H  H8  1  0.19847488  0.97572384  0.50839599  1  0  0.110089  0  0.974676  0  0  0.117815  0  1.042056  0  0  0.122169  0  1.040372  0  0  0.103515  0.115073  0  1.042893  0
H  H9  1  0.80152833  0.02428022  0.49161036  1  0  0.110013  0  0.974768  0  0  0.117734  0  1.042156  0  0  0.122086  0  1.040472  0  0  0.103476  0.114992  0  1.042992  0
H  H10  1  0.46191236  0.16154198  0.82723846  1  0  0.080545  0  0.957234  0  0  0.089369  0  1.027313  0  0  0.092765  0  1.023629  0  0  0.105349  0.087313  0  1.029282  0
H  H11  1  0.53809399  0.83846999  0.17277085  1  0  0.080552  0  0.957294  0  0  0.089361  0  1.027392  0  0  0.092755  0  1.023708  0  0  0.10535  0.08731  0  1.029349  0
H  H12  1  0.43548145  0.37537719  0.00078732  1  0  0.106794  0  0.971773  0  0  0.117821  0  1.036224  0  0  0.1204  0  1.035266  0  0  0.102775  0.116106  0  1.036773  0
H  H13  1  0.56451255  0.62462437  0.99922105  1  0  0.106803  0  0.97173  0  0  0.117833  0  1.036161  0  0  0.120416  0  1.035201  0  0  0.102756  0.116117  0  1.036711  0
H  H14  1  0.92622825  0.32632205  0.62042109  1  0  0.111948  0  0.969716  0  0  0.120594  0  1.035756  0  0  0.123816  0  1.033772  0  0  0.10657  0.118198  0  1.037347  0
H  H15  1  0.07377530  0.67368149  0.37956670  1  0  0.111939  0  0.969793  0  0  0.120581  0  1.035831  0  0  0.123808  0  1.033843  0  0  0.106538  0.118183  0  1.037423  0
H  H16  1  0.06468529  0.13688960  0.54991980  1  0  0.093369  0  0.965339  0  0  0.105452  0  1.028478  0  0  0.108047  0  1.027132  0  0  0.102719  0.103922  0  1.028681  0
H  H17  1  0.93532693  0.86312182  0.45007462  1  0  0.093398  0  0.9652  0  0  0.105413  0  1.028426  0  0  0.107998  0  1.027094  0  0  0.102679  0.103895  0  1.028618  0
H  H18  1  0.19947632  0.19716855  0.36405876  1  0  0.401144  0  0.898318  0  0  0.371931  0  0.975169  0  0  0.383973  0  0.957885  0  0  0.297664  0.363705  0  0.985794  0
H  H19  1  0.80052306  0.80283005  0.63593854  1  0  0.401134  0  0.898385  0  0  0.371916  0  0.9752  0  0  0.383959  0  0.957916  0  0  0.297657  0.363685  0  0.98588  0
H  H20  1  0.83141754  0.81148425  0.92227777  1  0  0.398548  0  0.800791  0  0  0.388371  0  0.847275  0  0  0.395707  0  0.839833  0  0  0.347151  0.383501  0  0.85203  0
H  H21  1  0.16858495  0.18851308  0.07772489  1  0  0.398532  0  0.800764  0  0  0.388338  0  0.84728  0  0  0.395675  0  0.83984  0  0  0.347155  0.383472  0  0.852038  0
H  H22  1  0.51988293  0.35013194  0.20634920  1  0  0.099638  0  0.973984  0  0  0.110188  0  1.038477  0  0  0.114159  0  1.036091  0  0  0.09448  0.107176  0  1.040618  0
H  H23  1  0.48011778  0.64985864  0.79365040  1  0  0.099591  0  0.973871  0  0  0.110152  0  1.038374  0  0  0.114127  0  1.03598  0  0  0.094469  0.107145  0  1.04051  0
H  H24  1  0.84818570  0.45795950  0.45140389  1  0  0.076966  0  0.969353  0  0  0.088009  0  1.036396  0  0  0.090772  0  1.033707  0  0  0.096198  0.085789  0  1.039262  0
H  H25  1  0.15180931  0.54203908  0.54859202  1  0  0.076932  0  0.96931  0  0  0.087982  0  1.036351  0  0  0.090743  0  1.033665  0  0  0.096193  0.085763  0  1.039222  0
H  H26  1  0.02208607  0.32053382  0.42015227  1  0  0.106918  0  0.993044  0  0  0.115475  0  1.061112  0  0  0.118409  0  1.059485  0  0  0.100154  0.113699  0  1.061756  0
H  H27  1  0.97791346  0.67946459  0.57985083  1  0  0.106926  0  0.993053  0  0  0.115502  0  1.061089  0  0  0.118435  0  1.059463  0  0  0.100155  0.113729  0  1.061728  0
H  H28  1  0.64053382  0.92457715  0.92173622  1  0  0.115232  0  0.972068  0  0  0.124892  0  1.0355  0  0  0.128514  0  1.032721  0  0  0.107074  0.12261  0  1.03717  0
H  H29  1  0.35946839  0.07542365  0.07826473  1  0  0.115248  0  0.972002  0  0  0.124901  0  1.03545  0  0  0.128523  0  1.032673  0  0  0.10709  0.122621  0  1.03712  0
H  H30  1  0.56629316  0.14389370  0.05932563  1  0  0.088699  0  0.97901  0  0  0.101629  0  1.041845  0  0  0.10372  0  1.041068  0  0  0.100784  0.100756  0  1.041298  0
H  H31  1  0.43370762  0.85610604  0.94067252  1  0  0.088704  0  0.979021  0  0  0.10163  0  1.041865  0  0  0.103726  0  1.041075  0  0  0.100789  0.100751  0  1.041336  0
C  C32  1  0.41335410  0.91691992  0.58704326  1  0  0.698464  0  3.851213  0  0  0.658747  0  4.13792  0  0  0.692612  0  4.129443  0  0  0.217901  0.635942  0  4.143441  0
C  C33  1  0.58663067  0.08307762  0.41294515  1  0  0.698354  0  3.851975  0  0  0.658713  0  4.138578  0  0  0.692569  0  4.130105  0  0  0.217833  0.635905  0  4.144101  0
C  C34  1  0.30870523  0.01069666  0.60533621  1  0  -0.268347  0  3.680039  0  0  -0.286386  0  3.939713  0  0  -0.299819  0  3.956855  0  0  -0.108929  -0.27852  0  3.930022  0
C  C35  1  0.69130445  0.98931526  0.39467608  1  0  -0.268273  0  3.679678  0  0  -0.286315  0  3.939304  0  0  -0.299738  0  3.95644  0  0  -0.108936  -0.278454  0  3.929613  0
C  C36  1  0.34891033  0.13560096  0.73628542  1  0  0.002836  0  3.71262  0  0  -0.024798  0  3.966827  0  0  -0.017261  0  3.982588  0  0  -0.061291  -0.030366  0  3.958115  0
C  C37  1  0.65109378  0.86439873  0.26371571  1  0  0.00276  0  3.712549  0  0  -0.02487  0  3.966791  0  0  -0.017334  0  3.982548  0  0  -0.061295  -0.030432  0  3.958076  0
C  C38  1  0.26020504  0.24073568  0.77100040  1  0  0.080406  0  3.838783  0  0  0.097738  0  4.077095  0  0  0.095384  0  4.1023  0  0  -0.020654  0.099111  0  4.061946  0
C  C39  1  0.73980038  0.75927298  0.22900544  1  0  0.080465  0  3.838912  0  0  0.097759  0  4.077278  0  0  0.095407  0  4.102478  0  0  -0.02064  0.099127  0  4.062138  0
C  C40  1  0.32236780  0.36236104  0.91777586  1  0  -0.233567  0  3.722308  0  0  -0.263923  0  3.976855  0  0  -0.26761  0  3.997056  0  0  -0.105031  -0.261059  0  3.963506  0
C  C41  1  0.67762685  0.63763960  0.08222654  1  0  -0.233586  0  3.722179  0  0  -0.263924  0  3.976787  0  0  -0.267612  0  3.99699  0  0  -0.105008  -0.261054  0  3.963435  0
C  C42  1  0.24477051  0.46889009  0.95949806  1  0  0.233723  0  3.848467  0  0  0.226808  0  4.107996  0  0  0.234383  0  4.124365  0  0  0.070349  0.22139  0  4.097129  0
C  C43  1  0.75522054  0.53110944  0.04050182  1  0  0.23375  0  3.848717  0  0  0.226789  0  4.108287  0  0  0.23436  0  4.124664  0  0  0.070341  0.221364  0  4.097422  0
C  C44  1  0.10182086  0.45676519  0.84851474  1  0  0.223967  0  3.8067  0  0  0.210847  0  4.075008  0  0  0.218975  0  4.091509  0  0  0.074123  0.204899  0  4.065503  0
C  C45  1  0.89817256  0.54323563  0.15148150  1  0  0.22383  0  3.80673  0  0  0.210752  0  4.074984  0  0  0.218882  0  4.091487  0  0  0.074066  0.204816  0  4.065466  0
C  C46  1  0.03837088  0.33590932  0.70329773  1  0  -0.228212  0  3.830721  0  0  -0.248244  0  4.093758  0  0  -0.253219  0  4.114518  0  0  -0.114791  -0.244584  0  4.080142  0
C  C47  1  0.96163008  0.66409170  0.29669609  1  0  -0.228145  0  3.830787  0  0  -0.248174  0  4.093752  0  0  -0.253152  0  4.114509  0  0  -0.114731  -0.244513  0  4.08014  0
C  C48  1  0.11574356  0.22849854  0.66469990  1  0  -0.08671  0  3.728293  0  0  -0.112993  0  3.982064  0  0  -0.113479  0  4.00314  0  0  -0.092297  -0.112769  0  3.968037  0
C  C49  1  0.88426045  0.77150591  0.33529518  1  0  -0.086738  0  3.728247  0  0  -0.112965  0  3.982069  0  0  -0.113445  0  4.003155  0  0  -0.092292  -0.112759  0  3.96805  0
C  C50  1  0.60997945  0.56418815  0.41271491  1  0  0.717487  0  3.879472  0  0  0.668746  0  4.175888  0  0  0.703488  0  4.167192  0  0  0.209319  0.644776  0  4.182633  0
C  C51  1  0.39001157  0.43580833  0.58727409  1  0  0.717505  0  3.879647  0  0  0.668788  0  4.176029  0  0  0.703534  0  4.167327  0  0  0.20932  0.644811  0  4.182783  0
C  C52  1  0.62174065  0.41992673  0.31092078  1  0  -0.249694  0  3.670184  0  0  -0.270167  0  3.933021  0  0  -0.28085  0  3.948878  0  0  -0.11303  -0.264347  0  3.924539  0
C  C53  1  0.37825645  0.58006737  0.68907412  1  0  -0.249594  0  3.670063  0  0  -0.270099  0  3.932922  0  0  -0.280783  0  3.948781  0  0  -0.112987  -0.264282  0  3.924444  0
C  C54  1  0.75340880  0.38010916  0.34303038  1  0  -0.028928  0  3.744844  0  0  -0.051454  0  3.996221  0  0  -0.046827  0  4.014622  0  0  -0.077738  -0.055305  0  3.986439  0
C  C55  1  0.24658763  0.61988590  0.65696953  1  0  -0.028944  0  3.744813  0  0  -0.051486  0  3.996167  0  0  -0.046862  0  4.014572  0  0  -0.077784  -0.055339  0  3.986396  0
C  C56  1  0.78734963  0.24804748  0.25347511  1  0  0.078817  0  3.854226  0  0  0.094943  0  4.091784  0  0  0.093171  0  4.117376  0  0  -0.02499  0.095868  0  4.075097  0
C  C57  1  0.21265302  0.75195117  0.74652226  1  0  0.078758  0  3.854255  0  0  0.094961  0  4.091696  0  0  0.093188  0  4.117289  0  0  -0.025004  0.095893  0  4.075006  0
C  C58  1  0.93593776  0.23284967  0.31243091  1  0  -0.238352  0  3.733344  0  0  -0.265449  0  3.985625  0  0  -0.26931  0  4.005739  0  0  -0.106439  -0.261171  0  3.970311  0
C  C59  1  0.06406118  0.76714649  0.68757117  1  0  -0.238393  0  3.733376  0  0  -0.265523  0  3.985629  0  0  -0.269384  0  4.005742  0  0  -0.106449  -0.261246  0  3.97031  0
C  C60  1  0.97925661  0.10932026  0.23604370  1  0  0.229053  0  3.842383  0  0  0.220214  0  4.10351  0  0  0.22805  0  4.119571  0  0  0.067304  0.21486  0  4.09237  0
C  C61  1  0.02074370  0.89067707  0.76395827  1  0  0.229167  0  3.842297  0  0  0.220309  0  4.103416  0  0  0.228143  0  4.119478  0  0  0.067364  0.214954  0  4.092273  0
C  C62  1  0.86839642  0.99446064  0.09654492  1  0  0.21956  0  3.81844  0  0  0.208542  0  4.085205  0  0  0.216545  0  4.101651  0  0  0.069431  0.203361  0  4.075149  0
C  C63  1  0.13160473  0.00553549  0.90345882  1  0  0.219524  0  3.818501  0  0  0.208558  0  4.085184  0  0  0.216564  0  4.101635  0  0  0.069423  0.203378  0  4.075127  0
C  C64  1  0.72175778  0.00977790  0.03458066  1  0  -0.231276  0  3.846371  0  0  -0.251  0  4.107479  0  0  -0.255688  0  4.127713  0  0  -0.120928  -0.248132  0  4.094361  0
C  C65  1  0.27824385  0.99022065  0.96541926  1  0  -0.231332  0  3.846377  0  0  -0.251073  0  4.107478  0  0  -0.255765  0  4.127717  0  0  -0.120949  -0.248204  0  4.094364  0
C  C66  1  0.68119310  0.13509111  0.11109099  1  0  -0.104102  0  3.753295  0  0  -0.128968  0  4.006461  0  0  -0.13032  0  4.028687  0  0  -0.099101  -0.126928  0  3.990152  0
C  C67  1  0.31880745  0.86490740  0.88890955  1  0  -0.104074  0  3.753273  0  0  -0.128965  0  4.006423  0  0  -0.130314  0  4.028651  0  0  -0.099094  -0.126927  0  3.990114  0
O  O68  1  0.54452343  0.94467534  0.68408826  1  0  -0.628072  0  1.937231  0  0  -0.585596  0  2.163633  0  0  -0.605961  0  2.154329  0  0  -0.383931  -0.571761  0  2.169153  0
O  O69  1  0.45549787  0.05532642  0.31592683  1  0  -0.627892  0  1.938311  0  0  -0.585448  0  2.164683  0  0  -0.605803  0  2.155381  0  0  -0.38382  -0.571635  0  2.170241  0
O  O70  1  0.35278062  0.79598961  0.45090403  1  0  -0.615274  0  2.091249  0  0  -0.560204  0  2.317218  0  0  -0.582897  0  2.301245  0  0  -0.382429  -0.543816  0  2.327056  0
O  O71  1  0.64722303  0.20401689  0.54909754  1  0  -0.61521  0  2.091076  0  0  -0.560154  0  2.316998  0  0  -0.582851  0  2.301031  0  0  -0.382364  -0.543749  0  2.326805  0
O  O72  1  0.29988212  0.58696425  0.09940569  1  0  -0.572235  0  2.180057  0  0  -0.520919  0  2.406895  0  0  -0.539341  0  2.396297  0  0  -0.433897  -0.50756  0  2.413194  0
O  O73  1  0.70010485  0.41303176  0.90059549  1  0  -0.572224  0  2.180159  0  0  -0.520905  0  2.407047  0  0  -0.53932  0  2.396454  0  0  -0.433855  -0.507544  0  2.413342  0
O  O74  1  0.03086270  0.56668138  0.89013298  1  0  -0.510245  0  2.129876  0  0  -0.46936  0  2.345271  0  0  -0.48543  0  2.337745  0  0  -0.374806  -0.458722  0  2.351332  0
O  O75  1  0.96912823  0.43331368  0.10986423  1  0  -0.510196  0  2.129764  0  0  -0.469301  0  2.345128  0  0  -0.485374  0  2.337604  0  0  -0.374803  -0.458652  0  2.351156  0
O  O76  1  0.71344387  0.63682123  0.54801683  1  0  -0.645689  0  1.962424  0  0  -0.5943  0  2.186403  0  0  -0.617376  0  2.173622  0  0  -0.333607  -0.579341  0  2.195341  0
O  O77  1  0.28654811  0.36317854  0.45197661  1  0  -0.645677  0  1.962548  0  0  -0.594308  0  2.186555  0  0  -0.617386  0  2.173771  0  0  -0.333565  -0.579348  0  2.195487  0
O  O78  1  0.49212132  0.60809727  0.35485387  1  0  -0.65895  0  2.032066  0  0  -0.593157  0  2.253809  0  0  -0.61971  0  2.242117  0  0  -0.316847  -0.574818  0  2.262038  0
O  O79  1  0.50787080  0.39189458  0.64513766  1  0  -0.658933  0  2.032045  0  0  -0.593157  0  2.253806  0  0  -0.619698  0  2.242083  0  0  -0.316869  -0.574811  0  2.262031  0
O  O80  1  0.12272837  0.09393489  0.28804697  1  0  -0.577181  0  2.156031  0  0  -0.52695  0  2.38481  0  0  -0.545589  0  2.371731  0  0  -0.428242  -0.513566  0  2.392025  0
O  O81  1  0.87727051  0.90606133  0.71195318  1  0  -0.577213  0  2.156024  0  0  -0.526982  0  2.384776  0  0  -0.545619  0  2.371694  0  0  -0.428275  -0.513592  0  2.392028  0
O  O82  1  0.91206138  0.87216413  0.02486706  1  0  -0.52156  0  2.152345  0  0  -0.479449  0  2.371772  0  0  -0.49609  0  2.365164  0  0  -0.388749  -0.467415  0  2.376116  0
O  O83  1  0.08794116  0.12783314  0.97513754  1  0  -0.521498  0  2.152289  0  0  -0.479413  0  2.371734  0  0  -0.496038  0  2.365096  0  0  -0.388732  -0.467391  0  2.376114  0
