# generated using pymatgen
data_Zn2P2H26C25(NO3)4
_symmetry_space_group_name_H-M   'P 1'
_cell_length_a   10.32401053
_cell_length_b   11.49430053
_cell_length_c   28.44076428
_cell_angle_alpha   89.99991985
_cell_angle_beta   90.00000891
_cell_angle_gamma   115.34316311
_symmetry_Int_Tables_number   1
_chemical_formula_structural   Zn2P2H26C25(NO3)4
_chemical_formula_sum   'Zn8 P8 H104 C100 N16 O48'
_cell_volume   3050.18044826
_cell_formula_units_Z   4
loop_
 _symmetry_equiv_pos_site_id
 _symmetry_equiv_pos_as_xyz
  1  'x, y, z'
loop_
 _atom_site_type_symbol
 _atom_site_label
 _atom_site_symmetry_multiplicity
 _atom_site_fract_x
 _atom_site_fract_y
 _atom_site_fract_z
 _atom_site_occupancy
 _atom_site_pbe_bader_charge
 _atom_site_pbe_bader_spin_density
 _atom_site_pbe_cm5_charge
 _atom_site_pbe_ddec_charge
 _atom_site_pbe_ddec_spin_density
 _atom_site_pbe_ddec_sum_bond_order
 _atom_site_pbe_magmom
Zn  Zn0  1  0.91165708  0.99504471  0.06293371  1  1.30029  0  0.718856  0.916913  0  2.370049  0
Zn  Zn1  1  0.08834056  0.50495420  0.56293410  1  1.300309  0  0.718846  0.916917  0  2.370066  0
Zn  Zn2  1  0.08834373  0.00495585  0.93706589  1  1.300305  0  0.718847  0.916871  0  2.370074  0
Zn  Zn3  1  0.91165836  0.49504444  0.43706620  1  1.300305  0  0.718858  0.916896  0  2.370096  0
Zn  Zn4  1  0.66982857  0.66603190  0.47704960  1  1.308474  0  0.720104  0.928918  0  2.365831  0
Zn  Zn5  1  0.33016886  0.83396822  0.97704947  1  1.308421  0  0.720147  0.929019  0  2.36575  0
Zn  Zn6  1  0.33017086  0.33396577  0.52295035  1  1.308463  0  0.720099  0.928921  0  2.365859  0
Zn  Zn7  1  0.66983246  0.16603137  0.02295048  1  1.30839  0  0.720122  0.928924  0  2.365799  0
P  P8  1  0.59496874  0.87432018  0.04441559  1  3.389398  0  0.279958  1.202628  0  5.46331  0
P  P9  1  0.40503755  0.62568265  0.54441312  1  3.388945  0  0.27996  1.202753  0  5.463259  0
P  P10  1  0.40503452  0.12567942  0.95558400  1  3.38922  0  0.279951  1.202588  0  5.463287  0
P  P11  1  0.59496474  0.37431695  0.45558612  1  3.389182  0  0.280026  1.202867  0  5.463035  0
P  P12  1  0.93438202  0.16904028  0.97624519  1  3.367187  0  0.278607  1.200051  0  5.443455  0
P  P13  1  0.06561909  0.33095792  0.47624555  1  3.366811  0  0.278704  1.200166  0  5.443308  0
P  P14  1  0.06561690  0.83095835  0.02375440  1  3.367171  0  0.278677  1.20011  0  5.443372  0
P  P15  1  0.93437932  0.66904167  0.52375440  1  3.367163  0  0.278715  1.20017  0  5.443269  0
H  H16  1  0.62756163  0.19501677  0.79671308  1  0.102585  0  0.110756  0.137662  0  0.996836  0
H  H17  1  0.37243919  0.30498505  0.29671241  1  0.102648  0  0.110765  0.137717  0  0.996774  0
H  H18  1  0.37243918  0.80498379  0.20328722  1  0.102626  0  0.110748  0.137674  0  0.996804  0
H  H19  1  0.62756060  0.69501744  0.70328753  1  0.102614  0  0.11074  0.137672  0  0.996801  0
H  H20  1  0.49688076  0.99625964  0.74915681  1  0.141665  0  0.11063  0.116215  0  1.02896  0
H  H21  1  0.50312175  0.50374525  0.24915703  1  0.141661  0  0.110616  0.116205  0  1.029013  0
H  H22  1  0.50312142  0.00374381  0.25084348  1  0.141644  0  0.110631  0.11623  0  1.028988  0
H  H23  1  0.49687753  0.49625820  0.75084292  1  0.141775  0  0.110623  0.116201  0  1.028968  0
H  H24  1  0.53631126  0.76558889  0.86264785  1  0.111549  0  0.103122  0.100184  0  1.061368  0
H  H25  1  0.46368874  0.73441266  0.36264934  1  0.111395  0  0.103113  0.100182  0  1.06138  0
H  H26  1  0.46368669  0.23440975  0.13735174  1  0.111418  0  0.103138  0.100237  0  1.061374  0
H  H27  1  0.53631202  0.26558982  0.63735131  1  0.111451  0  0.103114  0.10018  0  1.061394  0
H  H28  1  0.66281467  0.96396011  0.91129136  1  0.108364  0  0.106444  0.129565  0  1.013976  0
H  H29  1  0.33718679  0.53603835  0.41129120  1  0.108374  0  0.10644  0.129553  0  1.014003  0
H  H30  1  0.33718619  0.03603852  0.08870823  1  0.108375  0  0.106446  0.129569  0  1.013956  0
H  H31  1  0.66281448  0.46396317  0.58870910  1  0.10839  0  0.106445  0.129564  0  1.013975  0
H  H32  1  0.74703395  0.18694694  0.91394236  1  0.644139  0  0.302177  0.360285  0  0.976075  0
H  H33  1  0.25296721  0.31305344  0.41394238  1  0.644145  0  0.302194  0.360305  0  0.976054  0
H  H34  1  0.25296737  0.81305266  0.08605759  1  0.644146  0  0.302198  0.360315  0  0.97605  0
H  H35  1  0.74703406  0.68694808  0.58605721  1  0.644134  0  0.302181  0.360302  0  0.976058  0
H  H36  1  0.76133758  0.81243073  0.93608926  1  0.11824  0  0.108424  0.134384  0  1.006912  0
H  H37  1  0.23866282  0.68756956  0.43608901  1  0.118231  0  0.10841  0.134348  0  1.006938  0
H  H38  1  0.23866277  0.18756886  0.06391068  1  0.118223  0  0.10841  0.134352  0  1.00695  0
H  H39  1  0.76133554  0.31243197  0.56391024  1  0.118209  0  0.108438  0.134388  0  1.006908  0
H  H40  1  0.79638739  0.77379097  0.85133171  1  0.12178  0  0.106383  0.106222  0  1.048852  0
H  H41  1  0.20361309  0.72621158  0.35133143  1  0.121786  0  0.106335  0.106176  0  1.048862  0
H  H42  1  0.20361388  0.22621055  0.14866824  1  0.121764  0  0.106376  0.106197  0  1.048965  0
H  H43  1  0.79638385  0.27378898  0.64866782  1  0.121857  0  0.106366  0.106193  0  1.04894  0
H  H44  1  0.66421530  0.37156233  0.87962782  1  0.149599  0  0.107057  0.116144  0  1.057239  0
H  H45  1  0.33578010  0.12843819  0.37962796  1  0.149739  0  0.107077  0.116162  0  1.057215  0
H  H46  1  0.33578168  0.62843630  0.12037177  1  0.149605  0  0.107072  0.116153  0  1.057241  0
H  H47  1  0.66421827  0.87156333  0.62037199  1  0.149608  0  0.107078  0.116172  0  1.057223  0
H  H48  1  0.62569539  0.40834938  0.96447715  1  0.092579  0  0.105503  0.122154  0  1.023286  0
H  H49  1  0.37430090  0.09164888  0.46447695  1  0.09257  0  0.105487  0.122131  0  1.023319  0
H  H50  1  0.37430160  0.59164926  0.03552280  1  0.09256  0  0.105473  0.12208  0  1.023244  0
H  H51  1  0.62569991  0.90835168  0.53552264  1  0.092685  0  0.10544  0.122046  0  1.023309  0
H  H52  1  0.70258252  0.71752509  0.01154908  1  0.635114  0  0.303488  0.362321  0  0.966774  0
H  H53  1  0.29741759  0.78247498  0.51154898  1  0.635097  0  0.303489  0.36236  0  0.966708  0
H  H54  1  0.29742022  0.28247547  0.98845086  1  0.635089  0  0.303479  0.362328  0  0.966744  0
H  H55  1  0.70258179  0.21752461  0.48845062  1  0.635119  0  0.303483  0.362307  0  0.966766  0
H  H56  1  0.07792707  0.96271083  0.13854172  1  0.109614  0  0.114153  0.084824  0  1.035321  0
H  H57  1  0.92207092  0.53728873  0.63854249  1  0.10956  0  0.11418  0.084867  0  1.035332  0
H  H58  1  0.92207374  0.03728973  0.86145788  1  0.109824  0  0.114147  0.084813  0  1.035299  0
H  H59  1  0.07792755  0.46270894  0.36145781  1  0.109554  0  0.114141  0.08482  0  1.035336  0
H  H60  1  0.10457197  0.99564275  0.22550351  1  0.122446  0  0.109157  0.121126  0  1.024225  0
H  H61  1  0.89542737  0.50435550  0.72550394  1  0.12246  0  0.109147  0.121136  0  1.024172  0
H  H62  1  0.89543032  0.00435685  0.77449679  1  0.122508  0  0.109117  0.121093  0  1.024316  0
H  H63  1  0.10457110  0.49564217  0.27449635  1  0.122461  0  0.109184  0.121145  0  1.024224  0
H  H64  1  0.76775996  0.12378360  0.21948917  1  0.104583  0  0.107358  0.112437  0  1.043948  0
H  H65  1  0.23224052  0.37621757  0.71948900  1  0.104578  0  0.107357  0.11242  0  1.043966  0
H  H66  1  0.23224233  0.87621600  0.78051113  1  0.104552  0  0.10734  0.112422  0  1.043978  0
H  H67  1  0.76775978  0.62378396  0.28051129  1  0.104595  0  0.107367  0.112438  0  1.043929  0
H  H68  1  0.75191532  0.08172384  0.13322778  1  0.130344  0  0.116114  0.095866  0  1.012732  0
H  H69  1  0.24808340  0.41827575  0.63322725  1  0.13025  0  0.116134  0.095875  0  1.012713  0
H  H70  1  0.24808742  0.91827672  0.86677322  1  0.130311  0  0.116118  0.09586  0  1.012689  0
H  H71  1  0.75191598  0.58172385  0.36677340  1  0.130324  0  0.116124  0.095856  0  1.012723  0
H  H72  1  0.06847597  0.13995202  0.28992888  1  0.080823  0  0.103163  0.11817  0  0.973236  0
H  H73  1  0.93152257  0.36004501  0.78992877  1  0.080798  0  0.103148  0.118136  0  0.973266  0
H  H74  1  0.93152347  0.86004565  0.71007212  1  0.080813  0  0.103162  0.118192  0  0.973251  0
H  H75  1  0.06847492  0.63995266  0.21007153  1  0.080812  0  0.103155  0.118163  0  0.97327  0
H  H76  1  0.92446477  0.98940579  0.29881555  1  0.044373  0  0.097651  0.103878  0  0.978156  0
H  H77  1  0.07553252  0.51059217  0.79881594  1  0.044393  0  0.097652  0.10388  0  0.978175  0
H  H78  1  0.07553369  0.01059188  0.70118404  1  0.044413  0  0.097662  0.103919  0  0.978148  0
H  H79  1  0.92446493  0.48940743  0.20118435  1  0.044389  0  0.097658  0.103896  0  0.978144  0
H  H80  1  0.75150098  0.08982922  0.29865371  1  0.074757  0  0.092255  0.094975  0  1.002831  0
H  H81  1  0.24849795  0.41017067  0.79865389  1  0.074775  0  0.092258  0.09499  0  1.002787  0
H  H82  1  0.24849794  0.91016942  0.70134658  1  0.074771  0  0.092255  0.094981  0  1.002786  0
H  H83  1  0.75150189  0.58982989  0.20134676  1  0.074762  0  0.092261  0.094986  0  1.002819  0
H  H84  1  0.89241903  0.24186630  0.28632876  1  0.045673  0  0.091058  0.090273  0  0.99981  0
H  H85  1  0.10757997  0.25813171  0.78632971  1  0.045678  0  0.091049  0.090232  0  0.999828  0
H  H86  1  0.10757994  0.75813041  0.71367119  1  0.045653  0  0.091036  0.090208  0  0.999816  0
H  H87  1  0.89241844  0.74186788  0.21367129  1  0.045661  0  0.091036  0.090223  0  0.99984  0
H  H88  1  0.84169718  0.23342368  0.36929700  1  0.04656  0  0.097972  0.10348  0  0.986559  0
H  H89  1  0.15830257  0.26657785  0.86929795  1  0.046645  0  0.09798  0.10347  0  0.986558  0
H  H90  1  0.15830220  0.76657592  0.63070260  1  0.046626  0  0.097969  0.103455  0  0.986582  0
H  H91  1  0.84169728  0.73342271  0.13070270  1  0.046552  0  0.097971  0.103468  0  0.986555  0
H  H92  1  0.01245134  0.23248129  0.36221840  1  0.062721  0  0.094711  0.097172  0  1.01524  0
H  H93  1  0.98754796  0.26751931  0.86221940  1  0.062712  0  0.094703  0.097158  0  1.015213  0
H  H94  1  0.98754758  0.76751735  0.63778119  1  0.062759  0  0.094714  0.097175  0  1.015191  0
H  H95  1  0.01245142  0.73248029  0.13778160  1  0.062705  0  0.094699  0.097143  0  1.015252  0
H  H96  1  0.04861442  0.03878588  0.38392251  1  0.10466  0  0.109116  0.123108  0  1.015947  0
H  H97  1  0.95138387  0.46121463  0.88392305  1  0.104659  0  0.109114  0.123082  0  1.015986  0
H  H98  1  0.95138496  0.96121372  0.61607813  1  0.104652  0  0.109099  0.123082  0  1.015974  0
H  H99  1  0.04861648  0.53878497  0.11607795  1  0.104661  0  0.109086  0.123059  0  1.015886  0
H  H100  1  0.95225917  0.83151710  0.42901358  1  0.143584  0  0.117025  0.098682  0  1.017719  0
H  H101  1  0.04773976  0.66848419  0.92901388  1  0.143576  0  0.117024  0.098682  0  1.017676  0
H  H102  1  0.04774118  0.16848250  0.57098637  1  0.143585  0  0.117035  0.098703  0  1.017684  0
H  H103  1  0.95226059  0.33151541  0.07098607  1  0.143577  0  0.117011  0.098661  0  1.017692  0
H  H104  1  0.55413802  0.83500588  0.44245343  1  0.087636  0  0.11736  0.091701  0  1.025688  0
H  H105  1  0.44586237  0.66499438  0.94245375  1  0.087615  0  0.117348  0.091722  0  1.025677  0
H  H106  1  0.44586182  0.16499468  0.55754687  1  0.087804  0  0.117355  0.091707  0  1.025675  0
H  H107  1  0.55413748  0.33500618  0.05754619  1  0.087643  0  0.117354  0.091741  0  1.025633  0
H  H108  1  0.63039640  0.03667689  0.39553755  1  0.12422  0  0.11412  0.12856  0  0.983276  0
H  H109  1  0.36960188  0.46332357  0.89553805  1  0.124242  0  0.114116  0.128573  0  0.983298  0
H  H110  1  0.36960349  0.96332174  0.60446275  1  0.124216  0  0.114108  0.128567  0  0.983205  0
H  H111  1  0.63039700  0.53667699  0.10446260  1  0.124249  0  0.114121  0.128607  0  0.983175  0
H  H112  1  0.51574692  0.79596532  0.08184956  1  -0.453446  0  0.092334  -0.103068  0  0.981383  0
H  H113  1  0.48425304  0.70403639  0.58184845  1  -0.453219  0  0.092344  -0.103104  0  0.981421  0
H  H114  1  0.48425103  0.20403331  0.91814968  1  -0.453293  0  0.09233  -0.103096  0  0.981419  0
H  H115  1  0.51574588  0.29596224  0.41815149  1  -0.453405  0  0.092333  -0.103133  0  0.981412  0
H  H116  1  0.04799370  0.28560586  0.96217167  1  -0.451827  0  0.089926  -0.105176  0  0.987694  0
H  H117  1  0.95200739  0.21439433  0.46217215  1  -0.451831  0  0.089934  -0.105166  0  0.98767  0
H  H118  1  0.95200711  0.71439470  0.03782792  1  -0.451835  0  0.089949  -0.105141  0  0.987688  0
H  H119  1  0.04799006  0.78560527  0.53782745  1  -0.451802  0  0.089947  -0.105152  0  0.987689  0
C  C120  1  0.65375672  0.09152577  0.85650335  1  0.510344  0  0.098598  0.343658  0  4.041787  0
C  C121  1  0.34624737  0.40847677  0.35650297  1  0.510932  0  0.098577  0.343684  0  4.04174  0
C  C122  1  0.34624597  0.90847671  0.14349554  1  0.510813  0  0.09855  0.343708  0  4.041824  0
C  C123  1  0.65375532  0.59152572  0.64349697  1  0.510301  0  0.098599  0.343654  0  4.04174  0
C  C124  1  0.60667157  0.10043932  0.81072222  1  0.037938  0  -0.096947  -0.191142  0  3.92751  0
C  C125  1  0.39333112  0.39956437  0.31072256  1  0.037924  0  -0.096982  -0.191231  0  3.927513  0
C  C126  1  0.39333067  0.89956221  0.18927842  1  0.037956  0  -0.096956  -0.19117  0  3.927422  0
C  C127  1  0.60666964  0.60043811  0.68927774  1  0.037987  0  -0.096968  -0.191204  0  3.927551  0
C  C128  1  0.53454523  0.99011152  0.78435172  1  0.002926  0  -0.077438  -0.097523  0  4.016722  0
C  C129  1  0.46545825  0.50989130  0.28435263  1  0.002884  0  -0.07743  -0.097544  0  4.016897  0
C  C130  1  0.46545604  0.00989000  0.21564752  1  0.002973  0  -0.077421  -0.097567  0  4.016796  0
C  C131  1  0.53454394  0.49011214  0.71564731  1  0.002766  0  -0.077426  -0.097491  0  4.01675  0
C  C132  1  0.51029614  0.87024487  0.80356221  1  0.163382  0  0.059156  0.023064  0  3.978455  0
C  C133  1  0.48970824  0.62975980  0.30356306  1  0.163411  0  0.059156  0.023074  0  3.978602  0
C  C134  1  0.48970656  0.12975761  0.19643774  1  0.163427  0  0.059204  0.023217  0  3.978467  0
C  C135  1  0.51029395  0.37024365  0.69643724  1  0.163366  0  0.059172  0.023106  0  3.978497  0
C  C136  1  0.55700332  0.86018377  0.84895481  1  0.000766  0  -0.084622  -0.099853  0  4.009651  0
C  C137  1  0.44299863  0.63981783  0.34895564  1  0.000824  0  -0.084614  -0.099872  0  4.009655  0
C  C138  1  0.44299744  0.13981871  0.15104409  1  0.000843  0  -0.084657  -0.10001  0  4.009569  0
C  C139  1  0.55700070  0.36018369  0.65104536  1  0.000874  0  -0.084611  -0.099887  0  4.009639  0
C  C140  1  0.62775458  0.97020319  0.87561440  1  -0.03131  0  -0.105645  -0.209748  0  3.959106  0
C  C141  1  0.37224642  0.52979639  0.37561529  1  -0.031313  0  -0.105595  -0.209666  0  3.959063  0
C  C142  1  0.37224678  0.02979449  0.12438520  1  -0.031233  0  -0.105579  -0.20968  0  3.959083  0
C  C143  1  0.62775577  0.47020706  0.62438500  1  -0.031293  0  -0.105618  -0.209672  0  3.958971  0
C  C144  1  0.69240464  0.61223789  0.95555926  1  0.597507  0  0.101703  0.35243  0  4.044482  0
C  C145  1  0.30759237  0.88776136  0.45555924  1  0.5975  0  0.101666  0.352374  0  4.044433  0
C  C146  1  0.30759520  0.38776267  0.04444069  1  0.597417  0  0.101673  0.35234  0  4.044571  0
C  C147  1  0.69240605  0.11223824  0.54444000  1  0.597418  0  0.101678  0.352348  0  4.044481  0
C  C148  1  0.73897630  0.71605062  0.92349750  1  0.012566  0  -0.103516  -0.212637  0  3.945973  0
C  C149  1  0.26102126  0.78394780  0.42349790  1  0.012571  0  -0.103477  -0.212522  0  3.945856  0
C  C150  1  0.26102308  0.28394898  0.07650209  1  0.012597  0  -0.103505  -0.212591  0  3.945936  0
C  C151  1  0.73897522  0.21605180  0.57650170  1  0.012601  0  -0.103522  -0.212607  0  3.94584  0
C  C152  1  0.75945619  0.69529984  0.87662043  1  -0.056002  0  -0.080839  -0.093292  0  4.002278  0
C  C153  1  0.24053996  0.80469973  0.37661976  1  -0.055974  0  -0.080854  -0.093335  0  4.00225  0
C  C154  1  0.24054176  0.30469879  0.12337987  1  -0.056001  0  -0.080837  -0.093255  0  4.00229  0
C  C155  1  0.75945601  0.19530084  0.62338019  1  -0.056077  0  -0.080809  -0.093268  0  4.002277  0
C  C156  1  0.73263739  0.57130770  0.86127875  1  0.177535  0  0.057582  0.021941  0  3.987084  0
C  C157  1  0.26735874  0.92869386  0.36127942  1  0.177514  0  0.057594  0.02191  0  3.987128  0
C  C158  1  0.26736102  0.42869190  0.13872084  1  0.177532  0  0.057548  0.02189  0  3.987094  0
C  C159  1  0.73263769  0.07130767  0.63872053  1  0.177524  0  0.057593  0.021969  0  3.987089  0
C  C160  1  0.68282626  0.46672056  0.89241789  1  -0.048616  0  -0.08444  -0.114652  0  4.020363  0
C  C161  1  0.31716866  0.03327896  0.39241737  1  -0.048713  0  -0.084475  -0.114691  0  4.020454  0
C  C162  1  0.31717118  0.53327904  0.10758241  1  -0.048535  0  -0.084455  -0.11467  0  4.020433  0
C  C163  1  0.68282925  0.96672161  0.60758257  1  -0.048521  0  -0.084478  -0.114723  0  4.020398  0
C  C164  1  0.66290027  0.48735936  0.93928758  1  -0.030525  0  -0.102447  -0.197632  0  3.940171  0
C  C165  1  0.33709601  0.01264093  0.43928778  1  -0.030557  0  -0.102442  -0.197598  0  3.940117  0
C  C166  1  0.33709672  0.51263928  0.06071202  1  -0.030579  0  -0.102386  -0.197478  0  3.940095  0
C  C167  1  0.66290379  0.98736156  0.56071182  1  -0.030684  0  -0.102405  -0.197524  0  3.940078  0
C  C168  1  0.01065876  0.99686485  0.15833829  1  0.396388  0  0.043138  0.092029  0  3.95892  0
C  C169  1  0.98934017  0.50313463  0.65833838  1  0.396489  0  0.043105  0.091926  0  3.958965  0
C  C170  1  0.98934399  0.00313570  0.84166166  1  0.396237  0  0.043143  0.092069  0  3.958889  0
C  C171  1  0.01065876  0.49686401  0.34166156  1  0.396465  0  0.043123  0.091954  0  3.958937  0
C  C172  1  0.02470581  0.01581658  0.20643397  1  -0.016472  0  -0.078569  -0.175041  0  3.907054  0
C  C173  1  0.97529474  0.48418271  0.70643484  1  -0.016624  0  -0.07853  -0.174957  0  3.906991  0
C  C174  1  0.97529744  0.98418301  0.79356598  1  -0.016474  0  -0.078487  -0.174946  0  3.907233  0
C  C175  1  0.02470516  0.51581593  0.29356545  1  -0.016521  0  -0.07855  -0.174934  0  3.906995  0
C  C176  1  0.93758798  0.06284932  0.23014467  1  0.007323  0  0.030675  0.198458  0  3.895464  0
C  C177  1  0.06241346  0.43715180  0.73014446  1  0.007423  0  0.03067  0.198417  0  3.895541  0
C  C178  1  0.06241574  0.93715123  0.76985598  1  0.00729  0  0.03063  0.198336  0  3.895613  0
C  C179  1  0.93758542  0.56284876  0.26985654  1  0.007358  0  0.030643  0.19837  0  3.895535  0
C  C180  1  0.83877011  0.08771922  0.20322766  1  -0.000787  0  -0.081173  -0.176631  0  3.922694  0
C  C181  1  0.16123136  0.41228201  0.70322853  1  -0.00082  0  -0.081189  -0.176614  0  3.922712  0
C  C182  1  0.16123264  0.91228134  0.79677193  1  -0.000812  0  -0.081154  -0.176582  0  3.922677  0
C  C183  1  0.83877042  0.58771855  0.29677212  1  -0.000806  0  -0.081135  -0.176555  0  3.922641  0
C  C184  1  0.82949887  0.06556734  0.15508937  1  0.453281  0  0.047603  0.101702  0  3.934961  0
C  C185  1  0.17049977  0.43443409  0.65508917  1  0.453455  0  0.047633  0.101753  0  3.934924  0
C  C186  1  0.17050240  0.93443419  0.84491058  1  0.453457  0  0.047619  0.101758  0  3.934867  0
C  C187  1  0.82949961  0.56556551  0.34491113  1  0.453355  0  0.047629  0.101757  0  3.934896  0
C  C188  1  0.95348349  0.08419091  0.28226281  1  -0.023923  0  -0.156259  -0.205869  0  3.938872  0
C  C189  1  0.04651552  0.41580711  0.78226297  1  -0.023908  0  -0.15627  -0.205879  0  3.938978  0
C  C190  1  0.04651549  0.91580580  0.71773749  1  -0.023914  0  -0.156271  -0.205956  0  3.939032  0
C  C191  1  0.95348575  0.58419441  0.21773768  1  -0.023918  0  -0.156258  -0.205899  0  3.938908  0
C  C192  1  0.86666529  0.14938559  0.30390848  1  -0.036117  0  -0.163162  -0.133563  0  3.912455  0
C  C193  1  0.13333364  0.35061428  0.80390903  1  -0.036118  0  -0.163153  -0.133532  0  3.912508  0
C  C194  1  0.13333410  0.85061401  0.69609111  1  -0.036127  0  -0.16315  -0.133497  0  3.912544  0
C  C195  1  0.86666478  0.64938532  0.19609162  1  -0.035901  0  -0.163149  -0.133538  0  3.912533  0
C  C196  1  0.89673930  0.17591846  0.35680157  1  -0.057259  0  -0.160376  -0.21443  0  3.946363  0
C  C197  1  0.10325954  0.32408119  0.85680178  1  -0.057342  0  -0.160358  -0.214345  0  3.946268  0
C  C198  1  0.10326105  0.82408113  0.64319908  1  -0.057383  0  -0.160328  -0.214296  0  3.946229  0
C  C199  1  0.89674127  0.67591937  0.14319922  1  -0.057453  0  -0.160345  -0.214295  0  3.946202  0
C  C200  1  0.84650235  0.05439937  0.38504487  1  0.038639  0  0.02167  0.178589  0  3.93069  0
C  C201  1  0.15349641  0.44560210  0.88504536  1  0.038668  0  0.02162  0.178468  0  3.930805  0
C  C202  1  0.15349703  0.94560023  0.61495543  1  0.038665  0  0.021617  0.178443  0  3.930676  0
C  C203  1  0.84650155  0.55439654  0.11495529  1  0.038501  0  0.021605  0.178408  0  3.930821  0
C  C204  1  0.93705158  0.99501270  0.39523104  1  -0.007884  0  -0.083073  -0.185196  0  3.931553  0
C  C205  1  0.06294837  0.50498872  0.89523143  1  -0.007828  0  -0.083074  -0.185146  0  3.931572  0
C  C206  1  0.06294872  0.00498882  0.60476961  1  -0.007741  0  -0.083035  -0.185132  0  3.931606  0
C  C207  1  0.93705010  0.49500896  0.10476887  1  -0.007801  0  -0.083051  -0.185123  0  3.931675  0
C  C208  1  0.88537898  0.88088154  0.42060591  1  0.416362  0  0.044342  0.092513  0  3.942845  0
C  C209  1  0.11462242  0.61911882  0.92060589  1  0.416297  0  0.044416  0.092608  0  3.942792  0
C  C210  1  0.11461944  0.11911806  0.57939474  1  0.416182  0  0.044306  0.092473  0  3.942891  0
C  C211  1  0.88537885  0.38088271  0.07939476  1  0.416227  0  0.044397  0.092631  0  3.942944  0
C  C212  1  0.66147687  0.88207588  0.42757056  1  0.478158  0  0.047881  0.099303  0  3.944065  0
C  C213  1  0.33852165  0.61792252  0.92757090  1  0.478076  0  0.047863  0.09922  0  3.944131  0
C  C214  1  0.33852353  0.11792179  0.57243009  1  0.477904  0  0.047898  0.099285  0  3.943999  0
C  C215  1  0.66147967  0.38207708  0.07242975  1  0.478089  0  0.047811  0.099166  0  3.944181  0
C  C216  1  0.70548708  0.99455099  0.40169253  1  -0.036971  0  -0.074344  -0.160425  0  3.914591  0
C  C217  1  0.29451338  0.50544944  0.90169328  1  -0.037001  0  -0.074325  -0.160386  0  3.914648  0
C  C218  1  0.29451277  0.00544957  0.59830742  1  -0.036991  0  -0.074322  -0.160352  0  3.914547  0
C  C219  1  0.70548988  0.49455016  0.09830772  1  -0.036819  0  -0.074289  -0.160382  0  3.914577  0
N  N220  1  0.43474303  0.75404434  0.77641459  1  0.335231  0  0.046311  0.516903  0  4.203669  0
N  N221  1  0.56525950  0.74595852  0.27641643  1  0.335238  0  0.046331  0.516744  0  4.203652  0
N  N222  1  0.56525824  0.24595719  0.22358325  1  0.335201  0  0.046304  0.516735  0  4.203705  0
N  N223  1  0.43473988  0.25404108  0.72358422  1  0.335259  0  0.046323  0.516786  0  4.203595  0
N  N224  1  0.76116925  0.55143574  0.81278956  1  0.304345  0  0.045981  0.511824  0  4.208459  0
N  N225  1  0.23882751  0.94856312  0.31278915  1  0.304305  0  0.046119  0.512116  0  4.208303  0
N  N226  1  0.23882876  0.44856097  0.18721074  1  0.304388  0  0.046036  0.511892  0  4.208355  0
N  N227  1  0.76117085  0.05143841  0.68721044  1  0.304613  0  0.046038  0.51195  0  4.208456  0
N  N228  1  0.91450746  0.02113609  0.13272219  1  -1.265659  0  -0.345478  -0.270861  0  3.610023  0
N  N229  1  0.08548978  0.47886446  0.63272231  1  -1.265721  0  -0.345508  -0.270888  0  3.610087  0
N  N230  1  0.08549381  0.97886543  0.86727811  1  -1.265847  0  -0.345487  -0.270926  0  3.610082  0
N  N231  1  0.91450817  0.52113417  0.36727798  1  -1.265716  0  -0.345514  -0.270904  0  3.610069  0
N  N232  1  0.74927088  0.82528752  0.43674719  1  -1.293194  0  -0.339889  -0.262078  0  3.596115  0
N  N233  1  0.25072758  0.67471277  0.93674750  1  -1.293152  0  -0.339917  -0.262104  0  3.5962  0
N  N234  1  0.25072896  0.17471304  0.56325311  1  -1.293034  0  -0.339904  -0.262094  0  3.596011  0
N  N235  1  0.74927083  0.32528683  0.06325280  1  -1.29314  0  -0.339881  -0.262086  0  3.596258  0
O  O236  1  0.72327517  0.20195986  0.88059515  1  -1.176285  0  -0.340818  -0.452201  0  2.356383  0
O  O237  1  0.27672700  0.29804066  0.38059483  1  -1.17677  0  -0.340793  -0.452186  0  2.356279  0
O  O238  1  0.27672854  0.79804070  0.11940515  1  -1.176826  0  -0.340842  -0.452266  0  2.356424  0
O  O239  1  0.72327620  0.70196086  0.61940441  1  -1.176293  0  -0.340812  -0.452216  0  2.356298  0
O  O240  1  0.37908160  0.76198303  0.73830872  1  -0.486425  0  -0.150035  -0.361615  0  1.920372  0
O  O241  1  0.62092715  0.73802480  0.23831091  1  -0.486457  0  -0.150032  -0.361518  0  1.920328  0
O  O242  1  0.62092630  0.23802427  0.26168912  1  -0.486438  0  -0.150067  -0.361569  0  1.920333  0
O  O243  1  0.37907361  0.26197769  0.76168938  1  -0.486491  0  -0.150067  -0.36159  0  1.920311  0
O  O244  1  0.42730368  0.65007578  0.79262339  1  -0.511415  0  -0.150849  -0.365265  0  1.93565  0
O  O245  1  0.57269443  0.84992798  0.29262482  1  -0.511461  0  -0.150905  -0.365235  0  1.935611  0
O  O246  1  0.57269320  0.34992671  0.20737444  1  -0.511449  0  -0.15087  -0.365226  0  1.935583  0
O  O247  1  0.42730485  0.15007547  0.70737512  1  -0.51138  0  -0.150871  -0.365223  0  1.935679  0
O  O248  1  0.67471908  0.62570413  0.00158981  1  -1.156034  0  -0.33849  -0.445623  0  2.346406  0
O  O249  1  0.32528054  0.87429695  0.50158966  1  -1.156027  0  -0.338487  -0.445658  0  2.346368  0
O  O250  1  0.32528270  0.37429643  0.99841013  1  -1.155974  0  -0.338501  -0.445625  0  2.34639  0
O  O251  1  0.67471879  0.12570457  0.49840994  1  -1.156001  0  -0.338493  -0.445586  0  2.346446  0
O  O252  1  0.73012453  0.43901665  0.79931316  1  -0.491461  0  -0.145931  -0.367566  0  1.961155  0
O  O253  1  0.26987145  0.06098516  0.29931297  1  -0.491433  0  -0.14595  -0.36765  0  1.961018  0
O  O254  1  0.26987582  0.56098295  0.20068714  1  -0.491466  0  -0.145945  -0.367591  0  1.96105  0
O  O255  1  0.73012646  0.93901540  0.70068662  1  -0.491509  0  -0.145924  -0.367572  0  1.961005  0
O  O256  1  0.81734659  0.64726514  0.78655535  1  -0.488473  0  -0.146137  -0.356228  0  1.934493  0
O  O257  1  0.18265546  0.85273672  0.28655500  1  -0.48847  0  -0.146171  -0.356325  0  1.934563  0
O  O258  1  0.18265473  0.35273446  0.21344424  1  -0.488495  0  -0.146124  -0.356228  0  1.934581  0
O  O259  1  0.81734341  0.14726384  0.71344424  1  -0.488677  0  -0.146158  -0.356299  0  1.934682  0
O  O260  1  0.63005067  0.01230542  0.06001950  1  -1.452964  0  -0.38102  -0.740058  0  2.420906  0
O  O261  1  0.36996595  0.48769927  0.56001682  1  -1.452862  0  -0.380982  -0.740059  0  2.42092  0
O  O262  1  0.36994876  0.98769225  0.93997939  1  -1.452984  0  -0.380994  -0.740007  0  2.420868  0
O  O263  1  0.63003537  0.51230033  0.43998313  1  -1.452909  0  -0.381002  -0.740095  0  2.420864  0
O  O264  1  0.73281003  0.85207917  0.03970230  1  -1.44196  0  -0.377225  -0.728831  0  2.367924  0
O  O265  1  0.26718770  0.64791790  0.53970262  1  -1.441718  0  -0.377275  -0.728936  0  2.367806  0
O  O266  1  0.26719078  0.14792139  0.96029765  1  -1.441884  0  -0.377275  -0.72889  0  2.367902  0
O  O267  1  0.73281174  0.35207977  0.46029697  1  -1.441787  0  -0.377285  -0.728923  0  2.367778  0
O  O268  1  0.95690318  0.15572367  0.02896369  1  -1.437903  0  -0.379943  -0.733994  0  2.400918  0
O  O269  1  0.04309911  0.34427537  0.52896424  1  -1.437904  0  -0.379966  -0.733987  0  2.400901  0
O  O270  1  0.04309957  0.84427689  0.97103590  1  -1.437898  0  -0.379957  -0.733946  0  2.400914  0
O  O271  1  0.95689787  0.65572327  0.47103571  1  -1.437886  0  -0.379981  -0.733976  0  2.400918  0
O  O272  1  0.79436326  0.18556391  0.96756293  1  -1.440959  0  -0.377202  -0.724337  0  2.37138  0
O  O273  1  0.20563879  0.31443626  0.46756330  1  -1.440642  0  -0.377249  -0.724407  0  2.371379  0
O  O274  1  0.20563949  0.81443665  0.03243702  1  -1.440961  0  -0.377256  -0.724451  0  2.371352  0
O  O275  1  0.79435871  0.68556141  0.53243700  1  -1.441019  0  -0.377225  -0.724373  0  2.37137  0
O  O276  1  0.93462307  0.06023809  0.94530126  1  -1.45126  0  -0.380289  -0.721978  0  2.3817  0
O  O277  1  0.06537804  0.43976217  0.44530155  1  -1.451236  0  -0.380343  -0.722074  0  2.381646  0
O  O278  1  0.06537774  0.93976247  0.05469869  1  -1.45123  0  -0.380339  -0.722064  0  2.381663  0
O  O279  1  0.93462088  0.56023647  0.55469874  1  -1.45123  0  -0.380356  -0.722113  0  2.381616  0
O  O280  1  0.50695706  0.82955697  0.99929747  1  -1.460452  0  -0.383493  -0.723867  0  2.384994  0
O  O281  1  0.49304300  0.67045270  0.49929618  1  -1.460611  0  -0.383437  -0.723774  0  2.384942  0
O  O282  1  0.49304716  0.17044263  0.00070072  1  -1.460437  0  -0.38342  -0.723712  0  2.384966  0
O  O283  1  0.50695689  0.32954594  0.50070412  1  -1.460573  0  -0.383464  -0.72384  0  2.384928  0
