# generated using pymatgen
data_Zn3H34C52(N3O2)4
_symmetry_space_group_name_H-M   'P 1'
_cell_length_a   20.72483417
_cell_length_b   20.96592280
_cell_length_c   20.96203881
_cell_angle_alpha   119.99422556
_cell_angle_beta   90.00000225
_cell_angle_gamma   89.99615350
_symmetry_Int_Tables_number   1
_chemical_formula_structural   Zn3H34C52(N3O2)4
_chemical_formula_sum   'Zn9 H102 C156 N36 O24'
_cell_volume   7888.50063888
_cell_formula_units_Z   3
loop_
 _symmetry_equiv_pos_site_id
 _symmetry_equiv_pos_as_xyz
  1  'x, y, z'
loop_
 _atom_site_type_symbol
 _atom_site_label
 _atom_site_symmetry_multiplicity
 _atom_site_fract_x
 _atom_site_fract_y
 _atom_site_fract_z
 _atom_site_occupancy
 _atom_site_pbe_bader_charge
 _atom_site_pbe_bader_spin_density
 _atom_site_pbe_cm5_charge
 _atom_site_pbe_ddec_charge
 _atom_site_pbe_ddec_spin_density
 _atom_site_pbe_ddec_sum_bond_order
 _atom_site_pbe_magmom
Zn  Zn0  1  0.16671453  0.24113592  0.99997875  1  1.263861  0  0.703377  0.821075  0  2.392935  0
Zn  Zn1  1  0.83328710  0.75886411  0.75884300  1  1.25997  0  0.70336  0.821036  0  2.393  0
Zn  Zn2  1  0.50000015  0.00000033  0.24113704  1  1.264228  0  0.703433  0.820614  0  2.393842  0
Zn  Zn3  1  0.39847755  0.22616425  0.16305132  1  1.229983  0  0.71462  0.68321  0  2.475494  0
Zn  Zn4  1  0.06508722  0.93689804  0.77392330  1  1.229651  0  0.714594  0.68354  0  2.475455  0
Zn  Zn5  1  0.73178253  0.83697140  0.06312715  1  1.228342  0  0.714587  0.683996  0  2.475124  0
Zn  Zn6  1  0.93491489  0.06310059  0.83702794  1  1.227352  0  0.714604  0.683557  0  2.475412  0
Zn  Zn7  1  0.26821713  0.16302670  0.22615510  1  1.231125  0  0.714569  0.683975  0  2.475111  0
Zn  Zn8  1  0.60152310  0.77383446  0.93688765  1  1.22935  0  0.714645  0.683173  0  2.475488  0
H  H9  1  0.31363503  0.26455878  0.05729180  1  0.182357  0  0.14131  0.114732  0  1.00081  0
H  H10  1  0.98023236  0.79273781  0.73550327  1  0.177173  0  0.140941  0.114397  0  1.001088  0
H  H11  1  0.64690300  0.94273006  0.20726330  1  0.195115  0  0.141045  0.114717  0  1.000872  0
H  H12  1  0.01976975  0.20726170  0.94276629  1  0.178921  0  0.140954  0.114453  0  1.001068  0
H  H13  1  0.35309715  0.05726922  0.26453343  1  0.144293  0  0.141029  0.114682  0  1.000918  0
H  H14  1  0.68636609  0.73543926  0.79273093  1  0.180735  0  0.141315  0.114756  0  1.000733  0
H  H15  1  0.48240409  0.46322998  0.92430994  1  0.068279  0  0.104846  0.112147  0  1.022807  0
H  H16  1  0.14911560  0.46108716  0.53666705  1  0.078391  0  0.104911  0.112295  0  1.022667  0
H  H17  1  0.81581098  0.07540726  0.53884345  1  0.072789  0  0.104959  0.112149  0  1.023275  0
H  H18  1  0.85088503  0.53891221  0.07557946  1  0.066571  0  0.104916  0.112305  0  1.022667  0
H  H19  1  0.18418918  0.92459630  0.46343648  1  0.078696  0  0.104948  0.112112  0  1.02328  0
H  H20  1  0.51759511  0.53676583  0.46107994  1  0.063344  0  0.104825  0.112136  0  1.022857  0
H  H21  1  0.13880165  0.15491125  0.15498028  1  0.467384  0  0.305087  0.325012  0  0.956729  0
H  H22  1  0.80543035  0.00007899  0.84513329  1  0.470421  0  0.305283  0.325332  0  0.956306  0
H  H23  1  0.47210445  0.84500520  0.99989958  1  0.476384  0  0.304962  0.324791  0  0.956865  0
H  H24  1  0.19457031  0.99991886  0.84505285  1  0.473109  0  0.3053  0.325333  0  0.956256  0
H  H25  1  0.52789620  0.15499474  0.15489668  1  0.487674  0  0.304984  0.324816  0  0.956808  0
H  H26  1  0.86119897  0.84508794  0.00007085  1  0.470275  0  0.305088  0.324976  0  0.956799  0
H  H27  1  0.10759459  0.19904587  0.10844609  1  0.542755  0  0.29262  0.330927  0  0.994524  0
H  H28  1  0.77422193  0.90944431  0.80101571  1  0.538655  0  0.292474  0.328838  0  0.997635  0
H  H29  1  0.44090936  0.89155934  0.09056224  1  0.540669  0  0.292388  0.328509  0  0.99774  0
H  H30  1  0.22577873  0.09055378  0.89157074  1  0.530328  0  0.292466  0.328787  0  0.997662  0
H  H31  1  0.55909127  0.10844125  0.19900565  1  0.542031  0  0.292375  0.328456  0  0.997799  0
H  H32  1  0.89240605  0.80095573  0.90940117  1  0.52727  0  0.292619  0.330901  0  0.994588  0
H  H33  1  0.52152133  0.70698179  0.00990948  1  0.127882  0  0.127023  0.098665  0  0.968824  0
H  H34  1  0.18825035  0.30291348  0.29292130  1  0.114827  0  0.127023  0.098569  0  0.968565  0
H  H35  1  0.85499668  0.99011979  0.69725175  1  0.11151  0  0.12691  0.098503  0  0.968786  0
H  H36  1  0.81175031  0.69708519  0.99000853  1  0.114169  0  0.127046  0.098567  0  0.96859  0
H  H37  1  0.14500446  0.00988284  0.70713338  1  0.1204  0  0.126938  0.098553  0  0.968699  0
H  H38  1  0.47847930  0.29301630  0.30292500  1  0.102653  0  0.127001  0.09868  0  0.968805  0
H  H39  1  0.68922085  0.44471753  0.91644389  1  0.041548  0  0.100182  0.103604  0  1.042238  0
H  H40  1  0.35593089  0.47173829  0.55516160  1  0.041028  0  0.100343  0.103785  0  1.041541  0
H  H41  1  0.02261594  0.08355813  0.52829781  1  0.05026  0  0.100244  0.103815  0  1.041829  0
H  H42  1  0.64406975  0.52826077  0.08342250  1  0.060123  0  0.100339  0.103789  0  1.041572  0
H  H43  1  0.97738471  0.91644194  0.44473830  1  0.049503  0  0.100198  0.103759  0  1.041788  0
H  H44  1  0.31077836  0.55527958  0.47172688  1  0.059039  0  0.100199  0.10366  0  1.042217  0
H  H45  1  0.67967315  0.63598292  0.87065308  1  0.11405  0  0.125439  0.095522  0  0.978652  0
H  H46  1  0.34624910  0.23458897  0.36406762  1  0.125179  0  0.12529  0.095581  0  0.978914  0
H  H47  1  0.01309827  0.12940217  0.76536847  1  0.116205  0  0.12528  0.095772  0  0.978159  0
H  H48  1  0.65375153  0.76540895  0.12948036  1  0.126328  0  0.125298  0.095552  0  0.978988  0
H  H49  1  0.98690383  0.87060015  0.63596572  1  0.115715  0  0.125308  0.095837  0  0.978163  0
H  H50  1  0.32032798  0.36401657  0.23466630  1  0.109754  0  0.12547  0.095549  0  0.978599  0
H  H51  1  0.51015215  0.58505445  0.00291370  1  0.090532  0  0.114388  0.122507  0  0.987743  0
H  H52  1  0.17677857  0.41776754  0.41491015  1  0.084671  0  0.114553  0.122305  0  0.987537  0
H  H53  1  0.84352373  0.99706755  0.58228825  1  0.087938  0  0.114336  0.122455  0  0.987299  0
H  H54  1  0.82322257  0.58223122  0.99714226  1  0.101457  0  0.114561  0.122285  0  0.987568  0
H  H55  1  0.15647692  0.00293465  0.58522118  1  0.088312  0  0.114392  0.122501  0  0.987302  0
H  H56  1  0.48984848  0.41494317  0.41785980  1  0.080434  0  0.114371  0.122473  0  0.987701  0
H  H57  1  0.85705846  0.30731080  0.90427723  1  0.122504  0  0.103183  0.107808  0  1.006718  0
H  H58  1  0.52374415  0.59694893  0.69277954  1  0.10878  0  0.103441  0.10781  0  1.007086  0
H  H59  1  0.19041083  0.09572113  0.40298930  1  0.103671  0  0.103069  0.107707  0  1.006712  0
H  H60  1  0.47625600  0.40305145  0.09583046  1  0.110755  0  0.103443  0.107813  0  1.007092  0
H  H61  1  0.80958980  0.90428075  0.30726955  1  0.102413  0  0.103085  0.107704  0  1.006761  0
H  H62  1  0.14294268  0.69269192  0.59696817  1  0.121771  0  0.103199  0.107819  0  1.006777  0
H  H63  1  0.63324444  0.21961263  0.89768507  1  0.097754  0  0.105229  0.105359  0  1.018022  0
H  H64  1  0.29985397  0.67786447  0.78027234  1  0.09923  0  0.105187  0.105462  0  1.01729  0
H  H65  1  0.96656301  0.10265029  0.32216262  1  0.112961  0  0.105402  0.105707  0  1.017544  0
H  H66  1  0.70014522  0.32213489  0.10240733  1  0.100511  0  0.105192  0.105473  0  1.017332  0
H  H67  1  0.03343521  0.89735025  0.21951097  1  0.115282  0  0.105384  0.105697  0  1.017614  0
H  H68  1  0.36675670  0.78038453  0.67807241  1  0.083012  0  0.105225  0.10538  0  1.017949  0
H  H69  1  0.30218044  0.37126447  0.96475944  1  0.121895  0  0.105021  0.111846  0  0.998073  0
H  H70  1  0.96887449  0.59334060  0.62847562  1  0.102721  0  0.104918  0.111733  0  0.997841  0
H  H71  1  0.63551753  0.03514315  0.40651196  1  0.097683  0  0.104817  0.111187  0  0.998071  0
H  H72  1  0.03112421  0.40666004  0.03513417  1  0.104242  0  0.104918  0.111744  0  0.997914  0
H  H73  1  0.36448310  0.96485797  0.37136928  1  0.107866  0  0.10483  0.111158  0  0.998069  0
H  H74  1  0.69782167  0.62873277  0.59349479  1  0.103878  0  0.105018  0.111828  0  0.998013  0
H  H75  1  0.76471297  0.38561336  0.91237800  1  0.023968  0  0.094138  0.089355  0  1.025851  0
H  H76  1  0.43146546  0.52661511  0.61443881  1  0.052761  0  0.094019  0.088792  0  1.025688  0
H  H77  1  0.09809867  0.08767063  0.47327410  1  0.054538  0  0.094089  0.089111  0  1.025926  0
H  H78  1  0.56853614  0.47338556  0.08782484  1  0.049643  0  0.094012  0.088768  0  1.025669  0
H  H79  1  0.90190294  0.91232990  0.38560220  1  0.053492  0  0.094066  0.089056  0  1.025997  0
H  H80  1  0.23528624  0.61438660  0.52676708  1  0.012962  0  0.094101  0.089327  0  1.025736  0
H  H81  1  0.67521995  0.51077154  0.85725024  1  0.080133  0  0.116048  0.125906  0  0.981878  0
H  H82  1  0.34187954  0.34649324  0.48922920  1  0.086508  0  0.115722  0.12536  0  0.982025  0
H  H83  1  0.00855061  0.14271315  0.65347891  1  0.070706  0  0.115949  0.12581  0  0.981996  0
H  H84  1  0.65812013  0.65350307  0.14273421  1  0.083886  0  0.11575  0.125392  0  0.982018  0
H  H85  1  0.99145004  0.85728738  0.51076341  1  0.070437  0  0.115967  0.125843  0  0.981973  0
H  H86  1  0.32478119  0.48922705  0.34647798  1  0.082233  0  0.116064  0.125957  0  0.981797  0
H  H87  1  0.40490832  0.43064431  0.96305443  1  -0.000874  0  0.095971  0.090617  0  1.018132  0
H  H88  1  0.07165298  0.53235870  0.56918055  1  0.062258  0  0.095773  0.09035  0  1.018233  0
H  H89  1  0.73823869  0.03679826  0.46760320  1  0.033029  0  0.096008  0.090814  0  1.017818  0
H  H90  1  0.92834669  0.46764161  0.03682133  1  0.032023  0  0.095768  0.090341  0  1.018236  0
H  H91  1  0.26176147  0.96320330  0.43080661  1  -0.004539  0  0.096002  0.090799  0  1.017824  0
H  H92  1  0.59509330  0.56935236  0.53241034  1  0.063819  0  0.095972  0.090625  0  1.018048  0
H  H93  1  0.39649904  0.16159453  0.87047914  1  0.079972  0  0.105169  0.109802  0  0.997345  0
H  H94  1  0.06308239  0.70893853  0.83823152  1  0.091435  0  0.105219  0.110229  0  0.997485  0
H  H95  1  0.72979687  0.12952007  0.29116731  1  0.089692  0  0.105208  0.110058  0  0.996795  0
H  H96  1  0.93691922  0.29106206  0.12929217  1  0.098797  0  0.10522  0.110253  0  0.997497  0
H  H97  1  0.27020183  0.87047869  0.16164600  1  0.07917  0  0.105205  0.110068  0  0.996822  0
H  H98  1  0.60350017  0.83840371  0.70888474  1  0.08847  0  0.105154  0.10973  0  0.997343  0
H  H99  1  0.50138858  0.22088204  0.86895891  1  0.072603  0  0.10328  0.103011  0  1.014694  0
H  H100  1  0.16797938  0.64813485  0.77904272  1  0.078924  0  0.103383  0.10293  0  1.014869  0
H  H101  1  0.83466618  0.13103041  0.35198436  1  0.072759  0  0.10315  0.10279  0  1.014575  0
H  H102  1  0.83202126  0.35186434  0.13090561  1  0.078368  0  0.103386  0.10295  0  1.014801  0
H  H103  1  0.16533205  0.86897087  0.22095470  1  0.082508  0  0.103205  0.10284  0  1.014537  0
H  H104  1  0.49860967  0.77911592  0.64807797  1  0.090667  0  0.103287  0.103005  0  1.014711  0
H  H105  1  0.72732171  0.14023457  0.88770997  1  0.100491  0  0.105682  0.110133  0  0.993104  0
H  H106  1  0.39386057  0.74739460  0.85972131  1  0.103717  0  0.10562  0.110207  0  0.993523  0
H  H107  1  0.06061525  0.11251115  0.25261471  1  0.075877  0  0.105618  0.109934  0  0.993471  0
H  H108  1  0.60613959  0.25260393  0.11232502  1  0.101693  0  0.105595  0.110169  0  0.993456  0
H  H109  1  0.93938152  0.88749172  0.14010363  1  0.065124  0  0.105623  0.109925  0  0.99351  0
H  H110  1  0.27268136  0.85976650  0.74747515  1  0.097092  0  0.105681  0.110103  0  0.993176  0
C  C111  1  0.28443131  0.23933260  0.08157135  1  1.028895  0  0.151575  0.171211  0  3.993659  0
C  C112  1  0.95104782  0.84225213  0.76076242  1  1.010692  0  0.151401  0.17075  0  3.994711  0
C  C113  1  0.61771082  0.91845804  0.15774483  1  0.999802  0  0.151686  0.171168  0  3.994835  0
C  C114  1  0.04895478  0.15774699  0.91851316  1  0.988812  0  0.151326  0.170618  0  3.994763  0
C  C115  1  0.38229077  0.08154111  0.23928791  1  1.04441  0  0.151662  0.171176  0  3.994962  0
C  C116  1  0.71556933  0.76066465  0.84223834  1  1.013653  0  0.151512  0.171081  0  3.99357  0
C  C117  1  0.20495956  0.19499797  0.11329335  1  1.503591  0  0.328037  0.540491  0  4.114544  0
C  C118  1  0.87159032  0.91831530  0.80512233  1  1.536058  0  0.32825  0.540708  0  4.116292  0
C  C119  1  0.53825022  0.88675496  0.08167045  1  1.521395  0  0.328014  0.540199  0  4.116379  0
C  C120  1  0.12841227  0.08168467  0.88680773  1  1.535351  0  0.328239  0.540755  0  4.116313  0
C  C121  1  0.46175088  0.11324516  0.19491724  1  1.523055  0  0.328035  0.540363  0  4.116207  0
C  C122  1  0.79504060  0.80499842  0.91829355  1  1.514777  0  0.328081  0.540377  0  4.114492  0
C  C123  1  0.34303945  0.26276968  0.91708662  1  0.037507  0  -0.017284  -0.027862  0  3.961711  0
C  C124  1  0.00964642  0.65431761  0.73701270  1  -0.004229  0  -0.017382  -0.028341  0  3.962781  0
C  C125  1  0.67634568  0.08283156  0.34569369  1  -0.017111  0  -0.017044  -0.024968  0  3.955966  0
C  C126  1  0.99035471  0.34568404  0.08269528  1  0.002571  0  -0.017422  -0.028417  0  3.962791  0
C  C127  1  0.32365255  0.91716806  0.26286016  1  0.060908  0  -0.017032  -0.024888  0  3.956061  0
C  C128  1  0.65696314  0.73722955  0.65431899  1  -0.015957  0  -0.017319  -0.027868  0  3.961665  0
C  C129  1  0.28175282  0.22757807  0.92290300  1  1.567139  0  0.197709  0.558151  0  4.248336  0
C  C130  1  0.94832226  0.69528813  0.77223340  1  1.563746  0  0.197727  0.558859  0  4.24991  0
C  C131  1  0.61501752  0.07700853  0.30469997  1  1.565484  0  0.197574  0.55703  0  4.250839  0
C  C132  1  0.05167934  0.30471875  0.07695041  1  1.566381  0  0.19768  0.558785  0  4.25022  0
C  C133  1  0.38498070  0.92298908  0.22768828  1  1.556478  0  0.197675  0.557181  0  4.25067  0
C  C134  1  0.71825025  0.77242204  0.69532758  1  1.572606  0  0.197634  0.557977  0  4.24849  0
C  C135  1  0.52626746  0.43347640  0.92173490  1  -0.046274  0  -0.088391  -0.225846  0  3.920096  0
C  C136  1  0.19296159  0.48827827  0.56643387  1  -0.066631  0  -0.088936  -0.225917  0  3.920207  0
C  C137  1  0.85966070  0.07806673  0.51169761  1  -0.058581  0  -0.08907  -0.226548  0  3.919405  0
C  C138  1  0.80703856  0.51172327  0.07815865  1  -0.062407  0  -0.088923  -0.225886  0  3.920182  0
C  C139  1  0.14034043  0.92193600  0.43362943  1  -0.063222  0  -0.089013  -0.226539  0  3.919451  0
C  C140  1  0.47373223  0.56651795  0.48826008  1  -0.019601  0  -0.088351  -0.225826  0  3.920129  0
C  C141  1  0.46050738  0.32919597  0.91471457  1  -0.078639  0  -0.00861  0.03434  0  3.991405  0
C  C142  1  0.12719517  0.58555610  0.67068503  1  0.009009  0  -0.008958  0.033257  0  3.992542  0
C  C143  1  0.79384618  0.08517133  0.41448566  1  -0.035669  0  -0.008557  0.032993  0  3.992166  0
C  C144  1  0.87280596  0.41444538  0.08513110  1  -0.028842  0  -0.00895  0.033236  0  3.992471  0
C  C145  1  0.20615301  0.91483114  0.32931627  1  -0.067281  0  -0.008632  0.032991  0  3.992146  0
C  C146  1  0.53949328  0.67080051  0.58552094  1  -0.013601  0  -0.008629  0.034377  0  3.991487  0
C  C147  1  0.55465077  0.66178166  0.97687721  1  0.454036  0  0.054244  0.097475  0  3.951282  0
C  C148  1  0.22131992  0.31505936  0.33816516  1  0.454824  0  0.054161  0.09725  0  3.952669  0
C  C149  1  0.88810477  0.02313495  0.68503392  1  0.477567  0  0.054486  0.097394  0  3.952923  0
C  C150  1  0.77868071  0.68493795  0.02310553  1  0.468139  0  0.054095  0.097202  0  3.952732  0
C  C151  1  0.11189781  0.97686708  0.66190002  1  0.457993  0  0.054446  0.09726  0  3.952856  0
C  C152  1  0.44535036  0.33821689  0.31509198  1  0.480907  0  0.05419  0.097295  0  3.951456  0
C  C153  1  0.64173222  0.42191840  0.91487900  1  0.015914  0  -0.089977  -0.225135  0  3.93523  0
C  C154  1  0.30843257  0.49292519  0.57797453  1  -0.041605  0  -0.09031  -0.225278  0  3.934246  0
C  C155  1  0.97512001  0.08513938  0.50708295  1  -0.013665  0  -0.0899  -0.225155  0  3.933881  0
C  C156  1  0.69156711  0.50707524  0.08505059  1  -0.06961  0  -0.090306  -0.225276  0  3.93436  0
C  C157  1  0.02488064  0.91486068  0.42194005  1  -0.021436  0  -0.089835  -0.22507  0  3.933988  0
C  C158  1  0.35826699  0.57807691  0.49296256  1  -0.023459  0  -0.090037  -0.225205  0  3.935371  0
C  C159  1  0.63504551  0.35232896  0.90856272  1  0.529035  0  0.124596  0.218021  0  4.016871  0
C  C160  1  0.30172735  0.55612168  0.64763026  1  0.585689  0  0.124209  0.21879  0  4.01693  0
C  C161  1  0.96840224  0.09156185  0.44386128  1  0.510779  0  0.124311  0.217662  0  4.018175  0
C  C162  1  0.69827232  0.44387925  0.09151046  1  0.572114  0  0.124213  0.218797  0  4.016926  0
C  C163  1  0.03159936  0.90843740  0.35229592  1  0.512289  0  0.124425  0.217775  0  4.01816  0
C  C164  1  0.36495467  0.64766744  0.55623529  1  0.53406  0  0.12457  0.21861  0  4.017354  0
C  C165  1  0.64344366  0.62219774  0.89959610  1  0.471267  0  0.055641  0.10821  0  3.944215  0
C  C166  1  0.31006835  0.27733245  0.37781982  1  0.467101  0  0.056144  0.108312  0  3.94521  0
C  C167  1  0.97687391  0.10043620  0.72266275  1  0.455656  0  0.055918  0.108581  0  3.944728  0
C  C168  1  0.68993324  0.72266651  0.10048712  1  0.454923  0  0.056174  0.108379  0  3.945146  0
C  C169  1  0.02312674  0.89956608  0.62222724  1  0.459333  0  0.055873  0.108344  0  3.944894  0
C  C170  1  0.35655892  0.37780171  0.27739516  1  0.494399  0  0.055579  0.108135  0  3.944261  0
C  C171  1  0.54839200  0.59364866  0.97231832  1  -0.036233  0  -0.080038  -0.177738  0  3.943808  0
C  C172  1  0.21502049  0.37858012  0.40631528  1  0.007734  0  -0.080617  -0.178625  0  3.943837  0
C  C173  1  0.88178273  0.02766856  0.62144627  1  0.014832  0  -0.080425  -0.177832  0  3.944644  0
C  C174  1  0.78498110  0.62141808  0.02773599  1  -0.029856  0  -0.080618  -0.178574  0  3.943855  0
C  C175  1  0.11821695  0.97233567  0.59378002  1  -0.05136  0  -0.080389  -0.178877  0  3.943528  0
C  C176  1  0.45160914  0.40634805  0.37866733  1  -0.025169  0  -0.079994  -0.177608  0  3.943748  0
C  C177  1  0.80770189  0.28840131  0.90204247  1  -0.00552  0  -0.083378  -0.087739  0  3.980537  0
C  C178  1  0.47436756  0.61357063  0.71166124  1  0.040849  0  -0.083762  -0.087699  0  3.979961  0
C  C179  1  0.14103859  0.09801952  0.38637117  1  -0.064255  0  -0.083014  -0.088039  0  3.978969  0
C  C180  1  0.52563308  0.38642854  0.09808926  1  0.003873  0  -0.083746  -0.087693  0  3.979995  0
C  C181  1  0.85895964  0.90198367  0.28835241  1  -0.076988  0  -0.083018  -0.088072  0  3.978943  0
C  C182  1  0.19229780  0.71160004  0.61364382  1  -0.046663  0  -0.083507  -0.087864  0  3.980375  0
C  C183  1  0.68248234  0.23793918  0.89817783  1  -0.003469  0  -0.082313  -0.106417  0  3.96131  0
C  C184  1  0.34911577  0.66005775  0.76202272  1  -0.053197  0  -0.082505  -0.10586  0  3.960206  0
C  C185  1  0.01581670  0.10211273  0.33993464  1  -0.030627  0  -0.082831  -0.107029  0  3.961627  0
C  C186  1  0.65088487  0.33994098  0.10196369  1  -0.026411  0  -0.082472  -0.105843  0  3.96017  0
C  C187  1  0.98418104  0.89788854  0.23781885  1  -0.023662  0  -0.082835  -0.107036  0  3.961762  0
C  C188  1  0.31751929  0.76205866  0.66023895  1  0.029626  0  -0.082369  -0.105914  0  3.961825  0
C  C189  1  0.52300516  0.36326743  0.91462226  1  0.550805  0  0.125777  0.221044  0  4.026292  0
C  C190  1  0.18969912  0.55135361  0.63667139  1  0.543014  0  0.126002  0.220977  0  4.026294  0
C  C191  1  0.85637164  0.08532802  0.44866989  1  0.547148  0  0.125625  0.222156  0  4.022906  0
C  C192  1  0.81030104  0.44864852  0.08532085  1  0.577103  0  0.12597  0.220998  0  4.02628  0
C  C193  1  0.14362900  0.91467348  0.36334144  1  0.548431  0  0.1257  0.222282  0  4.022829  0
C  C194  1  0.47699550  0.63672788  0.55135899  1  0.530956  0  0.125731  0.220996  0  4.025945  0
C  C195  1  0.58658924  0.46333575  0.92178330  1  -0.038615  0  -0.003909  0.091481  0  4.043252  0
C  C196  1  0.25328010  0.45846495  0.53656697  1  -0.025238  0  -0.003337  0.090319  0  4.043255  0
C  C197  1  0.91998687  0.07809732  0.54154002  1  -0.011369  0  -0.003229  0.092057  0  4.042742  0
C  C198  1  0.74671957  0.54153502  0.07810334  1  -0.017383  0  -0.003328  0.090242  0  4.043316  0
C  C199  1  0.08001329  0.92190492  0.46344328  1  -0.002648  0  -0.003313  0.090914  0  4.042013  0
C  C200  1  0.41340997  0.53665984  0.45844982  1  -0.039888  0  -0.003856  0.091513  0  4.043524  0
C  C201  1  0.34588419  0.33858691  0.94277471  1  -0.114274  0  -0.08527  -0.089971  0  3.98667  0
C  C202  1  0.01257118  0.60415511  0.66120135  1  -0.046509  0  -0.085356  -0.090064  0  3.98688  0
C  C203  1  0.67923342  0.05712108  0.39582253  1  -0.020715  0  -0.085556  -0.090328  0  3.984095  0
C  C204  1  0.98742994  0.39584665  0.05704638  1  -0.065655  0  -0.085363  -0.090098  0  3.986861  0
C  C205  1  0.32076818  0.94287953  0.33870063  1  -0.08822  0  -0.085565  -0.090268  0  3.984033  0
C  C206  1  0.65411647  0.66141178  0.60418904  1  -0.001557  0  -0.085317  -0.090023  0  3.986636  0
C  C207  1  0.85545195  0.17170434  0.88452849  1  1.51841  0  0.193301  0.558242  0  4.205178  0
C  C208  1  0.52202682  0.71293992  0.82833897  1  1.527437  0  0.193546  0.559392  0  4.203741  0
C  C209  1  0.18874453  0.11543583  0.28707777  1  1.532405  0  0.193407  0.557965  0  4.205069  0
C  C210  1  0.47797238  0.28706278  0.11539663  1  1.517483  0  0.193442  0.559258  0  4.204258  0
C  C211  1  0.81125659  0.88456723  0.17164386  1  1.529144  0  0.193381  0.55784  0  4.20539  0
C  C212  1  0.14455209  0.82830139  0.71282434  1  1.539453  0  0.19333  0.558201  0  4.205199  0
C  C213  1  0.59194650  0.53689398  0.92905072  1  -0.022382  0  0.018646  0.119697  0  3.97022  0
C  C214  1  0.25860543  0.39211989  0.46304835  1  -0.010857  0  0.01908  0.123332  0  3.965231  0
C  C215  1  0.92532902  0.07085828  0.60786375  1  -0.091723  0  0.019208  0.120557  0  3.970452  0
C  C216  1  0.74139376  0.60787871  0.07092845  1  0.017764  0  0.019055  0.123322  0  3.965268  0
C  C217  1  0.07467211  0.92914484  0.53700658  1  -0.014208  0  0.019145  0.123961  0  3.965427  0
C  C218  1  0.40805367  0.46310316  0.39215575  1  -0.02482  0  0.018663  0.119706  0  3.97026  0
C  C219  1  0.79804483  0.21876957  0.89449782  1  -0.071047  0  -0.015689  -0.023336  0  3.96855  0
C  C220  1  0.46466357  0.67569320  0.78126468  1  -0.05759  0  -0.015518  -0.023677  0  3.96869  0
C  C221  1  0.13136008  0.10559007  0.32428057  1  -0.033389  0  -0.015773  -0.021255  0  3.965737  0
C  C222  1  0.53533900  0.32430655  0.10556880  1  -0.034919  0  -0.015544  -0.023742  0  3.968978  0
C  C223  1  0.86863958  0.89441226  0.21869263  1  -0.014984  0  -0.015767  -0.021173  0  3.965858  0
C  C224  1  0.20195776  0.78123299  0.67572899  1  -0.044714  0  -0.015654  -0.023299  0  3.968489  0
C  C225  1  0.69178332  0.30709939  0.90395967  1  -0.041706  0  -0.006285  0.040455  0  3.966413  0
C  C226  1  0.35846950  0.59668756  0.69288025  1  -0.08178  0  -0.006329  0.038282  0  3.968501  0
C  C227  1  0.02514049  0.09623893  0.40325892  1  -0.050681  0  -0.006227  0.039405  0  3.969835  0
C  C228  1  0.64152969  0.40331236  0.09619201  1  -0.063632  0  -0.006378  0.038237  0  3.96848  0
C  C229  1  0.97485966  0.90376333  0.30701958  1  -0.057495  0  -0.006274  0.039242  0  3.969663  0
C  C230  1  0.30821878  0.69289730  0.59686050  1  -0.035585  0  -0.006309  0.038257  0  3.969514  0
C  C231  1  0.75535501  0.33171774  0.90634458  1  -0.058442  0  -0.093593  -0.124969  0  3.99322  0
C  C232  1  0.42205435  0.57450076  0.66830912  1  -0.070487  0  -0.09321  -0.123422  0  3.993136  0
C  C233  1  0.08870538  0.09375220  0.42543329  1  -0.037571  0  -0.09357  -0.12444  0  3.995163  0
C  C234  1  0.57794580  0.42549834  0.09380747  1  -0.051252  0  -0.093166  -0.123322  0  3.993103  0
C  C235  1  0.91129477  0.90624938  0.33168128  1  -0.032574  0  -0.093519  -0.124256  0  3.994963  0
C  C236  1  0.24464468  0.66828205  0.57462985  1  -0.049416  0  -0.093507  -0.124147  0  3.99355  0
C  C237  1  0.64068169  0.55286135  0.89263619  1  0.024231  0  -0.07693  -0.170911  0  3.929653  0
C  C238  1  0.30734535  0.33974678  0.44712139  1  -0.019118  0  -0.076751  -0.171456  0  3.929894  0
C  C239  1  0.97405097  0.10733800  0.66024555  1  0.058796  0  -0.077316  -0.17202  0  3.931473  0
C  C240  1  0.69265480  0.66025258  0.10737376  1  -0.034698  0  -0.076776  -0.171507  0  3.929884  0
C  C241  1  0.02595016  0.89266534  0.55290644  1  0.045997  0  -0.07731  -0.173114  0  3.930541  0
C  C242  1  0.35931992  0.44713760  0.33977415  1  0.017232  0  -0.076931  -0.170956  0  3.929668  0
C  C243  1  0.40382034  0.37130001  0.94133093  1  0.030963  0  -0.094421  -0.130684  0  4.002704  0
C  C244  1  0.07054385  0.57003941  0.62852760  1  -0.052682  0  -0.09379  -0.129449  0  4.002221  0
C  C245  1  0.73717015  0.05852953  0.42997895  1  -0.043761  0  -0.09392  -0.130207  0  4.002564  0
C  C246  1  0.92945630  0.42996273  0.05848884  1  -0.026502  0  -0.093793  -0.12942  0  4.002138  0
C  C247  1  0.26283097  0.94147393  0.37145027  1  -0.008678  0  -0.093924  -0.130304  0  4.002569  0
C  C248  1  0.59617888  0.62869717  0.57003359  1  -0.088655  0  -0.09442  -0.130729  0  4.002775  0
C  C249  1  0.39926474  0.22039628  0.88986483  1  -0.06198  0  -0.081348  -0.085241  0  3.971692  0
C  C250  1  0.06586638  0.66953012  0.77942006  1  -0.114049  0  -0.081359  -0.086217  0  3.973497  0
C  C251  1  0.73256426  0.11007764  0.33055576  1  -0.026969  0  -0.081435  -0.086657  0  3.971132  0
C  C252  1  0.93413330  0.33046819  0.10988697  1  -0.123814  0  -0.081346  -0.086213  0  3.973463  0
C  C253  1  0.26743493  0.88992304  0.22047751  1  -0.03769  0  -0.081459  -0.086778  0  3.971271  0
C  C254  1  0.60073495  0.77960088  0.66946954  1  -0.077989  0  -0.081235  -0.085037  0  3.971504  0
C  C255  1  0.45729160  0.25318628  0.88901963  1  0.038444  0  -0.084551  -0.10854  0  3.966734  0
C  C256  1  0.12390320  0.63588134  0.74669329  1  0.011313  0  -0.084581  -0.107469  0  3.967539  0
C  C257  1  0.79058544  0.11092316  0.36420481  1  -0.028288  0  -0.084498  -0.107928  0  3.967304  0
C  C258  1  0.87609792  0.36411824  0.11081100  1  0.044699  0  -0.084541  -0.107425  0  3.96746  0
C  C259  1  0.20941326  0.88907484  0.25328114  1  -0.004272  0  -0.084526  -0.107923  0  3.967155  0
C  C260  1  0.54270713  0.74681087  0.63583414  1  -0.010466  0  -0.084527  -0.108538  0  3.966727  0
C  C261  1  0.73485046  0.19416599  0.89312475  1  -0.018846  0  -0.081961  -0.090503  0  3.974139  0
C  C262  1  0.40144587  0.69883818  0.80583232  1  -0.015994  0  -0.081727  -0.090603  0  3.97426  0
C  C263  1  0.06816821  0.10708488  0.30113014  1  0.003068  0  -0.08162  -0.090616  0  3.9733  0
C  C264  1  0.59855429  0.30116161  0.10699206  1  -0.036519  0  -0.081706  -0.090549  0  3.974334  0
C  C265  1  0.93183097  0.89291741  0.19404502  1  0.002424  0  -0.081635  -0.090621  0  3.973598  0
C  C266  1  0.26515309  0.80583626  0.69896011  1  -0.034935  0  -0.081882  -0.09026  0  3.973978  0
N  N267  1  0.57656204  0.32419947  0.90780746  1  -1.194436  0  -0.297323  -0.318101  0  3.278907  0
N  N268  1  0.24325792  0.58352217  0.67577374  1  -1.190687  0  -0.297049  -0.318342  0  3.279935  0
N  N269  1  0.90991393  0.09229678  0.41648833  1  -1.166158  0  -0.297278  -0.318101  0  3.277897  0
N  N270  1  0.75674320  0.41648100  0.09225427  1  -1.19761  0  -0.297048  -0.318355  0  3.279845  0
N  N271  1  0.09008719  0.90770219  0.32418952  1  -1.169469  0  -0.297379  -0.318251  0  3.277877  0
N  N272  1  0.42343766  0.67579757  0.58361056  1  -1.192225  0  -0.297281  -0.317964  0  3.278543  0
N  N273  1  0.22032655  0.22585059  0.07111538  1  -1.23073  0  -0.366797  -0.428741  0  3.470629  0
N  N274  1  0.88694587  0.84529460  0.77426068  1  -1.246227  0  -0.366348  -0.428304  0  3.472354  0
N  N275  1  0.55361635  0.92893839  0.15469833  1  -1.26879  0  -0.366658  -0.428776  0  3.47267  0
N  N276  1  0.11305720  0.15470532  0.92896896  1  -1.246688  0  -0.366298  -0.428259  0  3.472247  0
N  N277  1  0.44638573  0.07106173  0.22576244  1  -1.262474  0  -0.366619  -0.428787  0  3.472838  0
N  N278  1  0.77967409  0.77414856  0.84526465  1  -1.227064  0  -0.366894  -0.428814  0  3.470605  0
N  N279  1  0.30874778  0.21832367  0.12646211  1  -0.860048  0  -0.279993  -0.212396  0  3.606393  0
N  N280  1  0.97537581  0.90813185  0.78177234  1  -0.850022  0  -0.280442  -0.212567  0  3.606698  0
N  N281  1  0.64203968  0.87355982  0.09185910  1  -0.838246  0  -0.280587  -0.213754  0  3.60743  0
N  N282  1  0.02462678  0.09186660  0.87364350  1  -0.833128  0  -0.280406  -0.212525  0  3.607004  0
N  N283  1  0.35796191  0.12644121  0.21830284  1  -0.832964  0  -0.280506  -0.213713  0  3.607386  0
N  N284  1  0.69125045  0.78167350  0.90813709  1  -0.852377  0  -0.279918  -0.212205  0  3.606256  0
N  N285  1  0.25796427  0.18973625  0.14766818  1  -0.814553  0  -0.293297  -0.340201  0  3.444219  0
N  N286  1  0.92459398  0.95793242  0.81037124  1  -0.822988  0  -0.293003  -0.339878  0  3.444847  0
N  N287  1  0.59125785  0.85235416  0.04205771  1  -0.821823  0  -0.292951  -0.338732  0  3.443733  0
N  N288  1  0.07540813  0.04206629  0.85244061  1  -0.823358  0  -0.293012  -0.33995  0  3.445015  0
N  N289  1  0.40874326  0.14764806  0.18970758  1  -0.822891  0  -0.292998  -0.338863  0  3.443711  0
N  N290  1  0.74203541  0.81026070  0.95793234  1  -0.814938  0  -0.293349  -0.340221  0  3.444093  0
N  N291  1  0.14523632  0.17256810  0.11816459  1  -1.294652  0  -0.583316  -0.665923  0  3.260293  0
N  N292  1  0.81185623  0.94562788  0.82754043  1  -1.288034  0  -0.583317  -0.664685  0  3.263294  0
N  N293  1  0.47853121  0.88188287  0.05435471  1  -1.284119  0  -0.582939  -0.663569  0  3.263507  0
N  N294  1  0.18814540  0.05437143  0.88191157  1  -1.283119  0  -0.583326  -0.66464  0  3.26321  0
N  N295  1  0.52147038  0.11811860  0.17247475  1  -1.298449  0  -0.582958  -0.663575  0  3.263452  0
N  N296  1  0.85476384  0.82743043  0.94559755  1  -1.28683  0  -0.583296  -0.665759  0  3.260351  0
N  N297  1  0.60130591  0.67594072  0.94104481  1  -1.260794  0  -0.325856  -0.227326  0  3.576778  0
N  N298  1  0.26795842  0.26506350  0.32403730  1  -1.265037  0  -0.325954  -0.22722  0  3.576265  0
N  N299  1  0.93476931  0.05897129  0.73499296  1  -1.259588  0  -0.325811  -0.226927  0  3.577652  0
N  N300  1  0.73204269  0.73493546  0.05897496  1  -1.25905  0  -0.325943  -0.227205  0  3.576164  0
N  N301  1  0.06523183  0.94103054  0.67602307  1  -1.250071  0  -0.325835  -0.226839  0  3.577379  0
N  N302  1  0.39869426  0.32405864  0.26510131  1  -1.271769  0  -0.325815  -0.227221  0  3.576886  0
O  O303  1  0.23428360  0.27275401  0.95560612  1  -1.178067  0  -0.344944  -0.565414  0  2.293934  0
O  O304  1  0.90086561  0.68287229  0.72706019  1  -1.171913  0  -0.34496  -0.565632  0  2.294799  0
O  O305  1  0.56763056  0.04415813  0.31708761  1  -1.172122  0  -0.344905  -0.565133  0  2.296188  0
O  O306  1  0.09913262  0.31712835  0.04418665  1  -1.175563  0  -0.344976  -0.565636  0  2.294894  0
O  O307  1  0.43236960  0.95583864  0.27292500  1  -1.171836  0  -0.344951  -0.565199  0  2.296078  0
O  O308  1  0.76571803  0.72724814  0.68285434  1  -1.179216  0  -0.344935  -0.565315  0  2.294086  0
O  O309  1  0.84556175  0.10435145  0.87041354  1  -1.168188  0  -0.342087  -0.563021  0  2.253336  0
O  O310  1  0.51209732  0.76601784  0.89576246  1  -1.177589  0  -0.342526  -0.563759  0  2.252369  0
O  O311  1  0.17885108  0.12957129  0.23384113  1  -1.170716  0  -0.342033  -0.562958  0  2.253217  0
O  O312  1  0.48790333  0.23398145  0.12974099  1  -1.172799  0  -0.342523  -0.563743  0  2.252352  0
O  O313  1  0.82115147  0.87043106  0.10427016  1  -1.170395  0  -0.342055  -0.562955  0  2.253143  0
O  O314  1  0.15444180  0.89565537  0.76606247  1  -1.179488  0  -0.342122  -0.563079  0  2.253424  0
O  O315  1  0.91146027  0.19556981  0.88617292  1  -1.173722  0  -0.323976  -0.548275  0  2.133694  0
O  O316  1  0.57806710  0.69094982  0.80441501  1  -1.16531  0  -0.323986  -0.548495  0  2.134263  0
O  O317  1  0.24476144  0.11369665  0.30922898  1  -1.173691  0  -0.324231  -0.548672  0  2.134469  0
O  O318  1  0.42193306  0.30904753  0.11345714  1  -1.168946  0  -0.323887  -0.54838  0  2.134634  0
O  O319  1  0.75524064  0.88630776  0.19553478  1  -1.16998  0  -0.324178  -0.548602  0  2.134725  0
O  O320  1  0.08854328  0.80443971  0.69060167  1  -1.17185  0  -0.323954  -0.548203  0  2.133761  0
O  O321  1  0.28099372  0.15956570  0.89962078  1  -1.189241  0  -0.328905  -0.565108  0  2.154018  0
O  O322  1  0.94759264  0.73995039  0.84026279  1  -1.196492  0  -0.328753  -0.565923  0  2.155657  0
O  O323  1  0.61417474  0.10040871  0.26006507  1  -1.191613  0  -0.328728  -0.565106  0  2.156315  0
O  O324  1  0.05240849  0.26006066  0.10032257  1  -1.189541  0  -0.328718  -0.565878  0  2.155824  0
O  O325  1  0.38582348  0.89958757  0.15965165  1  -1.185895  0  -0.328767  -0.565177  0  2.156181  0
O  O326  1  0.71900790  0.84043468  0.74006081  1  -1.198211  0  -0.328814  -0.565015  0  2.154002  0
