# generated using pymatgen
data_CuH9C11N3O4
_symmetry_space_group_name_H-M   'P 1'
_cell_length_a   10.04557537
_cell_length_b   10.60099735
_cell_length_c   13.28883376
_cell_angle_alpha   90.29525661
_cell_angle_beta   112.20548490
_cell_angle_gamma   89.99872127
_symmetry_Int_Tables_number   1
_chemical_formula_structural   CuH9C11N3O4
_chemical_formula_sum   'Cu4 H36 C44 N12 O16'
_cell_volume   1310.19224188
_cell_formula_units_Z   4
loop_
 _symmetry_equiv_pos_site_id
 _symmetry_equiv_pos_as_xyz
  1  'x, y, z'
loop_
 _atom_site_type_symbol
 _atom_site_label
 _atom_site_symmetry_multiplicity
 _atom_site_fract_x
 _atom_site_fract_y
 _atom_site_fract_z
 _atom_site_occupancy
 _atom_site_pbe_bader_charge
 _atom_site_pbe_bader_spin_density
 _atom_site_pbe_cm5_charge
 _atom_site_pbe_ddec_charge
 _atom_site_pbe_ddec_spin_density
 _atom_site_pbe_ddec_sum_bond_order
 _atom_site_pbe_magmom
Cu  Cu0  1  0.23434857  0.76329895  0.39175762  1  0.769112  0  0.558103  0.425872  0  2.247577  0
Cu  Cu1  1  0.84269811  0.73680340  0.60839283  1  0.770065  0  0.557968  0.426198  0  2.245064  0
Cu  Cu2  1  0.15730598  0.26319257  0.39160667  1  0.769971  0  0.557953  0.426151  0  2.245168  0
Cu  Cu3  1  0.76565253  0.23670363  0.60824111  1  0.769185  0  0.558094  0.425851  0  2.247634  0
H  H4  1  0.59263569  0.60501814  0.97963302  1  0.070203  0  0.101197  0.070425  0  1.006126  0
H  H5  1  0.68863253  0.02720015  0.46554910  1  0.138113  0  0.12036  0.097026  0  1.032347  0
H  H6  1  0.40491668  0.77428831  0.19824663  1  0.122348  0  0.111658  0.130661  0  0.983134  0
H  H7  1  0.35796277  0.16306100  0.14728112  1  0.094784  0  0.10828  0.126843  0  1.007724  0
H  H8  1  0.52848636  0.80746265  0.52734648  1  0.174359  0  0.12674  0.078213  0  1.038826  0
H  H9  1  0.02551672  0.96065883  0.70997490  1  0.14032  0  0.123694  0.101631  0  1.022403  0
H  H10  1  0.56735043  0.01017837  0.91409238  1  0.069192  0  0.102188  0.072087  0  1.002142  0
H  H11  1  0.21119614  0.33705380  0.85283341  1  0.088517  0  0.108074  0.126746  0  1.007988  0
H  H12  1  0.00133321  0.69264297  0.47287577  1  0.179336  0  0.126819  0.078619  0  1.03858  0
H  H13  1  0.53946245  0.94670343  0.31848337  1  0.123396  0  0.098976  0.104119  0  1.049432  0
H  H14  1  0.34215036  0.33481767  0.26437041  1  0.089871  0  0.102211  0.106212  0  1.033984  0
H  H15  1  0.77879822  0.44660012  0.31857823  1  0.127737  0  0.099035  0.10414  0  1.050135  0
H  H16  1  0.46053711  0.05329728  0.68151490  1  0.123408  0  0.098981  0.104139  0  1.049459  0
H  H17  1  0.99867396  0.30735579  0.52712676  1  0.179304  0  0.126809  0.07861  0  1.038626  0
H  H18  1  0.43264535  0.98982423  0.08590538  1  0.069183  0  0.102208  0.072076  0  1.002128  0
H  H19  1  0.07813655  0.16533573  0.73578466  1  0.109311  0  0.102225  0.106644  0  1.033912  0
H  H20  1  0.38685515  0.10493608  0.97951801  1  0.079176  0  0.101116  0.070321  0  1.006031  0
H  H21  1  0.68460833  0.46066874  0.70957051  1  0.173266  0  0.123732  0.101768  0  1.022824  0
H  H22  1  0.61314140  0.89506554  0.02048262  1  0.07938  0  0.101147  0.070355  0  1.005997  0
H  H23  1  0.22310509  0.47251834  0.53453846  1  0.134579  0  0.119999  0.096176  0  1.031806  0
H  H24  1  0.31136706  0.97280338  0.53444922  1  0.138022  0  0.120359  0.097011  0  1.03235  0
H  H25  1  0.77689523  0.52748431  0.46545526  1  0.134573  0  0.120027  0.096196  0  1.031822  0
H  H26  1  0.65318131  0.48989712  0.08602981  1  0.083067  0  0.102415  0.072145  0  1.002665  0
H  H27  1  0.59508440  0.22571146  0.80175099  1  0.122336  0  0.111661  0.130718  0  0.983046  0
H  H28  1  0.20713340  0.72571247  0.80178961  1  0.091986  0  0.111156  0.13008  0  0.981654  0
H  H29  1  0.65784617  0.66518399  0.73562702  1  0.089915  0  0.102189  0.106182  0  1.033996  0
H  H30  1  0.79286539  0.27428251  0.19821316  1  0.091754  0  0.111172  0.130102  0  0.981602  0
H  H31  1  0.40736767  0.39498064  0.02036791  1  0.070217  0  0.101189  0.070394  0  1.006156  0
H  H32  1  0.31539275  0.53932905  0.29043348  1  0.173211  0  0.123721  0.101767  0  1.022889  0
H  H33  1  0.97448741  0.03933992  0.29002783  1  0.140339  0  0.123711  0.101608  0  1.022458  0
H  H34  1  0.47151398  0.19253900  0.47265149  1  0.174344  0  0.126741  0.07823  0  1.038792  0
H  H35  1  0.22120056  0.55339585  0.68142136  1  0.127672  0  0.099007  0.104092  0  1.050181  0
H  H36  1  0.64203074  0.83694352  0.85271442  1  0.094823  0  0.108295  0.126865  0  1.007667  0
H  H37  1  0.34682357  0.51010165  0.91397155  1  0.083119  0  0.102423  0.072171  0  1.002697  0
H  H38  1  0.92186456  0.83466777  0.26421622  1  0.10932  0  0.102228  0.106648  0  1.033864  0
H  H39  1  0.78880572  0.66294876  0.14716714  1  0.08851  0  0.108085  0.126749  0  1.008024  0
C  C40  1  0.48116510  0.21218619  0.78525325  1  -0.017912  0  -0.103525  -0.196465  0  3.991512  0
C  C41  1  0.73275199  0.72486828  0.18353498  1  -0.101357  0  -0.1087  -0.221335  0  4.001104  0
C  C42  1  0.58305100  0.42760003  0.64899109  1  0.424832  0  0.055204  0.067778  0  3.843765  0
C  C43  1  0.32988523  0.43249853  0.55446775  1  0.455542  0  0.049947  0.055771  0  3.855711  0
C  C44  1  0.18204813  0.98653806  0.63400006  1  0.051088  0  0.002564  0.011934  0  3.997786  0
C  C45  1  0.44193357  0.32340303  0.25082225  1  0.015086  0  -0.084496  -0.090997  0  3.96816  0
C  C46  1  0.69551992  0.28777530  0.21481897  1  0.011194  0  -0.102901  -0.195913  0  3.989652  0
C  C47  1  0.68632531  0.38425521  0.28251335  1  -0.097481  0  -0.091186  -0.106847  0  3.985247  0
C  C48  1  0.57699617  0.20816900  0.16385688  1  0.430161  0  0.087282  0.259869  0  4.067494  0
C  C49  1  0.74164517  0.90525625  0.30035352  1  0.04068  0  -0.026148  0.029244  0  4.042969  0
C  C50  1  0.55806220  0.67659767  0.74917654  1  0.015081  0  -0.084504  -0.091008  0  3.968083  0
C  C51  1  0.22462852  0.93273692  0.55447433  1  0.452247  0  0.049271  0.055138  0  3.859944  0
C  C52  1  0.45205387  0.48638424  0.63390338  1  0.029041  0  0.003229  0.012803  0  3.993488  0
C  C53  1  0.54958402  0.77507562  0.81640075  1  -0.054516  0  -0.10854  -0.22051  0  3.998165  0
C  C54  1  0.80853255  0.82330611  0.25073651  1  -0.040085  0  -0.084346  -0.091478  0  3.970303  0
C  C55  1  0.93373661  0.07229355  0.35077453  1  0.443778  0  0.055981  0.068676  0  3.845872  0
C  C56  1  0.44152437  0.59468165  0.69953691  1  -0.023315  0  -0.026338  0.028323  0  4.043452  0
C  C57  1  0.44017434  0.45576603  0.96677987  1  0.39077  0  -0.067124  0.000927  0  3.887572  0
C  C58  1  0.94907285  0.22230341  0.48209268  1  1.013915  0  0.161418  0.199124  0  3.943958  0
C  C59  1  0.46697847  0.27754297  0.51774485  1  1.022913  0  0.161665  0.199465  0  3.941562  0
C  C60  1  0.81795372  0.01346358  0.36599941  1  0.050972  0  0.002562  0.01197  0  3.997736  0
C  C61  1  0.47325918  0.04420616  0.03317580  1  0.420705  0  -0.066654  0.001371  0  3.88726  0
C  C62  1  0.06626676  0.92770617  0.64922747  1  0.443691  0  0.055948  0.068573  0  3.845903  0
C  C63  1  0.59579926  0.88430733  0.28240161  1  -0.127159  0  -0.091202  -0.106939  0  3.983718  0
C  C64  1  0.45041021  0.22492320  0.18359758  1  -0.054516  0  -0.108577  -0.220574  0  3.998282  0
C  C65  1  0.41359476  0.29182539  0.83621491  1  0.473459  0  0.087681  0.260496  0  4.069571  0
C  C66  1  0.55847443  0.40531715  0.30046272  1  -0.023299  0  -0.026324  0.028356  0  4.043556  0
C  C67  1  0.55982979  0.54423369  0.03322181  1  0.413496  0  -0.067093  0.001044  0  3.887533  0
C  C68  1  0.52673736  0.95579548  0.96682376  1  0.389038  0  -0.066718  0.001139  0  3.887463  0
C  C69  1  0.31367346  0.61574076  0.71748624  1  -0.097421  0  -0.091138  -0.106749  0  3.985098  0
C  C70  1  0.77537259  0.06726659  0.44552548  1  0.452229  0  0.049264  0.055112  0  3.859796  0
C  C71  1  0.67011586  0.56750313  0.44552990  1  0.455627  0  0.049913  0.055691  0  3.855782  0
C  C72  1  0.05093204  0.77769630  0.51790975  1  1.01394  0  0.161509  0.199313  0  3.943737  0
C  C73  1  0.54794644  0.51361458  0.36609455  1  0.029043  0  0.003222  0.012811  0  3.993541  0
C  C74  1  0.26724909  0.27513052  0.81646477  1  -0.101339  0  -0.108661  -0.221274  0  4.001055  0
C  C75  1  0.58640708  0.70817339  0.16378558  1  0.473395  0  0.087727  0.260574  0  4.069454  0
C  C76  1  0.25835744  0.09474345  0.69964880  1  0.04067  0  -0.026106  0.029342  0  4.043046  0
C  C77  1  0.53302566  0.72245867  0.48225367  1  1.022904  0  0.161633  0.199389  0  3.941746  0
C  C78  1  0.51883673  0.78781261  0.21474618  1  -0.017831  0  -0.103502  -0.196412  0  3.991447  0
C  C79  1  0.40420183  0.11569334  0.71759923  1  -0.127176  0  -0.091204  -0.10697  0  3.983887  0
C  C80  1  0.42299961  0.79183167  0.83614405  1  0.429756  0  0.087265  0.259772  0  4.067478  0
C  C81  1  0.41694857  0.57239972  0.35100823  1  0.424844  0  0.055197  0.067725  0  3.843875  0
C  C82  1  0.30447811  0.71222158  0.78518308  1  0.011187  0  -0.102918  -0.195925  0  3.989634  0
C  C83  1  0.19146854  0.17669362  0.74926431  1  -0.04007  0  -0.084351  -0.091509  0  3.970407  0
N  N84  1  0.33708642  0.32847658  0.49741911  1  -1.240271  0  -0.368061  -0.250276  0  3.711504  0
N  N85  1  0.06535946  0.51498227  0.31327150  1  0.80907  0  0.087686  0.698465  0  4.388846  0
N  N86  1  0.16038452  0.82868936  0.49748533  1  -1.250426  0  -0.3682  -0.251194  0  3.716882  0
N  N87  1  0.00070514  0.82489651  0.59098883  1  -1.223302  0  -0.371338  -0.259282  0  3.739595  0
N  N88  1  0.75194421  0.98509101  0.68670141  1  0.80317  0  0.088592  0.700852  0  4.387536  0
N  N89  1  0.40970471  0.67521091  0.40925422  1  -1.239068  0  -0.371556  -0.259349  0  3.739953  0
N  N90  1  0.99930049  0.17510035  0.40901431  1  -1.223255  0  -0.371252  -0.259171  0  3.739515  0
N  N91  1  0.66291466  0.67152511  0.50257642  1  -1.240377  0  -0.368027  -0.250177  0  3.711617  0
N  N92  1  0.24804623  0.01490974  0.31329321  1  0.803645  0  0.088502  0.700738  0  4.387812  0
N  N93  1  0.83961963  0.17131318  0.50251639  1  -1.250463  0  -0.368172  -0.2511  0  3.716822  0
N  N94  1  0.93464238  0.48501455  0.68673536  1  0.809685  0  0.087736  0.698556  0  4.388387  0
N  N95  1  0.59029866  0.32478978  0.59074566  1  -1.239145  0  -0.371583  -0.259431  0  3.74007  0
O  O96  1  0.37289866  0.00767204  0.38610911  1  -0.548792  0  -0.185778  -0.448338  0  1.992452  0
O  O97  1  0.82717922  0.08588116  0.72180382  1  -0.565562  0  -0.216139  -0.438097  0  2.079943  0
O  O98  1  0.40447636  0.88132133  0.90337831  1  -1.081183  0  -0.175888  -0.19199  0  2.541295  0
O  O99  1  0.08231146  0.62059226  0.27497451  1  -0.555074  0  -0.201083  -0.435304  0  2.056525  0
O  O100  1  0.89427490  0.58572075  0.72180914  1  -0.566904  0  -0.215347  -0.436793  0  2.080151  0
O  O101  1  0.80729627  0.87954014  0.72504047  1  -0.551487  0  -0.20082  -0.4356  0  2.056477  0
O  O102  1  0.17281349  0.91411962  0.27818878  1  -0.565622  0  -0.21616  -0.43813  0  2.080055  0
O  O103  1  0.19268960  0.12045968  0.27495390  1  -0.551666  0  -0.200884  -0.435646  0  2.056585  0
O  O104  1  0.49926159  0.38136222  0.90344652  1  -1.079506  0  -0.175581  -0.191854  0  2.542133  0
O  O105  1  0.50074253  0.61863657  0.09655409  1  -1.079471  0  -0.175593  -0.19189  0  2.542163  0
O  O106  1  0.98678886  0.49240342  0.61398785  1  -0.549454  0  -0.185479  -0.44749  0  1.990673  0
O  O107  1  0.01321144  0.50759059  0.38601746  1  -0.548576  0  -0.185398  -0.447372  0  1.990547  0
O  O108  1  0.10572467  0.41427610  0.27819547  1  -0.56665  0  -0.215385  -0.436814  0  2.08036  0
O  O109  1  0.62709107  0.99233435  0.61388698  1  -0.548603  0  -0.185951  -0.448545  0  1.992436  0
O  O110  1  0.59552095  0.11868027  0.09662306  1  -1.081267  0  -0.175914  -0.192111  0  2.541224  0
O  O111  1  0.91768963  0.37940455  0.72503266  1  -0.55458  0  -0.201104  -0.435322  0  2.056188  0
