# generated using pymatgen
data_LaAgH8C14(NO4)2
_symmetry_space_group_name_H-M   'P 1'
_cell_length_a   9.60627193
_cell_length_b   9.39475239
_cell_length_c   22.76985067
_cell_angle_alpha   89.99943947
_cell_angle_beta   90.00150201
_cell_angle_gamma   116.31164224
_symmetry_Int_Tables_number   1
_chemical_formula_structural   LaAgH8C14(NO4)2
_chemical_formula_sum   'La4 Ag4 H32 C56 N8 O32'
_cell_volume   1842.04608628
_cell_formula_units_Z   4
loop_
 _symmetry_equiv_pos_site_id
 _symmetry_equiv_pos_as_xyz
  1  'x, y, z'
loop_
 _atom_site_type_symbol
 _atom_site_label
 _atom_site_symmetry_multiplicity
 _atom_site_fract_x
 _atom_site_fract_y
 _atom_site_fract_z
 _atom_site_occupancy
 _atom_site_pbe_bader_charge
 _atom_site_pbe_bader_spin_density
 _atom_site_pbe_cm5_charge
 _atom_site_pbe_ddec_charge
 _atom_site_pbe_ddec_spin_density
 _atom_site_pbe_ddec_sum_bond_order
 _atom_site_pbe_magmom
La  La0  1  0.36393453  0.12059108  0.01059692  1  2.250781  0  1.395932  1.865544  0  2.457746  0
La  La1  1  0.63606962  0.37940658  0.51059678  1  2.25086  0  1.395995  1.865679  0  2.457549  0
La  La2  1  0.63605594  0.87939945  0.98940564  1  2.250938  0  1.395931  1.865527  0  2.457632  0
La  La3  1  0.36394642  0.62060128  0.48940974  1  2.250954  0  1.395937  1.865481  0  2.457797  0
Ag  Ag4  1  0.34289764  0.97405827  0.34856782  1  0.56887  0  0.475834  0.338333  0  1.80442  0
Ag  Ag5  1  0.65708081  0.52594798  0.84857948  1  0.569091  0  0.475842  0.33843  0  1.804319  0
Ag  Ag6  1  0.65709581  0.02595261  0.65142157  1  0.568901  0  0.475857  0.338405  0  1.804453  0
Ag  Ag7  1  0.34289197  0.47403340  0.15143186  1  0.568915  0  0.475872  0.338297  0  1.804611  0
H  H8  1  0.62049814  0.87298874  0.33152730  1  0.115736  0  0.125903  0.102429  0  0.986486  0
H  H9  1  0.37948485  0.62701605  0.83152360  1  0.115603  0  0.125927  0.102485  0  0.986405  0
H  H10  1  0.37952657  0.12701529  0.66846385  1  0.115408  0  0.125905  0.102561  0  0.98632  0
H  H11  1  0.62048910  0.37299775  0.16847193  1  0.115599  0  0.125875  0.102479  0  0.98631  0
H  H12  1  0.76736350  0.83887990  0.24610250  1  0.088774  0  0.115055  0.123216  0  0.973586  0
H  H13  1  0.23260789  0.66110409  0.74609440  1  0.089653  0  0.115002  0.123175  0  0.973581  0
H  H14  1  0.23266155  0.16114095  0.75388820  1  0.089242  0  0.115076  0.123213  0  0.973567  0
H  H15  1  0.76736473  0.33889532  0.25389938  1  0.088914  0  0.115066  0.123192  0  0.973614  0
H  H16  1  0.70403220  0.89479548  0.14374563  1  0.157143  0  0.126045  0.132244  0  0.99582  0
H  H17  1  0.29594650  0.60518869  0.64373978  1  0.162647  0  0.125996  0.132203  0  0.995989  0
H  H18  1  0.29596787  0.10521162  0.85624639  1  0.157363  0  0.126032  0.132327  0  0.995659  0
H  H19  1  0.70403828  0.39480078  0.35625531  1  0.157281  0  0.126028  0.132216  0  0.995887  0
H  H20  1  0.37364803  0.03240969  0.22165036  1  0.135351  0  0.120093  0.092255  0  1.010494  0
H  H21  1  0.62635476  0.46761133  0.72164931  1  0.135714  0  0.120146  0.092409  0  1.01038  0
H  H22  1  0.62633362  0.96755224  0.77835044  1  0.135439  0  0.120077  0.09218  0  1.010433  0
H  H23  1  0.37363251  0.53239971  0.27835413  1  0.135241  0  0.120093  0.092239  0  1.010481  0
H  H24  1  0.77154516  0.26933758  0.84159422  1  0.093121  0  0.110418  0.072122  0  1.028412  0
H  H25  1  0.22845490  0.23067486  0.34160031  1  0.092814  0  0.110387  0.072128  0  1.028354  0
H  H26  1  0.22845407  0.73065391  0.15841098  1  0.093031  0  0.11045  0.072235  0  1.028282  0
H  H27  1  0.77153541  0.76933369  0.65839874  1  0.09301  0  0.110402  0.072128  0  1.028387  0
H  H28  1  0.98756197  0.21417589  0.87902310  1  0.122348  0  0.115732  0.129836  0  1.002827  0
H  H29  1  0.01243409  0.28582495  0.37902831  1  0.122315  0  0.115744  0.129876  0  1.002747  0
H  H30  1  0.01244461  0.78582262  0.12097507  1  0.122418  0  0.115689  0.129818  0  1.00284  0
H  H31  1  0.98755353  0.71417767  0.62097294  1  0.122403  0  0.115705  0.129811  0  1.002872  0
H  H32  1  0.20257465  0.42713744  0.93654612  1  0.136873  0  0.117885  0.122177  0  0.998802  0
H  H33  1  0.79742768  0.07286249  0.43655040  1  0.137103  0  0.117856  0.122107  0  0.998893  0
H  H34  1  0.79743918  0.57286328  0.06344722  1  0.137218  0  0.117845  0.12206  0  0.998884  0
H  H35  1  0.20256812  0.92713751  0.56345217  1  0.136923  0  0.117874  0.122138  0  0.9989  0
H  H36  1  0.95327222  0.71099567  0.92268839  1  0.137093  0  0.124835  0.104717  0  1.004897  0
H  H37  1  0.04673410  0.78900683  0.42268958  1  0.137246  0  0.124864  0.104745  0  1.004891  0
H  H38  1  0.04671599  0.28898531  0.07732032  1  0.136975  0  0.1248  0.104674  0  1.005043  0
H  H39  1  0.95328154  0.21100706  0.57731474  1  0.137133  0  0.124858  0.104731  0  1.004929  0
C  C40  1  0.59952086  0.90064501  0.28685621  1  0.501078  0  0.055241  0.096533  0  3.904864  0
C  C41  1  0.40046326  0.59935458  0.78685111  1  0.501306  0  0.055101  0.096304  0  3.904957  0
C  C42  1  0.40050336  0.09936023  0.71313976  1  0.501068  0  0.055176  0.096219  0  3.904706  0
C  C43  1  0.59950638  0.40064972  0.21314750  1  0.500694  0  0.055216  0.096337  0  3.904452  0
C  C44  1  0.67956987  0.88081929  0.23883223  1  -0.063425  0  -0.078841  -0.127994  0  3.970414  0
C  C45  1  0.32041251  0.61917156  0.73882527  1  -0.063702  0  -0.07874  -0.127896  0  3.97036  0
C  C46  1  0.32045243  0.11919322  0.76116155  1  -0.063895  0  -0.078785  -0.127801  0  3.970359  0
C  C47  1  0.67956692  0.38083368  0.26117070  1  -0.062999  0  -0.078799  -0.127886  0  3.9703  0
C  C48  1  0.64484733  0.91207089  0.18210213  1  -0.012971  0  -0.045635  -0.0323  0  3.88392  0
C  C49  1  0.35513595  0.58791587  0.68209569  1  -0.01876  0  -0.045647  -0.032274  0  3.883842  0
C  C50  1  0.35516405  0.08793590  0.81789297  1  -0.012931  0  -0.045565  -0.032311  0  3.883778  0
C  C51  1  0.64484526  0.41207491  0.31790116  1  -0.013289  0  -0.045656  -0.032285  0  3.883848  0
C  C52  1  0.53286459  0.96824750  0.17588220  1  -0.039082  0  -0.008232  -0.076426  0  3.963386  0
C  C53  1  0.46713259  0.53175926  0.67587548  1  -0.039329  0  -0.008076  -0.076255  0  3.963334  0
C  C54  1  0.46714523  0.03175813  0.82411509  1  -0.038863  0  -0.008352  -0.076724  0  3.963592  0
C  C55  1  0.53285292  0.46824101  0.32412137  1  -0.039044  0  -0.008206  -0.076505  0  3.963527  0
C  C56  1  0.46005199  0.98766379  0.22619127  1  0.455713  0  0.046102  0.047871  0  3.956917  0
C  C57  1  0.53993972  0.51234473  0.72618588  1  0.455734  0  0.045961  0.047506  0  3.957108  0
C  C58  1  0.53995073  0.01232161  0.77380910  1  0.455619  0  0.046268  0.048178  0  3.956652  0
C  C59  1  0.46003815  0.48765936  0.27381581  1  0.456325  0  0.046238  0.048073  0  3.956781  0
C  C60  1  0.48285478  0.00914163  0.11849092  1  1.562873  0  0.217196  0.590606  0  4.226365  0
C  C61  1  0.51715623  0.49087714  0.61848988  1  1.562326  0  0.217129  0.590526  0  4.226536  0
C  C62  1  0.51715057  0.99087253  0.88150681  1  1.562722  0  0.217277  0.590805  0  4.226046  0
C  C63  1  0.48283325  0.50911582  0.38151005  1  1.561903  0  0.217259  0.590741  0  4.226142  0
C  C64  1  0.86512253  0.35688205  0.86785428  1  0.395294  0  0.045854  0.083742  0  3.942695  0
C  C65  1  0.13486870  0.14311883  0.36785794  1  0.396022  0  0.04588  0.083744  0  3.942758  0
C  C66  1  0.13487925  0.64310818  0.13214564  1  0.395727  0  0.045859  0.083713  0  3.942467  0
C  C67  1  0.86511740  0.85688504  0.63213936  1  0.395754  0  0.045849  0.083661  0  3.942765  0
C  C68  1  0.98696205  0.32789449  0.88777215  1  0.04426  0  -0.076211  -0.111454  0  3.955722  0
C  C69  1  0.01303404  0.17210522  0.38777520  1  0.044468  0  -0.076295  -0.111655  0  3.955709  0
C  C70  1  0.01304555  0.67210399  0.11222251  1  0.044581  0  -0.076239  -0.111676  0  3.955695  0
C  C71  1  0.98695667  0.82789732  0.61222297  1  0.043954  0  -0.07625  -0.111548  0  3.955847  0
C  C72  1  0.10469454  0.44497702  0.92040622  1  -0.020841  0  -0.054784  -0.035493  0  3.904392  0
C  C73  1  0.89530518  0.05502165  0.42040990  1  -0.021542  0  -0.054653  -0.035217  0  3.9042  0
C  C74  1  0.89531606  0.55501658  0.07958580  1  -0.021646  0  -0.054707  -0.035193  0  3.904423  0
C  C75  1  0.10469214  0.94497710  0.57959135  1  -0.020918  0  -0.054774  -0.035432  0  3.904549  0
C  C76  1  0.09500200  0.58595312  0.93333042  1  -0.042211  0  -0.011292  -0.081164  0  3.946367  0
C  C77  1  0.90499869  0.91404241  0.43333139  1  -0.042208  0  -0.011273  -0.081202  0  3.946305  0
C  C78  1  0.90500566  0.41404777  0.06666117  1  -0.042223  0  -0.011232  -0.081088  0  3.946282  0
C  C79  1  0.09500529  0.08595497  0.56666722  1  -0.042171  0  -0.011219  -0.081007  0  3.946286  0
C  C80  1  0.96653812  0.60408554  0.91278963  1  0.460936  0  0.053151  0.072906  0  3.873349  0
C  C81  1  0.03345972  0.89591110  0.41278891  1  0.460872  0  0.053089  0.072866  0  3.87339  0
C  C82  1  0.03345734  0.39589765  0.08721206  1  0.461008  0  0.053125  0.072795  0  3.873252  0
C  C83  1  0.96654916  0.10409937  0.58721190  1  0.460807  0  0.05315  0.072876  0  3.873452  0
C  C84  1  0.22302955  0.71723572  0.96717737  1  1.616362  0  0.223966  0.616344  0  4.208577  0
C  C85  1  0.77697808  0.78276590  0.46718010  1  1.61649  0  0.223978  0.616477  0  4.208576  0
C  C86  1  0.77698428  0.28276500  0.03281729  1  1.61631  0  0.223954  0.616405  0  4.20868  0
C  C87  1  0.22302899  0.21723139  0.53282202  1  1.616483  0  0.223961  0.616447  0  4.2087  0
C  C88  1  0.47723934  0.50385214  0.03231538  1  1.614042  0  0.210991  0.484507  0  4.225894  0
C  C89  1  0.52277192  0.99616391  0.53230647  1  1.593504  0  0.210973  0.484775  0  4.225571  0
C  C90  1  0.52276395  0.49616208  0.96769245  1  1.593315  0  0.211021  0.484701  0  4.225667  0
C  C91  1  0.47723632  0.00384056  0.46768423  1  1.614603  0  0.211051  0.484654  0  4.225879  0
C  C92  1  0.99077842  0.98337176  0.03380034  1  1.617765  0  0.212294  0.483501  0  4.246622  0
C  C93  1  0.00923442  0.51661542  0.53380573  1  1.618133  0  0.21221  0.483405  0  4.246581  0
C  C94  1  0.00922762  0.01662556  0.96620750  1  1.595025  0  0.212174  0.483223  0  4.246774  0
C  C95  1  0.99077246  0.48337227  0.46621089  1  1.595152  0  0.212145  0.483193  0  4.246811  0
N  N96  1  0.48981076  0.95266500  0.28061830  1  -1.203003  0  -0.345444  -0.197115  0  3.639914  0
N  N97  1  0.51018187  0.54734273  0.78061243  1  -1.203327  0  -0.345328  -0.196978  0  3.639798  0
N  N98  1  0.51019862  0.04731902  0.71938339  1  -1.203126  0  -0.345544  -0.197177  0  3.639747  0
N  N99  1  0.48979409  0.45266862  0.21939101  1  -1.203169  0  -0.34555  -0.197116  0  3.639465  0
N  N100  1  0.85448575  0.49257628  0.87980747  1  -1.198465  0  -0.344969  -0.199529  0  3.625803  0
N  N101  1  0.14550679  0.00742586  0.37980873  1  -1.198581  0  -0.34492  -0.199471  0  3.625964  0
N  N102  1  0.14551192  0.50741405  0.12019378  1  -1.198608  0  -0.344964  -0.199422  0  3.625624  0
N  N103  1  0.85448553  0.99258024  0.62018505  1  -1.198402  0  -0.344957  -0.199466  0  3.626036  0
O  O104  1  0.51271136  0.95709437  0.07067018  1  -1.211168  0  -0.389994  -0.65228  0  2.346546  0
O  O105  1  0.48728608  0.54290434  0.57066759  1  -1.211057  0  -0.390007  -0.652226  0  2.346955  0
O  O106  1  0.48726084  0.04288343  0.92932843  1  -1.211086  0  -0.390021  -0.65236  0  2.346537  0
O  O107  1  0.51271232  0.45709680  0.42933453  1  -1.210862  0  -0.39004  -0.652347  0  2.346785  0
O  O108  1  0.40932685  0.09235780  0.12035157  1  -1.134028  0  -0.348112  -0.568567  0  2.191831  0
O  O109  1  0.59069536  0.40767390  0.62035389  1  -1.133866  0  -0.348092  -0.568523  0  2.191522  0
O  O110  1  0.59072949  0.90770906  0.87965275  1  -1.133904  0  -0.348164  -0.56858  0  2.191382  0
O  O111  1  0.40926459  0.59228380  0.37965043  1  -1.133573  0  -0.348177  -0.568585  0  2.191262  0
O  O112  1  0.19591509  0.82817057  0.98758863  1  -1.20313  0  -0.365266  -0.624445  0  2.265472  0
O  O113  1  0.80409606  0.67183833  0.48759432  1  -1.203243  0  -0.365322  -0.624567  0  2.265504  0
O  O114  1  0.80410800  0.17182990  0.01241218  1  -1.203292  0  -0.365214  -0.624447  0  2.265248  0
O  O115  1  0.19590753  0.32816507  0.51241044  1  -1.203212  0  -0.365263  -0.624505  0  2.265467  0
O  O116  1  0.34981135  0.70650888  0.97145700  1  -1.196701  0  -0.369424  -0.625205  0  2.28468  0
O  O117  1  0.65019274  0.79348205  0.47146004  1  -1.196764  0  -0.369407  -0.625283  0  2.284649  0
O  O118  1  0.65019808  0.29347754  0.02853239  1  -1.196501  0  -0.369457  -0.625282  0  2.284806  0
O  O119  1  0.34981443  0.20652004  0.52854077  1  -1.19683  0  -0.369397  -0.625298  0  2.284729  0
O  O120  1  0.38322075  0.37341971  0.05559240  1  -1.172572  0  -0.363683  -0.541413  0  2.368654  0
O  O121  1  0.61680051  0.12659347  0.55558124  1  -1.172861  0  -0.363641  -0.541559  0  2.368714  0
O  O122  1  0.61679229  0.62659304  0.94441675  1  -1.172373  0  -0.363699  -0.5415  0  2.368751  0
O  O123  1  0.38322582  0.87341412  0.44440595  1  -1.172959  0  -0.363652  -0.541377  0  2.368775  0
O  O124  1  0.53523901  0.63697405  0.05769109  1  -1.176819  0  -0.347308  -0.54824  0  2.302775  0
O  O125  1  0.46476909  0.86303388  0.55768077  1  -1.176402  0  -0.347328  -0.548359  0  2.302444  0
O  O126  1  0.46477345  0.36303512  0.94232158  1  -1.176664  0  -0.347271  -0.548253  0  2.302585  0
O  O127  1  0.53522024  0.13697711  0.44231652  1  -1.176945  0  -0.347358  -0.548344  0  2.302569  0
O  O128  1  0.11306797  0.04171536  0.06448757  1  -1.186745  0  -0.36713  -0.56244  0  2.265205  0
O  O129  1  0.88694911  0.45826677  0.56449340  1  -1.186917  0  -0.367091  -0.56241  0  2.265245  0
O  O130  1  0.88695311  0.95826233  0.93551368  1  -1.18703  0  -0.36706  -0.562306  0  2.265155  0
O  O131  1  0.11304556  0.54175369  0.43551839  1  -1.186955  0  -0.367006  -0.56224  0  2.265158  0
O  O132  1  0.85448958  0.89973473  0.05299136  1  -1.191795  0  -0.376231  -0.574891  0  2.272146  0
O  O133  1  0.14553228  0.60025597  0.55299440  1  -1.192069  0  -0.37621  -0.574826  0  2.271978  0
O  O134  1  0.14551523  0.10027824  0.94701384  1  -1.191773  0  -0.376248  -0.574853  0  2.272071  0
O  O135  1  0.85447846  0.39971960  0.44702134  1  -1.191841  0  -0.376295  -0.574892  0  2.272106  0
