# generated using pymatgen
data_ZnH18C24(N2O3)2
_symmetry_space_group_name_H-M   'P 1'
_cell_length_a   9.60058277
_cell_length_b   11.72065561
_cell_length_c   12.11334199
_cell_angle_alpha   109.51660501
_cell_angle_beta   111.68765167
_cell_angle_gamma   101.56640308
_symmetry_Int_Tables_number   1
_chemical_formula_structural   ZnH18C24(N2O3)2
_chemical_formula_sum   'Zn2 H36 C48 N8 O12'
_cell_volume   1109.12565647
_cell_formula_units_Z   2
loop_
 _symmetry_equiv_pos_site_id
 _symmetry_equiv_pos_as_xyz
  1  'x, y, z'
loop_
 _atom_site_type_symbol
 _atom_site_label
 _atom_site_symmetry_multiplicity
 _atom_site_fract_x
 _atom_site_fract_y
 _atom_site_fract_z
 _atom_site_occupancy
 _atom_site_hle17_bader_spin_density
 _atom_site_hle17_ddec_charge
 _atom_site_hle17_ddec_spin_density
 _atom_site_hle17_ddec_sum_bond_order
 _atom_site_hle17_magmom
 _atom_site_hse06_10hf_bader_spin_density
 _atom_site_hse06_10hf_ddec_charge
 _atom_site_hse06_10hf_ddec_spin_density
 _atom_site_hse06_10hf_ddec_sum_bond_order
 _atom_site_hse06_10hf_magmom
 _atom_site_hse06_bader_spin_density
 _atom_site_hse06_ddec_charge
 _atom_site_hse06_ddec_spin_density
 _atom_site_hse06_ddec_sum_bond_order
 _atom_site_hse06_magmom
 _atom_site_pbe_bader_spin_density
 _atom_site_pbe_cm5_charge
 _atom_site_pbe_ddec_charge
 _atom_site_pbe_ddec_spin_density
 _atom_site_pbe_ddec_sum_bond_order
 _atom_site_pbe_magmom
Zn  Zn0  1  0.20267798  0.53926407  0.87092388  1  0  1.089949  0  1.777289  0  0  0.905194  0  2.258107  0  0  0.95421  0  2.19622  0  0  0.688743  0.868901  0  2.30269  0
Zn  Zn1  1  0.79732316  0.46073449  0.12907654  1  0  1.090007  0  1.777179  0  0  0.905261  0  2.257991  0  0  0.954251  0  2.196089  0  0  0.688776  0.868976  0  2.302575  0
H  H2  1  0.44587037  0.08653913  0.90897120  1  0  0.103486  0  0.974879  0  0  0.113981  0  1.034522  0  0  0.115852  0  1.03668  0  0  0.100507  0.112745  0  1.033018  0
H  H3  1  0.55413859  0.91346434  0.09103146  1  0  0.103465  0  0.974812  0  0  0.113944  0  1.034484  0  0  0.11582  0  1.036638  0  0  0.100495  0.112707  0  1.033002  0
H  H4  1  0.51299663  0.23528755  0.14115736  1  0  0.116007  0  0.965345  0  0  0.116854  0  1.040508  0  0  0.12103  0  1.036458  0  0  0.105217  0.113907  0  1.043302  0
H  H5  1  0.48700629  0.76471493  0.85884409  1  0  0.115929  0  0.965319  0  0  0.116784  0  1.040487  0  0  0.120959  0  1.036438  0  0  0.105176  0.113838  0  1.043281  0
H  H6  1  0.10468926  0.96421120  0.10594783  1  0  0.100753  0  0.943744  0  0  0.110909  0  1.004704  0  0  0.113644  0  1.003494  0  0  0.104556  0.108591  0  1.006654  0
H  H7  1  0.89530661  0.03579831  0.89404583  1  0  0.100759  0  0.943517  0  0  0.110847  0  1.004575  0  0  0.113624  0  1.003316  0  0  0.104534  0.108528  0  1.006525  0
H  H8  1  0.03503175  0.81758843  0.87393519  1  0  0.114925  0  0.957878  0  0  0.123798  0  1.020442  0  0  0.126663  0  1.019712  0  0  0.103295  0.121577  0  1.021481  0
H  H9  1  0.96496793  0.18242203  0.12606069  1  0  0.114902  0  0.957862  0  0  0.123784  0  1.020423  0  0  0.126654  0  1.019689  0  0  0.103286  0.121564  0  1.02146  0
H  H10  1  0.77155916  0.41137250  0.53853952  1  0  0.125731  0  0.924207  0  0  0.135392  0  0.982453  0  0  0.139928  0  0.9783  0  0  0.11672  0.132155  0  0.985237  0
H  H11  1  0.22843683  0.58862216  0.46145810  1  0  0.125737  0  0.92419  0  0  0.135416  0  0.982419  0  0  0.139935  0  0.978292  0  0  0.116722  0.132178  0  0.985206  0
H  H12  1  0.63151281  0.56571685  0.84016119  1  0  0.109544  0  0.951972  0  0  0.117894  0  1.018524  0  0  0.121706  0  1.015351  0  0  0.108226  0.115077  0  1.020929  0
H  H13  1  0.36849123  0.43428563  0.15984058  1  0  0.109553  0  0.952019  0  0  0.117909  0  1.018561  0  0  0.121722  0  1.015388  0  0  0.108239  0.115097  0  1.020965  0
H  H14  1  0.26916785  0.30338607  0.43795044  1  0  0.105033  0  0.959936  0  0  0.107582  0  1.034248  0  0  0.112386  0  1.029274  0  0  0.105433  0.104166  0  1.037772  0
H  H15  1  0.73083082  0.69661929  0.56205248  1  0  0.10508  0  0.959888  0  0  0.107575  0  1.034249  0  0  0.112382  0  1.029267  0  0  0.105414  0.104158  0  1.037772  0
H  H16  1  0.53750414  0.61502669  0.04566740  1  0  0.091059  0  0.947258  0  0  0.098602  0  1.014185  0  0  0.101298  0  1.011273  0  0  0.121297  0.096544  0  1.016464  0
H  H17  1  0.46249699  0.38497189  0.95433219  1  0  0.091065  0  0.947221  0  0  0.098592  0  1.014169  0  0  0.101287  0  1.011258  0  0  0.121298  0.096537  0  1.016451  0
H  H18  1  0.74832295  0.77536564  0.27370236  1  0  0.116958  0  0.968096  0  0  0.1249  0  1.031143  0  0  0.127581  0  1.031518  0  0  0.113641  0.123102  0  1.030921  0
H  H19  1  0.25167689  0.22462993  0.72629913  1  0  0.116956  0  0.968065  0  0  0.124892  0  1.031121  0  0  0.127574  0  1.031497  0  0  0.113658  0.123096  0  1.0309  0
H  H20  1  0.39285320  0.93489555  0.31930074  1  0  0.112326  0  0.947215  0  0  0.121186  0  1.008928  0  0  0.123621  0  1.00984  0  0  0.109313  0.11945  0  1.008603  0
H  H21  1  0.60714508  0.06509901  0.68070161  1  0  0.112312  0  0.947173  0  0  0.121173  0  1.008911  0  0  0.123605  0  1.009825  0  0  0.109301  0.119446  0  1.008567  0
H  H22  1  0.18982393  0.75678235  0.09170142  1  0  0.090929  0  0.966155  0  0  0.096959  0  1.033133  0  0  0.100022  0  1.030134  0  0  0.116877  0.094783  0  1.035131  0
H  H23  1  0.81017567  0.24321520  0.90829986  1  0  0.09091  0  0.966217  0  0  0.096944  0  1.033183  0  0  0.100007  0  1.030184  0  0  0.116876  0.094767  0  1.035181  0
H  H24  1  0.04302204  0.02492314  0.72511984  1  0  0.073426  0  0.956305  0  0  0.081365  0  1.0223  0  0  0.083579  0  1.021198  0  0  0.112401  0.079952  0  1.022836  0
H  H25  1  0.95698023  0.97508027  0.27488340  1  0  0.073416  0  0.956302  0  0  0.081362  0  1.022289  0  0  0.083573  0  1.021187  0  0  0.112417  0.079951  0  1.022825  0
H  H26  1  0.83170308  0.84433167  0.50376812  1  0  0.122047  0  0.970319  0  0  0.129184  0  1.035079  0  0  0.132985  0  1.033126  0  0  0.109235  0.126312  0  1.03666  0
H  H27  1  0.16830523  0.15566786  0.49623465  1  0  0.121997  0  0.970385  0  0  0.129162  0  1.035124  0  0  0.132961  0  1.033171  0  0  0.109213  0.126291  0  1.036706  0
H  H28  1  0.64223492  0.13033770  0.42408771  1  0  0.115082  0  0.960496  0  0  0.120852  0  1.027673  0  0  0.123921  0  1.026683  0  0  0.108816  0.118609  0  1.028431  0
H  H29  1  0.35775420  0.86965387  0.57591352  1  0  0.115061  0  0.960465  0  0  0.120851  0  1.027638  0  0  0.123914  0  1.026652  0  0  0.108775  0.118612  0  1.028394  0
H  H30  1  0.86938343  0.29919063  0.64465534  1  0  0.075237  0  0.976067  0  0  0.081313  0  1.046571  0  0  0.083091  0  1.045349  0  0  0.11365  0.079931  0  1.047461  0
H  H31  1  0.13060586  0.70080399  0.35534204  1  0  0.075254  0  0.976064  0  0  0.081325  0  1.04656  0  0  0.0831  0  1.045338  0  0  0.113643  0.079942  0  1.047453  0
H  H32  1  0.11741133  0.78709212  0.71030267  1  0  0.397866  0  0.799712  0  0  0.387917  0  0.845676  0  0  0.395155  0  0.83842  0  0  0.344563  0.382854  0  0.850729  0
H  H33  1  0.88259444  0.21291438  0.28969602  1  0  0.39786  0  0.799808  0  0  0.387911  0  0.845765  0  0  0.395151  0  0.838511  0  0  0.344582  0.382847  0  0.850818  0
H  H34  1  0.09531935  0.29584957  0.82726199  1  0  0.376134  0  0.954028  0  0  0.333327  0  1.035941  0  0  0.345357  0  1.019288  0  0  0.277218  0.324727  0  1.047893  0
H  H35  1  0.90468064  0.70414907  0.17273483  1  0  0.37614  0  0.954022  0  0  0.333355  0  1.0359  0  0  0.345383  0  1.01925  0  0  0.277243  0.324757  0  1.04785  0
H  H36  1  0.14202896  0.39062406  0.97921909  1  0  0.428031  0  0.879667  0  0  0.396156  0  0.944595  0  0  0.407823  0  0.927779  0  0  0.286267  0.387864  0  0.956534  0
H  H37  1  0.85797663  0.60937461  0.02077848  1  0  0.428019  0  0.879678  0  0  0.396126  0  0.944629  0  0  0.407791  0  0.927813  0  0  0.286264  0.387833  0  0.956572  0
C  C38  1  0.23753929  0.94395719  0.87818218  1  0  0.330458  0  3.82545  0  0  0.322918  0  4.089797  0  0  0.334883  0  4.106218  0  0  0.083872  0.313651  0  4.079541  0
C  C39  1  0.76246155  0.05604836  0.12181397  1  0  0.330495  0  3.825188  0  0  0.32289  0  4.089637  0  0  0.334859  0  4.106052  0  0  0.083891  0.313625  0  4.079381  0
C  C40  1  0.37182084  0.06205174  0.95344672  1  0  -0.178555  0  3.749731  0  0  -0.193935  0  3.993509  0  0  -0.201742  0  4.016844  0  0  -0.102853  -0.188088  0  3.977938  0
C  C41  1  0.62818116  0.93795370  0.04655385  1  0  -0.17856  0  3.749642  0  0  -0.193908  0  3.993448  0  0  -0.201716  0  4.016779  0  0  -0.102889  -0.188071  0  3.977879  0
C  C42  1  0.41019278  0.14301858  0.08214777  1  0  -0.089007  0  3.701334  0  0  -0.109008  0  3.947792  0  0  -0.107951  0  3.967312  0  0  -0.079497  -0.109065  0  3.933901  0
C  C43  1  0.58981258  0.85698686  0.91785375  1  0  -0.088941  0  3.701391  0  0  -0.108943  0  3.947845  0  0  -0.107888  0  3.967362  0  0  -0.079471  -0.108993  0  3.933937  0
C  C44  1  0.31458366  0.10655483  0.13851527  1  0  0.128492  0  3.8349  0  0  0.131097  0  4.089279  0  0  0.127078  0  4.115528  0  0  0.071852  0.134211  0  4.070741  0
C  C45  1  0.68541340  0.89344966  0.86148276  1  0  0.128403  0  3.835043  0  0  0.130998  0  4.089427  0  0  0.12698  0  4.115681  0  0  0.071911  0.134114  0  4.070887  0
C  C46  1  0.17873578  0.99001009  0.06172322  1  0  -0.091905  0  3.757514  0  0  -0.112245  0  4.00879  0  0  -0.112286  0  4.031537  0  0  -0.081413  -0.112208  0  3.994819  0
C  C47  1  0.82125947  0.00999542  0.93827300  1  0  -0.091703  0  3.7575  0  0  -0.111971  0  4.008761  0  0  -0.112041  0  4.031496  0  0  -0.081376  -0.111933  0  3.994787  0
C  C48  1  0.14007331  0.90833184  0.93244163  1  0  -0.226979  0  3.785979  0  0  -0.247065  0  4.042363  0  0  -0.255418  0  4.064996  0  0  -0.112941  -0.241837  0  4.028513  0
C  C49  1  0.85992460  0.09167470  0.06755323  1  0  -0.22702  0  3.786006  0  0  -0.247121  0  4.042444  0  0  -0.255481  0  4.065086  0  0  -0.112913  -0.241887  0  4.028577  0
C  C50  1  0.51603036  0.34499228  0.47458240  1  0  0.145368  0  3.829352  0  0  0.156892  0  4.079794  0  0  0.154673  0  4.104742  0  0  0.083505  0.15825  0  4.062881  0
C  C51  1  0.48396875  0.65500922  0.52541764  1  0  0.145322  0  3.829388  0  0  0.156911  0  4.079742  0  0  0.154692  0  4.104683  0  0  0.083502  0.158276  0  4.062814  0
C  C52  1  0.67854432  0.41660180  0.56899585  1  0  -0.107765  0  3.662944  0  0  -0.144044  0  3.911976  0  0  -0.142642  0  3.930323  0  0  -0.068236  -0.14401  0  3.898985  0
C  C53  1  0.32145593  0.58339483  0.43100282  1  0  -0.107739  0  3.662888  0  0  -0.144056  0  3.911909  0  0  -0.142642  0  3.930256  0  0  -0.068205  -0.144023  0  3.898918  0
C  C54  1  0.72155590  0.49291697  0.70195046  1  0  -0.080422  0  3.770766  0  0  -0.053345  0  4.007846  0  0  -0.064195  0  4.03311  0  0  -0.024618  -0.04671  0  3.991193  0
C  C55  1  0.27844590  0.50708066  0.29804817  1  0  -0.080407  0  3.770872  0  0  -0.053335  0  4.007956  0  0  -0.064188  0  4.033224  0  0  -0.024643  -0.046699  0  3.991309  0
C  C56  1  0.60046618  0.50407528  0.73811583  1  0  -0.049608  0  3.661028  0  0  -0.092092  0  3.913097  0  0  -0.088536  0  3.932583  0  0  -0.074559  -0.094157  0  3.900513  0
C  C57  1  0.39953115  0.49592231  0.26188318  1  0  -0.049605  0  3.661103  0  0  -0.092103  0  3.913167  0  0  -0.088549  0  3.932657  0  0  -0.074538  -0.094172  0  3.900588  0
C  C58  1  0.43745428  0.43644294  0.64294048  1  0  -0.062223  0  3.758317  0  0  -0.033951  0  3.990485  0  0  -0.044056  0  4.015242  0  0  -0.017766  -0.027318  0  3.973621  0
C  C59  1  0.56254483  0.56355856  0.35705957  1  0  -0.062212  0  3.758261  0  0  -0.033917  0  3.990399  0  0  -0.044019  0  4.015159  0  0  -0.017769  -0.027284  0  3.973536  0
C  C60  1  0.39557735  0.35589707  0.51194482  1  0  -0.110127  0  3.684966  0  0  -0.145188  0  3.931424  0  0  -0.143794  0  3.951099  0  0  -0.072458  -0.146162  0  3.918359  0
C  C61  1  0.60442021  0.64410341  0.48805609  1  0  -0.110176  0  3.685061  0  0  -0.145219  0  3.931512  0  0  -0.143824  0  3.95119  0  0  -0.072454  -0.146191  0  3.918443  0
C  C62  1  0.30597421  0.44574700  0.68098422  1  0  0.638699  0  3.930566  0  0  0.590538  0  4.22207  0  0  0.624156  0  4.215803  0  0  0.200058  0.567955  0  4.224703  0
C  C63  1  0.69403165  0.55425444  0.31902017  1  0  0.638559  0  3.930755  0  0  0.590404  0  4.22226  0  0  0.624019  0  4.215998  0  0  0.20003  0.567818  0  4.224888  0
C  C64  1  0.89600685  0.55559562  0.80437263  1  0  0.648044  0  3.912724  0  0  0.597365  0  4.204533  0  0  0.63168  0  4.197306  0  0  0.209567  0.574231  0  4.208253  0
C  C65  1  0.10399672  0.44440110  0.19562370  1  0  0.64803  0  3.912632  0  0  0.597367  0  4.204439  0  0  0.631682  0  4.19721  0  0  0.209571  0.574231  0  4.208161  0
C  C66  1  0.50878939  0.68482478  0.11062063  1  0  0.146824  0  3.674462  0  0  0.114202  0  3.924682  0  0  0.121702  0  3.942721  0  0  0.054606  0.109148  0  3.912629  0
C  C67  1  0.49121131  0.31517281  0.88937932  1  0  0.146845  0  3.674382  0  0  0.114235  0  3.924613  0  0  0.121736  0  3.942651  0  0  0.054617  0.109174  0  3.912567  0
C  C68  1  0.62674195  0.77594655  0.23756150  1  0  -0.146652  0  3.681252  0  0  -0.16611  0  3.92888  0  0  -0.174119  0  3.950354  0  0  -0.074667  -0.160957  0  3.914705  0
C  C69  1  0.37325788  0.22404905  0.76243916  1  0  -0.146661  0  3.681329  0  0  -0.16611  0  3.928934  0  0  -0.174122  0  3.950413  0  0  -0.074709  -0.16096  0  3.914762  0
C  C70  1  0.58883813  0.86987202  0.31580072  1  0  0.107153  0  3.741731  0  0  0.11948  0  3.970012  0  0  0.124559  0  3.989856  0  0  0.020201  0.116152  0  3.956489  0
C  C71  1  0.41116240  0.13012252  0.68420308  1  0  0.10715  0  3.742011  0  0  0.11948  0  3.97028  0  0  0.124557  0  3.990126  0  0  0.020266  0.116148  0  3.956763  0
C  C72  1  0.42945370  0.86466501  0.26275559  1  0  -0.152117  0  3.685841  0  0  -0.169945  0  3.932512  0  0  -0.177816  0  3.954234  0  0  -0.077126  -0.165029  0  3.918114  0
C  C73  1  0.57054615  0.13533052  0.73724754  1  0  -0.152072  0  3.685951  0  0  -0.169934  0  3.932638  0  0  -0.177802  0  3.954358  0  0  -0.077167  -0.165022  0  3.918248  0
C  C74  1  0.31610848  0.76753748  0.13636229  1  0  0.130756  0  3.701057  0  0  0.097697  0  3.953114  0  0  0.105058  0  3.971311  0  0  0.048868  0.093367  0  3.940265  0
C  C75  1  0.68389066  0.23245911  0.86363770  1  0  0.130711  0  3.701209  0  0  0.097669  0  3.953256  0  0  0.105034  0  3.971447  0  0  0.048861  0.093337  0  3.940405  0
C  C76  1  0.95119187  0.04375146  0.65548466  1  0  0.123502  0  3.726219  0  0  0.092012  0  3.985014  0  0  0.098387  0  4.002069  0  0  0.045264  0.087658  0  3.973775  0
C  C77  1  0.04880794  0.95624901  0.34451770  1  0  0.123503  0  3.726219  0  0  0.092019  0  3.985044  0  0  0.098396  0  4.002094  0  0  0.04524  0.087663  0  3.973809  0
C  C78  1  0.83263134  0.94337883  0.53278469  1  0  -0.155992  0  3.687495  0  0  -0.176366  0  3.939162  0  0  -0.18375  0  3.960367  0  0  -0.079718  -0.171349  0  3.925038  0
C  C79  1  0.16737251  0.05662066  0.46721846  1  0  -0.155847  0  3.68756  0  0  -0.176241  0  3.939189  0  0  -0.183626  0  3.960393  0  0  -0.079626  -0.171225  0  3.925067  0
C  C80  1  0.71563307  0.97233897  0.44771862  1  0  0.091148  0  3.757316  0  0  0.102459  0  3.98788  0  0  0.105539  0  4.009458  0  0  0.012947  0.100658  0  3.972451  0
C  C81  1  0.28436679  0.02765656  0.55228451  1  0  0.091014  0  3.757534  0  0  0.102326  0  3.98811  0  0  0.105406  0  4.009692  0  0  0.012842  0.100528  0  3.972679  0
C  C82  1  0.72604220  0.10202489  0.48887555  1  0  -0.149023  0  3.687396  0  0  -0.167086  0  3.934788  0  0  -0.173284  0  3.954982  0  0  -0.077923  -0.16292  0  3.920836  0
C  C83  1  0.27395207  0.89797059  0.51112765  1  0  -0.148859  0  3.687449  0  0  -0.166945  0  3.934806  0  0  -0.173137  0  3.955004  0  0  -0.077804  -0.162783  0  3.920846  0
C  C84  1  0.85216663  0.19643645  0.61140591  1  0  0.135417  0  3.707022  0  0  0.105251  0  3.95775  0  0  0.111108  0  3.976299  0  0  0.050253  0.10128  0  3.945664  0
C  C85  1  0.14782806  0.80356006  0.38859612  1  0  0.135307  0  3.707007  0  0  0.105172  0  3.957738  0  0  0.111028  0  3.976287  0  0  0.05024  0.101201  0  3.945654  0
N  N86  1  0.34566263  0.17988304  0.26918912  1  0  -0.168322  0  3.026232  0  0  -0.147665  0  3.318665  0  0  -0.144397  0  3.325484  0  0  -0.158647  -0.149631  0  3.313854  0
N  N87  1  0.65433127  0.82011954  0.73080571  1  0  -0.168318  0  3.026212  0  0  -0.147661  0  3.318647  0  0  -0.144398  0  3.325469  0  0  -0.158639  -0.149629  0  3.313838  0
N  N88  1  0.48635429  0.26737305  0.34470857  1  0  -0.158683  0  3.012548  0  0  -0.139362  0  3.302227  0  0  -0.138849  0  3.30924  0  0  -0.157193  -0.139671  0  3.297635  0
N  N89  1  0.51364302  0.73262945  0.65529049  1  0  -0.158687  0  3.012565  0  0  -0.139375  0  3.302226  0  0  -0.138861  0  3.309237  0  0  -0.157234  -0.139689  0  3.297635  0
N  N90  1  0.35568760  0.68036762  0.06050921  1  0  -0.347738  0  3.298497  0  0  -0.260008  0  3.576468  0  0  -0.280275  0  3.590376  0  0  -0.332029  -0.246033  0  3.566656  0
N  N91  1  0.64431198  0.31962996  0.93949043  1  0  -0.347734  0  3.298544  0  0  -0.260003  0  3.576493  0  0  -0.280264  0  3.590389  0  0  -0.332005  -0.246031  0  3.566683  0
N  N92  1  0.96165625  0.16811562  0.69420251  1  0  -0.312825  0  3.199424  0  0  -0.243671  0  3.438747  0  0  -0.2582  0  3.454365  0  0  -0.309501  -0.234344  0  3.429063  0
N  N93  1  0.03833974  0.83188391  0.30579680  1  0  -0.312853  0  3.199378  0  0  -0.24376  0  3.438742  0  0  -0.258283  0  3.454355  0  0  -0.30954  -0.234433  0  3.42906  0
O  O94  1  0.20785192  0.86946069  0.75208178  1  0  -0.494371  0  2.076027  0  0  -0.448321  0  2.272083  0  0  -0.466729  0  2.265341  0  0  -0.33637  -0.435422  0  2.276568  0
O  O95  1  0.79215522  0.13054381  0.24791826  1  0  -0.494402  0  2.07604  0  0  -0.448325  0  2.272124  0  0  -0.466738  0  2.265377  0  0  -0.336405  -0.435427  0  2.276611  0
O  O96  1  0.99722031  0.54219619  0.75849145  1  0  -0.658325  0  2.05711  0  0  -0.586492  0  2.336083  0  0  -0.613742  0  2.315951  0  0  -0.332232  -0.567412  0  2.349968  0
O  O97  1  0.00277749  0.45779263  0.24150465  1  0  -0.658384  0  2.056936  0  0  -0.586561  0  2.335926  0  0  -0.6138  0  2.315777  0  0  -0.332287  -0.56748  0  2.349812  0
O  O98  1  0.93871047  0.61365174  0.92646775  1  0  -0.622927  0  1.990079  0  0  -0.565423  0  2.210385  0  0  -0.589462  0  2.19918  0  0  -0.31014  -0.548411  0  2.217294  0
O  O99  1  0.06129018  0.38634595  0.07352810  1  0  -0.622896  0  1.990117  0  0  -0.565417  0  2.210422  0  0  -0.589454  0  2.199218  0  0  -0.310126  -0.548408  0  2.21734  0
O  O100  1  0.16435902  0.36665266  0.60324251  1  0  -0.607181  0  1.876055  0  0  -0.565071  0  2.087181  0  0  -0.585896  0  2.078226  0  0  -0.331279  -0.549071  0  2.091874  0
O  O101  1  0.83564578  0.63334865  0.39676649  1  0  -0.607154  0  1.876056  0  0  -0.565036  0  2.087154  0  0  -0.585872  0  2.078214  0  0  -0.331256  -0.549036  0  2.091848  0
O  O102  1  0.35498117  0.53719735  0.79936068  1  0  -0.673956  0  2.066907  0  0  -0.59602  0  2.346177  0  0  -0.626397  0  2.330629  0  0  -0.336105  -0.574417  0  2.356449  0
O  O103  1  0.64502087  0.46280801  0.20064317  1  0  -0.673868  0  2.066988  0  0  -0.595943  0  2.346257  0  0  -0.626311  0  2.330706  0  0  -0.336094  -0.574344  0  2.35653  0
O  O104  1  0.17532474  0.38375330  0.90822820  1  0  -0.845671  0  1.949913  0  0  -0.770831  0  2.188069  0  0  -0.795105  0  2.149063  0  0  -0.579698  -0.753551  0  2.215485  0
O  O105  1  0.82467973  0.61624534  0.09176988  1  0  -0.845674  0  1.949919  0  0  -0.770834  0  2.188095  0  0  -0.795099  0  2.149086  0  0  -0.579731  -0.753558  0  2.215507  0
