# generated using pymatgen
data_ZnH4C8(N2O)2
_symmetry_space_group_name_H-M   'P 1'
_cell_length_a   4.84557528
_cell_length_b   8.20707563
_cell_length_c   10.57622724
_cell_angle_alpha   89.99979163
_cell_angle_beta   97.17570104
_cell_angle_gamma   89.99998440
_symmetry_Int_Tables_number   1
_chemical_formula_structural   ZnH4C8(N2O)2
_chemical_formula_sum   'Zn2 H8 C16 N8 O4'
_cell_volume   417.30123241
_cell_formula_units_Z   2
loop_
 _symmetry_equiv_pos_site_id
 _symmetry_equiv_pos_as_xyz
  1  'x, y, z'
loop_
 _atom_site_type_symbol
 _atom_site_label
 _atom_site_symmetry_multiplicity
 _atom_site_fract_x
 _atom_site_fract_y
 _atom_site_fract_z
 _atom_site_occupancy
 _atom_site_hle17_bader_spin_density
 _atom_site_hle17_ddec_charge
 _atom_site_hle17_ddec_spin_density
 _atom_site_hle17_ddec_sum_bond_order
 _atom_site_hle17_magmom
 _atom_site_hse06_10hf_bader_spin_density
 _atom_site_hse06_10hf_ddec_charge
 _atom_site_hse06_10hf_ddec_spin_density
 _atom_site_hse06_10hf_ddec_sum_bond_order
 _atom_site_hse06_10hf_magmom
 _atom_site_hse06_bader_spin_density
 _atom_site_hse06_ddec_charge
 _atom_site_hse06_ddec_spin_density
 _atom_site_hse06_ddec_sum_bond_order
 _atom_site_hse06_magmom
 _atom_site_pbe_bader_spin_density
 _atom_site_pbe_cm5_charge
 _atom_site_pbe_ddec_charge
 _atom_site_pbe_ddec_spin_density
 _atom_site_pbe_ddec_sum_bond_order
 _atom_site_pbe_magmom
Zn  Zn0  1  0.81643593  0.18777932  0.54006982  1  0  1.029282  0  1.8797  0  0  0.838124  0  2.369572  0  0  0.882652  0  2.315012  0  0  0.736877  0.806631  0  2.407485  0
Zn  Zn1  1  0.81643993  0.81222216  0.04007188  1  0  1.029295  0  1.879684  0  0  0.838135  0  2.369569  0  0  0.882669  0  2.315012  0  0  0.736886  0.806644  0  2.407481  0
H  H2  1  0.62116751  0.38612210  0.32779755  1  0  0.092672  0  0.967965  0  0  0.098183  0  1.036862  0  0  0.101217  0  1.034842  0  0  0.103726  0.096008  0  1.03835  0
H  H3  1  0.62117548  0.61388049  0.82779586  1  0  0.092645  0  0.967972  0  0  0.098182  0  1.036846  0  0  0.101217  0  1.034823  0  0  0.103717  0.096007  0  1.038333  0
H  H4  1  0.84725649  0.62406695  0.24694259  1  0  0.098059  0  0.966086  0  0  0.109032  0  1.027834  0  0  0.112201  0  1.026343  0  0  0.103221  0.106783  0  1.028943  0
H  H5  1  0.84725227  0.37593233  0.74693998  1  0  0.098054  0  0.966099  0  0  0.109014  0  1.027876  0  0  0.112181  0  1.026392  0  0  0.103219  0.106765  0  1.028981  0
H  H6  1  0.41461092  0.93767874  0.48713226  1  0  0.099275  0  0.965654  0  0  0.105047  0  1.039173  0  0  0.108699  0  1.036537  0  0  0.100263  0.102402  0  1.04117  0
H  H7  1  0.41461747  0.06232070  0.98713111  1  0  0.099263  0  0.965742  0  0  0.105042  0  1.039254  0  0  0.108693  0  1.036625  0  0  0.100254  0.102396  0  1.041255  0
H  H8  1  0.20124802  0.69645987  0.57250684  1  0  0.106554  0  0.974269  0  0  0.108067  0  1.048341  0  0  0.111772  0  1.045803  0  0  0.105468  0.105406  0  1.050187  0
H  H9  1  0.20125673  0.30354155  0.07250681  1  0  0.106582  0  0.97432  0  0  0.108102  0  1.048383  0  0  0.111803  0  1.045843  0  0  0.105486  0.105442  0  1.050228  0
C  C10  1  0.40446415  0.52447681  0.45946475  1  0  -0.06207  0  3.746048  0  0  -0.037392  0  3.972308  0  0  -0.045548  0  3.995083  0  0  -0.012098  -0.032075  0  3.957007  0
C  C11  1  0.40446604  0.47552520  0.95946219  1  0  -0.062118  0  3.746195  0  0  -0.037414  0  3.972431  0  0  -0.04557  0  3.995207  0  0  -0.012107  -0.032088  0  3.957116  0
C  C12  1  0.57906444  0.50635851  0.36439641  1  0  -0.045933  0  3.722515  0  0  -0.068074  0  3.969352  0  0  -0.067253  0  3.988568  0  0  -0.079205  -0.068555  0  3.95643  0
C  C13  1  0.57906427  0.49364513  0.86439558  1  0  -0.04587  0  3.722494  0  0  -0.068032  0  3.969317  0  0  -0.067211  0  3.988534  0  0  -0.079157  -0.068514  0  3.95639  0
C  C14  1  0.70133647  0.64201107  0.31614499  1  0  -0.078428  0  3.698491  0  0  -0.099814  0  3.9441  0  0  -0.102782  0  3.964572  0  0  -0.080602  -0.097841  0  3.930345  0
C  C15  1  0.70133223  0.35799034  0.81614054  1  0  -0.078471  0  3.69844  0  0  -0.099868  0  3.944064  0  0  -0.102837  0  3.964538  0  0  -0.080677  -0.097894  0  3.930311  0
C  C16  1  0.64866405  0.79879032  0.36115182  1  0  0.003634  0  3.781788  0  0  0.021974  0  4.019056  0  0  0.020471  0  4.040973  0  0  -0.002341  0.022988  0  4.004153  0
C  C17  1  0.64866417  0.20121089  0.86114899  1  0  0.003539  0  3.781847  0  0  0.021907  0  4.019132  0  0  0.020402  0  4.04105  0  0  -0.002371  0.022921  0  4.004228  0
C  C18  1  0.46605788  0.81711334  0.45352999  1  0  -0.087764  0  3.703555  0  0  -0.114586  0  3.961092  0  0  -0.117247  0  3.981595  0  0  -0.08669  -0.112757  0  3.947167  0
C  C19  1  0.46606009  0.18288382  0.95352638  1  0  -0.08765  0  3.703527  0  0  -0.114464  0  3.961031  0  0  -0.117128  0  3.981535  0  0  -0.086639  -0.112637  0  3.94711  0
C  C20  1  0.34397796  0.68082717  0.50172636  1  0  -0.05822  0  3.711295  0  0  -0.081068  0  3.960925  0  0  -0.081387  0  3.981662  0  0  -0.080847  -0.080753  0  3.946929  0
C  C21  1  0.34397832  0.31917334  0.00172584  1  0  -0.058289  0  3.71126  0  0  -0.081171  0  3.960925  0  0  -0.08148  0  3.981651  0  0  -0.080859  -0.080856  0  3.946928  0
C  C22  1  0.28136222  0.37820900  0.51413316  1  0  0.679525  0  3.851823  0  0  0.623078  0  4.145109  0  0  0.659273  0  4.135759  0  0  0.229399  0.598411  0  4.150752  0
C  C23  1  0.28136639  0.62179268  0.01413294  1  0  0.679601  0  3.851935  0  0  0.623139  0  4.145218  0  0  0.659333  0  4.135866  0  0  0.229434  0.598474  0  4.150861  0
C  C24  1  0.78835976  0.93889149  0.31228705  1  0  0.324713  0  3.75386  0  0  0.291063  0  4.013212  0  0  0.305432  0  4.029104  0  0  0.23616  0.281622  0  4.002088  0
C  C25  1  0.78835797  0.06110749  0.81228357  1  0  0.324855  0  3.753749  0  0  0.291133  0  4.013193  0  0  0.305502  0  4.029083  0  0  0.236211  0.281689  0  4.00207  0
N  N26  1  0.87796192  0.94691410  0.19664546  1  0  -0.361551  0  3.229093  0  0  -0.287872  0  3.53774  0  0  -0.307505  0  3.546987  0  0  -0.244555  -0.274543  0  3.531515  0
N  N27  1  0.87796015  0.05308419  0.69664295  1  0  -0.361535  0  3.229065  0  0  -0.28782  0  3.537712  0  0  -0.307454  0  3.546956  0  0  -0.244537  -0.274492  0  3.531485  0
N  N28  1  0.00404032  0.09307534  0.18827314  1  0  -0.054287  0  2.96504  0  0  -0.045104  0  3.254835  0  0  -0.043909  0  3.266621  0  0  -0.076997  -0.045795  0  3.24703  0
N  N29  1  0.00403758  0.90692070  0.68827195  1  0  -0.054428  0  2.965111  0  0  -0.045255  0  3.254911  0  0  -0.044061  0  3.266698  0  0  -0.077061  -0.045948  0  3.247105  0
N  N30  1  0.99289960  0.17272580  0.29339326  1  0  -0.058523  0  2.944678  0  0  -0.052844  0  3.234731  0  0  -0.051902  0  3.246741  0  0  -0.084752  -0.05333  0  3.226528  0
N  N31  1  0.99289905  0.82727324  0.79339335  1  0  -0.058379  0  2.944658  0  0  -0.052683  0  3.234686  0  0  -0.051735  0  3.246696  0  0  -0.084684  -0.053169  0  3.226481  0
N  N32  1  0.85941528  0.07980824  0.37339271  1  0  -0.357026  0  3.186743  0  0  -0.28334  0  3.491958  0  0  -0.302963  0  3.501964  0  0  -0.239175  -0.269769  0  3.484923  0
N  N33  1  0.85941460  0.92019410  0.87339159  1  0  -0.357097  0  3.186736  0  0  -0.283406  0  3.492001  0  0  -0.303033  0  3.502009  0  0  -0.23918  -0.269834  0  3.484966  0
O  O34  1  0.41484479  0.24391387  0.52819606  1  0  -0.653114  0  2.112015  0  0  -0.587175  0  2.408511  0  0  -0.614837  0  2.391119  0  0  -0.321127  -0.567761  0  2.41996  0
O  O35  1  0.41484679  0.75608651  0.02819912  1  0  -0.653152  0  2.111989  0  0  -0.587201  0  2.408461  0  0  -0.614871  0  2.391095  0  0  -0.321146  -0.567786  0  2.41991  0
O  O36  1  0.03484737  0.39190811  0.54412650  1  0  -0.616807  0  2.08046  0  0  -0.537313  0  2.345676  0  0  -0.56639  0  2.332616  0  0  -0.306753  -0.517082  0  2.353927  0
O  O37  1  0.03485156  0.60809225  0.04412632  1  0  -0.616836  0  2.080595  0  0  -0.537328  0  2.345797  0  0  -0.566413  0  2.33276  0  0  -0.306761  -0.517109  0  2.354071  0
