# generated using pymatgen
data_ZnH10C19NO8
_symmetry_space_group_name_H-M   'P 1'
_cell_length_a   11.79174008
_cell_length_b   13.20355791
_cell_length_c   15.13126097
_cell_angle_alpha   93.25375360
_cell_angle_beta   82.32979631
_cell_angle_gamma   87.41770453
_symmetry_Int_Tables_number   1
_chemical_formula_structural   ZnH10C19NO8
_chemical_formula_sum   'Zn2 H20 C38 N2 O16'
_cell_volume   2327.68849130
_cell_formula_units_Z   2
loop_
 _symmetry_equiv_pos_site_id
 _symmetry_equiv_pos_as_xyz
  1  'x, y, z'
loop_
 _atom_site_type_symbol
 _atom_site_label
 _atom_site_symmetry_multiplicity
 _atom_site_fract_x
 _atom_site_fract_y
 _atom_site_fract_z
 _atom_site_occupancy
 _atom_site_pbe_bader_charge
 _atom_site_pbe_bader_spin_density
 _atom_site_pbe_cm5_charge
 _atom_site_pbe_ddec_charge
 _atom_site_pbe_ddec_spin_density
 _atom_site_pbe_ddec_sum_bond_order
 _atom_site_pbe_magmom
Zn  Zn0  1  0.62064666  0.50317967  0.48174574  1  1.297709  0  0.675103  0.843732  0  2.380376  0
Zn  Zn1  1  0.37936730  0.49679784  0.51824196  1  1.296322  0  0.67514  0.843617  0  2.380313  0
H  H2  1  0.37281434  0.42653265  0.77328100  1  0.111865  0  0.104971  0.115515  0  1.006059  0
H  H3  1  0.62717943  0.57349674  0.22671937  1  0.112128  0  0.104982  0.115541  0  1.006039  0
H  H4  1  0.72310415  0.67048792  0.92900322  1  -0.009829  0  0.097093  0.083326  0  1.029752  0
H  H5  1  0.27686491  0.32957635  0.07100251  1  -0.008065  0  0.096991  0.083252  0  1.029505  0
H  H6  1  0.71199928  0.65161613  0.08875883  1  0.021537  0  0.102331  0.104259  0  0.989717  0
H  H7  1  0.28798911  0.34845500  0.91124291  1  0.025799  0  0.102354  0.104412  0  0.989646  0
H  H8  1  0.72532971  0.17572128  0.47023099  1  0.076163  0  0.096732  0.101395  0  1.010718  0
H  H9  1  0.27466669  0.82425288  0.52977322  1  0.075859  0  0.096573  0.101257  0  1.010536  0
H  H10  1  0.89736046  0.33785452  0.63989187  1  0.621846  0  0.35523  0.392029  0  0.848743  0
H  H11  1  0.10266376  0.66210372  0.36008534  1  0.621381  0  0.355345  0.392032  0  0.8487  0
H  H12  1  0.70395351  0.67476977  0.81160362  1  0.583307  0  0.326412  0.351691  0  0.909826  0
H  H13  1  0.29605925  0.32525604  0.18837733  1  0.583659  0  0.326401  0.351782  0  0.909768  0
H  H14  1  0.35353148  0.25780092  0.54556752  1  0.637703  0  0.29575  0.34568  0  0.999097  0
H  H15  1  0.64647487  0.74217140  0.45444579  1  0.637409  0  0.295641  0.345622  0  0.999071  0
H  H16  1  0.26256986  0.01403082  0.54629152  1  0.080824  0  0.097106  0.107009  0  1.014001  0
H  H17  1  0.73741830  0.98594804  0.45371872  1  0.080706  0  0.097118  0.106966  0  1.013824  0
H  H18  1  0.79422872  0.41305874  0.56402171  1  0.117651  0  0.12581  0.097659  0  1.017937  0
H  H19  1  0.20578729  0.58687552  0.43594566  1  0.118013  0  0.125767  0.097532  0  1.017941  0
H  H20  1  0.84481386  0.67782593  0.32856129  1  0.635323  0  0.352066  0.386903  0  0.851984  0
H  H21  1  0.15519538  0.32217624  0.67145778  1  0.635366  0  0.351975  0.386771  0  0.85206  0
C  C22  1  0.46207860  0.69974038  0.48793375  1  1.481583  0  0.210854  0.607495  0  4.148968  0
C  C23  1  0.53791051  0.30023913  0.51207313  1  1.482437  0  0.210797  0.607331  0  4.149237  0
C  C24  1  0.65435236  0.61105665  0.05020767  1  0.013776  0  -0.091953  -0.119584  0  4.027095  0
C  C25  1  0.34562466  0.38901034  0.94978758  1  0.009044  0  -0.092091  -0.119864  0  4.027364  0
C  C26  1  0.54221960  0.18794276  0.50655827  1  -0.013855  0  -0.048574  -0.199202  0  4.010164  0
C  C27  1  0.45779150  0.81203780  0.49345089  1  -0.013384  0  -0.048476  -0.199462  0  4.010157  0
C  C28  1  0.34440930  0.97178704  0.52719991  1  -0.001173  0  -0.111302  -0.154839  0  4.046479  0
C  C29  1  0.65557872  0.02819622  0.47282632  1  -0.001472  0  -0.111491  -0.154928  0  4.046849  0
C  C30  1  0.35115917  0.86751503  0.51774132  1  -0.060255  0  -0.099185  -0.088292  0  4.07014  0
C  C31  1  0.64884665  0.13246562  0.48227157  1  -0.06004  0  -0.099248  -0.088445  0  4.07078  0
C  C32  1  0.55875090  0.86503465  0.47780922  1  0.571681  0  0.097791  0.28134  0  4.007223  0
C  C33  1  0.44125110  0.13494199  0.52221908  1  0.571785  0  0.097979  0.281187  0  4.00664  0
C  C34  1  0.55431377  0.97363040  0.48745611  1  -0.044965  0  -0.016191  -0.010337  0  3.987984  0
C  C35  1  0.44568553  0.02634561  0.51257636  1  0.014699  0  -0.016251  -0.010246  0  3.987667  0
C  C36  1  0.02655193  0.41063808  0.58668850  1  0.519835  0  0.08224  0.116763  0  4.099197  0
C  C37  1  0.97346505  0.58932259  0.41329461  1  0.519671  0  0.082038  0.116359  0  4.098689  0
C  C38  1  0.14343471  0.42237781  0.58714556  1  1.136623  0  0.202738  0.326592  0  4.080174  0
C  C39  1  0.85658759  0.57759061  0.41284062  1  1.13607  0  0.202827  0.326939  0  4.079551  0
C  C40  1  0.15013838  0.53909883  0.47715012  1  0.54543  0  0.05523  0.060996  0  3.917099  0
C  C41  1  0.84987147  0.46086131  0.52284081  1  0.54543  0  0.055479  0.061083  0  3.917432  0
C  C42  1  0.03236588  0.53351721  0.47171540  1  0.006507  0  -0.010564  -0.051755  0  4.084209  0
C  C43  1  0.96765081  0.46644081  0.52827826  1  0.055751  0  -0.010745  -0.052011  0  4.084792  0
C  C44  1  0.48785168  0.47131186  0.33150901  1  1.587016  0  0.218915  0.624383  0  4.138836  0
C  C45  1  0.51215445  0.52868292  0.66847573  1  1.587422  0  0.219113  0.624586  0  4.138105  0
C  C46  1  0.43184057  0.46459140  0.81212018  1  0.012943  0  -0.083919  -0.134403  0  3.970988  0
C  C47  1  0.56814572  0.53543706  0.18787745  1  0.012772  0  -0.083881  -0.134427  0  3.971269  0
C  C48  1  0.51211309  0.52490459  0.76725920  1  0.007997  0  -0.02723  -0.131619  0  3.972176  0
C  C49  1  0.48787896  0.47512624  0.23273935  1  0.008053  0  -0.027295  -0.131509  0  3.972573  0
C  C50  1  0.58837314  0.57703330  0.81519308  1  0.453575  0  0.087595  0.24471  0  4.02822  0
C  C51  1  0.41161876  0.42301198  0.18480648  1  0.454578  0  0.087605  0.244584  0  4.028824  0
C  C52  1  0.58452296  0.56859973  0.90856712  1  -0.00451  0  -0.027634  -0.061675  0  4.059507  0
C  C53  1  0.41545498  0.43146577  0.09142868  1  -0.004932  0  -0.027654  -0.061701  0  4.060403  0
C  C54  1  0.50278325  0.50520634  0.95311143  1  -0.005711  0  0.004756  0.028151  0  3.913419  0
C  C55  1  0.49719086  0.49485874  0.04689458  1  -0.059885  0  0.004403  0.028193  0  3.914033  0
C  C56  1  0.42606901  0.45229786  0.90381278  1  0.005636  0  -0.021245  0.051763  0  4.082837  0
C  C57  1  0.57391940  0.54774889  0.09618642  1  0.004214  0  -0.020984  0.05178  0  4.082791  0
C  C58  1  0.65947302  0.62119554  0.96038368  1  -0.023602  0  -0.108436  -0.151953  0  4.084572  0
C  C59  1  0.34049598  0.37887668  0.03961165  1  -0.025566  0  -0.108114  -0.151756  0  4.084392  0
N  N60  1  0.79758179  0.51505841  0.46712977  1  -1.241766  0  -0.3123  -0.248276  0  3.500913  0
N  N61  1  0.20243004  0.48490652  0.53286707  1  -1.242397  0  -0.312113  -0.247999  0  3.500751  0
O  O62  1  0.56309321  0.65382384  0.47201369  1  -1.164465  0  -0.315923  -0.564951  0  2.383122  0
O  O63  1  0.43691177  0.34615395  0.52798397  1  -1.164361  0  -0.315882  -0.564767  0  2.383533  0
O  O64  1  0.36980015  0.65335607  0.49944121  1  -1.171825  0  -0.318568  -0.54676  0  2.30841  0
O  O65  1  0.63019772  0.34662692  0.50055514  1  -1.172168  0  -0.318603  -0.546885  0  2.308266  0
O  O66  1  0.58649596  0.46985333  0.35716775  1  -1.15618  0  -0.317923  -0.542557  0  2.33597  0
O  O67  1  0.41351636  0.53014631  0.64282389  1  -1.156044  0  -0.317901  -0.542535  0  2.336376  0
O  O68  1  0.39221787  0.47446336  0.38189484  1  -1.16086  0  -0.315655  -0.545893  0  2.33391  0
O  O69  1  0.60781022  0.52552103  0.61809060  1  -1.16116  0  -0.315845  -0.546074  0  2.333192  0
O  O70  1  0.97836626  0.34414846  0.64461971  1  -1.121791  0  -0.338437  -0.428683  0  2.283655  0
O  O71  1  0.02165462  0.65581469  0.35536779  1  -1.121351  0  -0.338611  -0.428721  0  2.283502  0
O  O72  1  0.66338637  0.63745136  0.76929732  1  -1.095211  0  -0.348258  -0.419286  0  2.287664  0
O  O73  1  0.33661464  0.36257992  0.23069062  1  -1.096041  0  -0.348213  -0.419337  0  2.287719  0
O  O74  1  0.33755814  0.18289491  0.54628880  1  -1.162496  0  -0.361654  -0.461255  0  2.30655  0
O  O75  1  0.66244215  0.81709390  0.45374058  1  -1.162664  0  -0.361419  -0.461113  0  2.306507  0
O  O76  1  0.79587352  0.62856498  0.35829902  1  -1.113414  0  -0.313819  -0.409672  0  2.28904  0
O  O77  1  0.20413857  0.37142837  0.64170705  1  -1.113657  0  -0.313664  -0.409445  0  2.289273  0
