# generated using pymatgen
data_Zn4H30C36Br2O13
_symmetry_space_group_name_H-M   'P 1'
_cell_length_a   17.80640586
_cell_length_b   18.61387899
_cell_length_c   23.41418942
_cell_angle_alpha   66.64979139
_cell_angle_beta   69.57729269
_cell_angle_gamma   90.24639904
_symmetry_Int_Tables_number   1
_chemical_formula_structural   Zn4H30C36Br2O13
_chemical_formula_sum   'Zn8 H60 C72 Br4 O26'
_cell_volume   6584.75332585
_cell_formula_units_Z   2
loop_
 _symmetry_equiv_pos_site_id
 _symmetry_equiv_pos_as_xyz
  1  'x, y, z'
loop_
 _atom_site_type_symbol
 _atom_site_label
 _atom_site_symmetry_multiplicity
 _atom_site_fract_x
 _atom_site_fract_y
 _atom_site_fract_z
 _atom_site_occupancy
 _atom_site_pbe_bader_charge
 _atom_site_pbe_bader_spin_density
 _atom_site_pbe_cm5_charge
 _atom_site_pbe_ddec_charge
 _atom_site_pbe_ddec_spin_density
 _atom_site_pbe_ddec_sum_bond_order
 _atom_site_pbe_magmom
Zn  Zn0  1  0.11850916  0.53016874  0.94370692  1  1.311332  0  0.66875  0.958866  0  2.397303  0
Zn  Zn1  1  0.97029304  0.55749775  0.05292619  1  1.313749  0  0.667486  0.957605  0  2.381081  0
Zn  Zn2  1  0.97810606  0.38881849  0.04777208  1  1.310509  0  0.66854  0.954328  0  2.418426  0
Zn  Zn3  1  0.94074037  0.53201479  0.93263559  1  1.323269  0  0.668802  0.968316  0  2.323828  0
Zn  Zn4  1  0.38552920  0.97970752  0.04764105  1  1.314412  0  0.669042  0.960929  0  2.387053  0
Zn  Zn5  1  0.52878995  0.11566057  0.93857327  1  1.310959  0  0.66869  0.955332  0  2.414924  0
Zn  Zn6  1  0.52570027  0.94653848  0.93546770  1  1.312271  0  0.668871  0.960263  0  2.382  0
Zn  Zn7  1  0.56594304  0.97039168  0.05185931  1  1.313264  0  0.669273  0.969215  0  2.325264  0
H  H8  1  0.49189548  0.87375022  0.25817991  1  0.11327  0  0.113603  0.121423  0  0.987302  0
H  H9  1  0.43491544  0.81079993  0.38378213  1  0.071623  0  0.110807  0.116095  0  0.984456  0
H  H10  1  0.19355040  0.80295469  0.38208993  1  0.097257  0  0.107672  0.123267  0  0.993134  0
H  H11  1  0.32174834  0.69902243  0.60693328  1  0.104989  0  0.107378  0.123101  0  0.993308  0
H  H12  1  0.02277310  0.63370580  0.72695741  1  0.121648  0  0.112632  0.120575  0  0.990463  0
H  H13  1  0.08217307  0.69692491  0.60142011  1  0.051076  0  0.109686  0.114278  0  0.984662  0
H  H14  1  0.62264629  0.02592119  0.73123747  1  0.103687  0  0.113341  0.121429  0  0.988126  0
H  H15  1  0.69116200  0.08489556  0.60597626  1  0.059609  0  0.11051  0.114623  0  0.984391  0
H  H16  1  0.70638559  0.31737358  0.60383412  1  0.133004  0  0.10814  0.124353  0  0.991363  0
H  H17  1  0.80399622  0.18918579  0.38909062  1  0.093507  0  0.107854  0.123924  0  0.992285  0
H  H18  1  0.87300994  0.48036979  0.25427066  1  0.120919  0  0.113138  0.121435  0  0.989722  0
H  H19  1  0.81469508  0.42533365  0.37969819  1  0.070558  0  0.110683  0.115336  0  0.984992  0
H  H20  1  0.20008799  0.30251001  0.90972542  1  0.021857  0  0.091555  0.086439  0  0.97907  0
H  H21  1  0.12831451  0.23028553  0.98632764  1  0.033897  0  0.092638  0.091987  0  0.985215  0
H  H22  1  0.21798696  0.13915648  0.98306947  1  0.030619  0  0.09308  0.093024  0  0.984923  0
H  H23  1  0.28967290  0.21230146  0.90703408  1  0.050189  0  0.091726  0.086982  0  0.977219  0
H  H24  1  0.21689106  0.12518504  0.09449397  1  0.030225  0  0.092749  0.092823  0  0.987558  0
H  H25  1  0.28885058  0.18672839  0.09836173  1  0.001659  0  0.090327  0.084983  0  0.978061  0
H  H26  1  0.12857654  0.21788269  0.09740359  1  0.044512  0  0.093288  0.09484  0  0.988373  0
H  H27  1  0.20199985  0.27955652  0.09964159  1  0.003371  0  0.090269  0.084893  0  0.978668  0
H  H28  1  0.30488995  0.39303062  0.91238495  1  0.027814  0  0.089675  0.088714  0  0.987097  0
H  H29  1  0.30518369  0.38467267  0.98973920  1  0.034001  0  0.089432  0.086745  0  0.98172  0
H  H30  1  0.39339563  0.29215852  0.98931867  1  0.036661  0  0.08938  0.087031  0  0.983889  0
H  H31  1  0.39453115  0.30185936  0.91130245  1  0.043242  0  0.090078  0.089242  0  0.984901  0
H  H32  1  0.89057347  0.80059504  0.90572579  1  0.033372  0  0.090917  0.085361  0  0.979916  0
H  H33  1  0.88667415  0.78763674  0.98584843  1  0.026708  0  0.091824  0.090348  0  0.984785  0
H  H34  1  0.79699669  0.87893358  0.98727736  1  0.028209  0  0.092456  0.091421  0  0.984682  0
H  H35  1  0.80108425  0.89097363  0.90730777  1  0.021438  0  0.091396  0.086373  0  0.978355  0
H  H36  1  0.69344677  0.77435785  0.09257879  1  0.036308  0  0.092557  0.092981  0  0.986215  0
H  H37  1  0.62197113  0.71218284  0.08885350  1  0.014113  0  0.090347  0.084578  0  0.979389  0
H  H38  1  0.78162376  0.68149156  0.09139747  1  0.060342  0  0.092935  0.094617  0  0.988588  0
H  H39  1  0.71043501  0.62098973  0.08582580  1  0.005665  0  0.089495  0.083577  0  0.979603  0
H  H40  1  0.78995135  0.71209413  0.89736193  1  0.043037  0  0.090024  0.089193  0  0.985206  0
H  H41  1  0.71693694  0.63813679  0.97062736  1  0.002951  0  0.0899  0.087516  0  0.981453  0
H  H42  1  0.62658411  0.72836528  0.97371099  1  0.000323  0  0.089537  0.086725  0  0.98225  0
H  H43  1  0.69907609  0.80196002  0.89992799  1  0.034426  0  0.090082  0.088985  0  0.985386  0
H  H44  1  0.16161067  0.79360027  0.93798060  1  0.00111  0  0.090815  0.085546  0  0.978615  0
H  H45  1  0.24503085  0.75667946  0.89727960  1  0.03838  0  0.093046  0.093318  0  0.986512  0
H  H46  1  0.33394927  0.85244260  0.89380937  1  0.046529  0  0.093224  0.092906  0  0.985163  0
H  H47  1  0.25000986  0.88834138  0.93509776  1  0.026302  0  0.091187  0.085765  0  0.978283  0
H  H48  1  0.39337947  0.74381763  0.96084957  1  0.047481  0  0.092695  0.093475  0  0.986298  0
H  H49  1  0.35235311  0.70299640  0.04969200  1  -0.002021  0  0.090015  0.084471  0  0.979805  0
H  H50  1  0.30370084  0.64775177  0.96497171  1  0.060666  0  0.093162  0.095677  0  0.984557  0
H  H51  1  0.26278934  0.60818035  0.05377868  1  0.016172  0  0.089998  0.084339  0  0.979426  0
H  H52  1  0.10112156  0.73571788  0.06623676  1  0.023995  0  0.090153  0.089314  0  0.984715  0
H  H53  1  0.14231337  0.65994138  0.11332987  1  0.026178  0  0.089539  0.087315  0  0.980709  0
H  H54  1  0.23187150  0.75508700  0.10995893  1  0.030878  0  0.088479  0.085474  0  0.988454  0
H  H55  1  0.19051776  0.83069323  0.06301905  1  0.047586  0  0.089669  0.088668  0  0.984448  0
H  H56  1  0.89854522  0.26923905  0.92847618  1  0.022999  0  0.091682  0.086999  0  0.979132  0
H  H57  1  0.85315574  0.34399719  0.88375104  1  0.026853  0  0.093085  0.091464  0  0.980759  0
H  H58  1  0.76804251  0.24595219  0.88617487  1  0.048609  0  0.092967  0.092901  0  0.987478  0
H  H59  1  0.81192831  0.17172856  0.93300251  1  0.021203  0  0.090811  0.085643  0  0.977987  0
H  H60  1  0.64835387  0.29644544  0.94543911  1  0.032533  0  0.092876  0.094609  0  0.986108  0
H  H61  1  0.60478062  0.25573749  0.03420785  1  0.017938  0  0.089834  0.084161  0  0.979849  0
H  H62  1  0.73420864  0.39237639  0.94531793  1  0.056833  0  0.091983  0.092555  0  0.986425  0
H  H63  1  0.69161088  0.34946508  0.03413228  1  0.018131  0  0.089448  0.084155  0  0.97932  0
H  H64  1  0.83863172  0.20662050  0.05636086  1  0.01652  0  0.090435  0.09124  0  0.987423  0
H  H65  1  0.75596932  0.24027102  0.10023114  1  -0.003156  0  0.088756  0.085356  0  0.984586  0
H  H66  1  0.66557782  0.14711543  0.10225952  1  0.010314  0  0.089086  0.086477  0  0.981972  0
H  H67  1  0.74855979  0.11099875  0.06136871  1  0.03595  0  0.089801  0.088443  0  0.984609  0
C  C68  1  0.14013884  0.63473529  0.00472729  1  1.546597  0  0.234905  0.603707  0  4.093755  0
C  C69  1  0.90947694  0.40794851  0.17516837  1  1.604771  0  0.223443  0.610588  0  4.167203  0
C  C70  1  0.14645778  0.36462371  0.00002035  1  1.530996  0  0.234735  0.602179  0  4.097923  0
C  C71  1  0.86001586  0.36733971  0.98920389  1  1.533546  0  0.23286  0.600114  0  4.096252  0
C  C72  1  0.09416037  0.59095903  0.81347561  1  1.623759  0  0.224613  0.613643  0  4.162903  0
C  C73  1  0.86158756  0.64316609  0.98912225  1  1.535557  0  0.236069  0.606521  0  4.090803  0
C  C74  1  0.36235517  0.14379193  0.99585534  1  1.543003  0  0.235468  0.604179  0  4.089021  0
C  C75  1  0.58195204  0.09470839  0.81320294  1  1.606097  0  0.223482  0.610359  0  4.166208  0
C  C76  1  0.35686268  0.86391379  0.99758323  1  1.54075  0  0.235902  0.606994  0  4.08525  0
C  C77  1  0.64277944  0.86306036  0.99301412  1  1.554552  0  0.236134  0.607022  0  4.088013  0
C  C78  1  0.41744202  0.91607387  0.17367784  1  1.581371  0  0.22355  0.612095  0  4.163331  0
C  C79  1  0.64641697  0.13800785  0.99281426  1  1.559184  0  0.235006  0.604256  0  4.090047  0
C  C80  1  0.37656160  0.87557104  0.24884917  1  0.02861  0  -0.019436  -0.086205  0  3.924773  0
C  C81  1  0.42643097  0.85820476  0.28636366  1  -0.001093  0  -0.076575  -0.072611  0  3.984109  0
C  C82  1  0.39489936  0.82318796  0.35609091  1  -0.053749  0  -0.08341  -0.13564  0  3.955519  0
C  C83  1  0.30993094  0.80335974  0.39169582  1  0.150696  0  0.006152  0.161699  0  4.111344  0
C  C84  1  0.25912213  0.81898378  0.35507523  1  0.131032  0  -0.087974  -0.182752  0  3.924205  0
C  C85  1  0.29166648  0.85433754  0.28497894  1  -0.196541  0  -0.003756  0.11071  0  3.930544  0
C  C86  1  0.27482258  0.76801875  0.46285298  1  -0.364268  0  -0.036757  -0.096368  0  4.09408  0
C  C87  1  0.24261139  0.73754501  0.52420820  1  -0.027124  0  -0.037093  -0.096471  0  4.091703  0
C  C88  1  0.20645225  0.70205369  0.59533705  1  0.065506  0  0.007429  0.163445  0  4.110276  0
C  C89  1  0.25599929  0.68460593  0.63303023  1  0.114338  0  -0.087776  -0.182726  0  3.923652  0
C  C90  1  0.22212406  0.64931733  0.70315498  1  -0.196664  0  -0.003138  0.112908  0  3.925279  0
C  C91  1  0.13691713  0.62989851  0.73834828  1  0.054338  0  -0.020729  -0.091201  0  3.92259  0
C  C92  1  0.08839225  0.64836710  0.69962597  1  -0.020088  0  -0.076349  -0.070452  0  3.983485  0
C  C93  1  0.12127519  0.68347889  0.62993020  1  -0.013205  0  -0.083465  -0.134767  0  3.954529  0
C  C94  1  0.62407374  0.13692026  0.73840277  1  -0.014734  0  -0.01951  -0.0871  0  3.929431  0
C  C95  1  0.64094370  0.08986296  0.70224577  1  0.092752  0  -0.076091  -0.071691  0  3.984329  0
C  C96  1  0.67912673  0.12240792  0.63287693  1  -0.079134  0  -0.082859  -0.132389  0  3.954404  0
C  C97  1  0.70271933  0.20541455  0.59634631  1  0.119755  0  0.007729  0.162827  0  4.116993  0
C  C98  1  0.68755147  0.25338880  0.63159479  1  -0.016894  0  -0.088361  -0.184314  0  3.924531  0
C  C99  1  0.64870023  0.21981522  0.70143316  1  -0.077337  0  -0.003637  0.112001  0  3.930508  0
C  C100  1  0.74046510  0.24030090  0.52540604  1  -0.168841  0  -0.036972  -0.096598  0  4.100786  0
C  C101  1  0.77149864  0.26998969  0.46403329  1  -0.203546  0  -0.037171  -0.097115  0  4.098143  0
C  C102  1  0.80570999  0.30324028  0.39298218  1  0.105798  0  0.007504  0.164325  0  4.113888  0
C  C103  1  0.81947191  0.25319365  0.35963635  1  0.113125  0  -0.088154  -0.183937  0  3.922972  0
C  C104  1  0.85219931  0.28463386  0.28959660  1  -0.179232  0  -0.003508  0.111602  0  3.930278  0
C  C105  1  0.87246797  0.36753003  0.25044639  1  -0.017266  0  -0.019124  -0.087522  0  3.926932  0
C  C106  1  0.85772898  0.41654213  0.28484326  1  -0.05448  0  -0.076922  -0.071591  0  3.984822  0
C  C107  1  0.82539185  0.38614021  0.35436104  1  -0.001294  0  -0.083469  -0.135383  0  3.957893  0
C  C108  1  0.19179288  0.26033382  0.96108089  1  -0.030709  0  -0.155777  -0.170434  0  3.85451  0
C  C109  1  0.25116234  0.19998528  0.95928201  1  -0.041449  0  -0.156249  -0.169788  0  3.853661  0
C  C110  1  0.30590096  0.20470191  0.99688917  1  0.037147  0  -0.016071  0.021619  0  3.811269  0
C  C111  1  0.25066996  0.18578560  0.07041724  1  0.009517  0  -0.156511  -0.170233  0  3.856432  0
C  C112  1  0.19229555  0.24710989  0.07177910  1  -0.015457  0  -0.157753  -0.17225  0  3.859412  0
C  C113  1  0.20665736  0.30699595  0.99922682  1  0.064056  0  -0.016151  0.022028  0  3.812513  0
C  C114  1  0.29502989  0.34999670  0.96372344  1  -0.026906  0  -0.164264  -0.176263  0  3.887696  0
C  C115  1  0.35386906  0.28922470  0.96300031  1  -0.035346  0  -0.165012  -0.178055  0  3.888907  0
C  C116  1  0.84904001  0.78620221  0.95768224  1  -0.033949  0  -0.155106  -0.168194  0  3.849994  0
C  C117  1  0.78939128  0.84664056  0.95874519  1  -0.015385  0  -0.15585  -0.170364  0  3.853306  0
C  C118  1  0.70067463  0.80297833  0.99151891  1  0.052841  0  -0.01651  0.020475  0  3.808463  0
C  C119  1  0.68551793  0.74234089  0.06397524  1  -0.017835  0  -0.159896  -0.173349  0  3.863305  0
C  C120  1  0.74445085  0.68151755  0.06260266  1  -0.039937  0  -0.15878  -0.172192  0  3.859924  0
C  C121  1  0.80126825  0.70114008  0.98933627  1  0.045006  0  -0.016497  0.02107  0  3.808515  0
C  C122  1  0.74970195  0.69876762  0.94931599  1  -0.002168  0  -0.165614  -0.179818  0  3.89055  0
C  C123  1  0.68982597  0.75862288  0.95101954  1  -0.004066  0  -0.164833  -0.175734  0  3.884741  0
C  C124  1  0.21810379  0.77139873  0.94037441  1  -0.006695  0  -0.155733  -0.170975  0  3.853546  0
C  C125  1  0.27709389  0.83457768  0.93823511  1  -0.036309  0  -0.155085  -0.166874  0  3.856024  0
C  C126  1  0.29707067  0.80111620  0.00225398  1  0.047989  0  -0.017231  0.01865  0  3.810968  0
C  C127  1  0.33637343  0.72652826  0.00505664  1  -0.020459  0  -0.158398  -0.171996  0  3.858584  0
C  C128  1  0.27690712  0.66321973  0.00763292  1  -0.037897  0  -0.157877  -0.172358  0  3.85752  0
C  C129  1  0.19714272  0.69466079  0.00610238  1  0.043557  0  -0.015945  0.020765  0  3.812604  0
C  C130  1  0.15845682  0.71453424  0.06665518  1  -0.015729  0  -0.164439  -0.176548  0  3.885943  0
C  C131  1  0.21777824  0.77752361  0.06445880  1  -0.038  0  -0.165326  -0.177704  0  3.886575  0
C  C132  1  0.84007542  0.28866599  0.92934800  1  -0.028032  0  -0.154669  -0.169059  0  3.849748  0
C  C133  1  0.78269165  0.22407217  0.93137010  1  -0.036458  0  -0.155907  -0.169549  0  3.849719  0
C  C134  1  0.70269654  0.19861206  0.99418243  1  0.054094  0  -0.016372  0.020712  0  3.813663  0
C  C135  1  0.66280108  0.27312561  0.99071507  1  -0.027348  0  -0.158046  -0.172276  0  3.853291  0
C  C136  1  0.72040083  0.33627576  0.99028700  1  -0.036996  0  -0.158328  -0.171623  0  3.862783  0
C  C137  1  0.80036002  0.30582452  0.99193412  1  0.04654  0  -0.016401  0.022122  0  3.804997  0
C  C138  1  0.78150409  0.22797400  0.05563876  1  0.017754  0  -0.166112  -0.179306  0  3.885798  0
C  C139  1  0.72237045  0.16519729  0.05767533  1  -0.004728  0  -0.165181  -0.176629  0  3.895196  0
Br  Br140  1  0.21364035  0.86705531  0.24444029  1  -0.035527  0  0.020071  -0.061513  0  1.383453  0
Br  Br141  1  0.29987139  0.63231087  0.74423838  1  -0.039799  0  0.016244  -0.064413  0  1.387367  0
Br  Br142  1  0.63578035  0.29346497  0.74066669  1  -0.040356  0  0.018798  -0.06268  0  1.382335  0
Br  Br143  1  0.86371256  0.20776231  0.25374885  1  -0.036095  0  0.018386  -0.061897  0  1.381593  0
O  O144  1  0.00036726  0.50369517  0.99310235  1  -1.242214  0  -0.572652  -1.025976  0  2.540067  0
O  O145  1  0.16979485  0.61057558  0.95866302  1  -1.174602  0  -0.316138  -0.551318  0  2.351889  0
O  O146  1  0.91199012  0.48310364  0.14828525  1  -1.167682  0  -0.316503  -0.546447  0  2.324586  0
O  O147  1  0.07146941  0.33396278  0.03343739  1  -1.180461  0  -0.315872  -0.548105  0  2.353147  0
O  O148  1  0.06739576  0.61436868  0.04812965  1  -1.183768  0  -0.314454  -0.548763  0  2.348577  0
O  O149  1  0.17450906  0.43861894  0.96674495  1  -1.168933  0  -0.313497  -0.546162  0  2.356866  0
O  O150  1  0.93645262  0.36538484  0.14384572  1  -1.175664  0  -0.314774  -0.543263  0  2.430991  0
O  O151  1  0.89720421  0.34108944  0.02910735  1  -1.166759  0  -0.312535  -0.545618  0  2.391083  0
O  O152  1  0.01656048  0.58369432  0.83695090  1  -1.202972  0  -0.316414  -0.548637  0  2.310235  0
O  O153  1  0.86970614  0.43936287  0.94686924  1  -1.177241  0  -0.315944  -0.55152  0  2.316015  0
O  O154  1  0.13800852  0.56769351  0.84793170  1  -1.175454  0  -0.316887  -0.547018  0  2.442951  0
O  O155  1  0.89977291  0.63448817  0.02801747  1  -1.181072  0  -0.320258  -0.557493  0  2.350389  0
O  O156  1  0.86993646  0.60849710  0.95050108  1  -1.17773  0  -0.31259  -0.547914  0  2.340498  0
O  O157  1  0.50261875  0.00107944  0.99442951  1  -1.230157  0  -0.575302  -1.028399  0  2.545234  0
O  O158  1  0.32927990  0.07090263  0.02412090  1  -1.1761  0  -0.317732  -0.551878  0  2.331711  0
O  O159  1  0.54934566  0.13541762  0.84508523  1  -1.173882  0  -0.318835  -0.549245  0  2.416721  0
O  O160  1  0.42656252  0.88389470  0.94955469  1  -1.184667  0  -0.3186  -0.556978  0  2.340535  0
O  O161  1  0.43855130  0.16963007  0.96684267  1  -1.182085  0  -0.312493  -0.543347  0  2.359693  0
O  O162  1  0.33291581  0.89212275  0.04126933  1  -1.167173  0  -0.312641  -0.546598  0  2.358288  0
O  O163  1  0.58128011  0.01979872  0.83943689  1  -1.179462  0  -0.315097  -0.543608  0  2.316958  0
O  O164  1  0.60095174  0.87323348  0.95683029  1  -1.194929  0  -0.313985  -0.548375  0  2.365371  0
O  O165  1  0.49319891  0.91349385  0.14830870  1  -1.173821  0  -0.314824  -0.545137  0  2.300604  0
O  O166  1  0.64077435  0.89866793  0.03024004  1  -1.164025  0  -0.318562  -0.557416  0  2.322448  0
O  O167  1  0.37431820  0.95107030  0.14106951  1  -1.181601  0  -0.31886  -0.550717  0  2.416676  0
O  O168  1  0.62272411  0.16306304  0.94367303  1  -1.180117  0  -0.319364  -0.555093  0  2.359896  0
O  O169  1  0.62755563  0.06770674  0.03959337  1  -1.186773  0  -0.31281  -0.54903  0  2.335181  0
