# generated using pymatgen
data_LaH7C14(NO4)2
_symmetry_space_group_name_H-M   'P 1'
_cell_length_a   6.81477943
_cell_length_b   14.38220585
_cell_length_c   14.70300585
_cell_angle_alpha   97.70377491
_cell_angle_beta   89.99922026
_cell_angle_gamma   89.99974905
_symmetry_Int_Tables_number   1
_chemical_formula_structural   LaH7C14(NO4)2
_chemical_formula_sum   'La4 H28 C56 N8 O32'
_cell_volume   1428.05803276
_cell_formula_units_Z   4
loop_
 _symmetry_equiv_pos_site_id
 _symmetry_equiv_pos_as_xyz
  1  'x, y, z'
loop_
 _atom_site_type_symbol
 _atom_site_label
 _atom_site_symmetry_multiplicity
 _atom_site_fract_x
 _atom_site_fract_y
 _atom_site_fract_z
 _atom_site_occupancy
 _atom_site_hle17_bader_spin_density
 _atom_site_hle17_ddec_charge
 _atom_site_hle17_ddec_spin_density
 _atom_site_hle17_ddec_sum_bond_order
 _atom_site_hle17_magmom
 _atom_site_hse06_10hf_bader_spin_density
 _atom_site_hse06_10hf_ddec_charge
 _atom_site_hse06_10hf_ddec_spin_density
 _atom_site_hse06_10hf_ddec_sum_bond_order
 _atom_site_hse06_10hf_magmom
 _atom_site_hse06_bader_spin_density
 _atom_site_hse06_ddec_charge
 _atom_site_hse06_ddec_spin_density
 _atom_site_hse06_ddec_sum_bond_order
 _atom_site_hse06_magmom
 _atom_site_pbe_bader_spin_density
 _atom_site_pbe_cm5_charge
 _atom_site_pbe_ddec_charge
 _atom_site_pbe_ddec_spin_density
 _atom_site_pbe_ddec_sum_bond_order
 _atom_site_pbe_magmom
La  La0  1  0.23623719  0.30586726  0.66118777  1  0  2.045756  0  1.814378  0  0  1.908754  0  2.352267  0  0  2.012858  0  2.25173  0  0  1.399815  1.830536  0  2.422706  0
La  La1  1  0.73621675  0.69414342  0.83882845  1  0  2.045868  0  1.814201  0  0  1.908895  0  2.352051  0  0  2.012998  0  2.251521  0  0  1.399893  1.830701  0  2.422463  0
La  La2  1  0.76377894  0.69413459  0.33882164  1  0  2.045771  0  1.814367  0  0  1.908754  0  2.352241  0  0  2.012852  0  2.251714  0  0  1.399815  1.830516  0  2.42271  0
La  La3  1  0.26375829  0.30586546  0.16118235  1  0  2.045774  0  1.814394  0  0  1.908797  0  2.352265  0  0  2.012897  0  2.251741  0  0  1.399859  1.830571  0  2.422723  0
H  H4  1  0.16121951  0.36797666  0.43251833  1  0  0.103474  0  0.930519  0  0  0.107978  0  0.998387  0  0  0.111613  0  0.994986  0  0  0.130054  0.10528  0  1.000894  0
H  H5  1  0.66121056  0.63202562  0.06748042  1  0  0.103404  0  0.930601  0  0  0.107929  0  0.998466  0  0  0.111568  0  0.995057  0  0  0.130019  0.105233  0  1.000973  0
H  H6  1  0.83878340  0.63202463  0.56747265  1  0  0.103487  0  0.930538  0  0  0.107981  0  0.998424  0  0  0.111617  0  0.995014  0  0  0.130033  0.105282  0  1.000932  0
H  H7  1  0.33878502  0.36797234  0.93251634  1  0  0.103482  0  0.930417  0  0  0.108012  0  0.998295  0  0  0.111652  0  0.994889  0  0  0.13008  0.105311  0  1.000805  0
H  H8  1  0.37905368  0.53565930  0.66302975  1  0  0.090561  0  0.994423  0  0  0.094276  0  1.062598  0  0  0.098325  0  1.058876  0  0  0.124325  0.091289  0  1.065288  0
H  H9  1  0.87904120  0.46433672  0.83697794  1  0  0.090497  0  0.994557  0  0  0.094233  0  1.062703  0  0  0.098281  0  1.058977  0  0  0.124295  0.091248  0  1.065395  0
H  H10  1  0.62095805  0.46433409  0.33697743  1  0  0.090446  0  0.994588  0  0  0.0942  0  1.0627  0  0  0.098248  0  1.058975  0  0  0.124284  0.091213  0  1.065392  0
H  H11  1  0.12095879  0.53566011  0.16302755  1  0  0.09058  0  0.99446  0  0  0.094287  0  1.062642  0  0  0.098333  0  1.058922  0  0  0.124332  0.0913  0  1.065329  0
H  H12  1  0.37054621  0.67746389  0.58570581  1  0  0.132306  0  0.926942  0  0  0.14301  0  0.981186  0  0  0.147225  0  0.979031  0  0  0.119741  0.139913  0  0.983013  0
H  H13  1  0.87054298  0.32253467  0.91429266  1  0  0.132269  0  0.927037  0  0  0.143011  0  0.981234  0  0  0.147227  0  0.979081  0  0  0.119708  0.139913  0  0.983061  0
H  H14  1  0.62946111  0.32253131  0.41429203  1  0  0.132411  0  0.926986  0  0  0.143031  0  0.981298  0  0  0.147234  0  0.979148  0  0  0.119757  0.139938  0  0.983121  0
H  H15  1  0.12947021  0.67745907  0.08570298  1  0  0.132317  0  0.927083  0  0  0.143073  0  0.981247  0  0  0.147288  0  0.979092  0  0  0.119783  0.139976  0  0.983075  0
H  H16  1  0.31987677  0.01908226  0.19681959  1  0  0.131808  0  0.944457  0  0  0.139564  0  1.00449  0  0  0.144181  0  1.002593  0  0  0.117487  0.136209  0  1.006124  0
H  H17  1  0.81987392  0.98091695  0.30318532  1  0  0.131802  0  0.94438  0  0  0.139527  0  1.004468  0  0  0.144147  0  1.002564  0  0  0.117482  0.136179  0  1.006095  0
H  H18  1  0.68013495  0.98091735  0.80318550  1  0  0.131925  0  0.944338  0  0  0.139605  0  1.004427  0  0  0.144221  0  1.002531  0  0  0.117554  0.136253  0  1.006056  0
H  H19  1  0.18012313  0.01908021  0.69680795  1  0  0.131875  0  0.944243  0  0  0.139586  0  1.00433  0  0  0.144205  0  1.002426  0  0  0.117525  0.136236  0  1.005957  0
H  H20  1  0.27240940  0.85497363  0.24079957  1  0  0.12739  0  0.912843  0  0  0.135093  0  0.969773  0  0  0.139913  0  0.963794  0  0  0.144464  0.131308  0  0.974479  0
H  H21  1  0.77240205  0.14502765  0.25919973  1  0  0.127307  0  0.912896  0  0  0.134997  0  0.969815  0  0  0.139816  0  0.963834  0  0  0.144417  0.131215  0  0.97452  0
H  H22  1  0.72759205  0.14503152  0.75920337  1  0  0.127324  0  0.9129  0  0  0.135029  0  0.969819  0  0  0.139847  0  0.963843  0  0  0.144451  0.131254  0  0.974511  0
H  H23  1  0.22760087  0.85496693  0.74080076  1  0  0.12738  0  0.912942  0  0  0.135062  0  0.969843  0  0  0.139881  0  0.963863  0  0  0.144441  0.131261  0  0.974577  0
H  H24  1  0.20797433  0.96261688  0.51527938  1  0  0.105157  0  0.915088  0  0  0.115476  0  0.973889  0  0  0.119224  0  0.970222  0  0  0.134545  0.112615  0  0.976755  0
H  H25  1  0.70797888  0.03738142  0.98471806  1  0  0.105166  0  0.915189  0  0  0.115465  0  0.973963  0  0  0.119214  0  0.970295  0  0  0.134556  0.112609  0  0.976827  0
H  H26  1  0.79201098  0.03738385  0.48471631  1  0  0.105108  0  0.915176  0  0  0.115469  0  0.973899  0  0  0.119216  0  0.970234  0  0  0.134569  0.112605  0  0.976767  0
H  H27  1  0.29202550  0.96262232  0.01528473  1  0  0.105182  0  0.91504  0  0  0.115447  0  0.973881  0  0  0.119196  0  0.970215  0  0  0.134547  0.112592  0  0.97674  0
H  H28  1  0.18970757  0.83861359  0.39236951  1  0  0.309936  0  0.930355  0  0  0.281501  0  1.001704  0  0  0.2933  0  0.992458  0  0  0.313985  0.27313  0  1.00827  0
H  H29  1  0.68970307  0.16138846  0.10762427  1  0  0.309992  0  0.930358  0  0  0.28154  0  1.001712  0  0  0.293383  0  0.992379  0  0  0.314016  0.27317  0  1.008278  0
H  H30  1  0.81028507  0.16138847  0.60762358  1  0  0.309958  0  0.930366  0  0  0.281509  0  1.001718  0  0  0.293349  0  0.992391  0  0  0.31401  0.273138  0  1.008281  0
H  H31  1  0.31029838  0.83861515  0.89237443  1  0  0.309968  0  0.930283  0  0  0.28157  0  1.001588  0  0  0.293398  0  0.992283  0  0  0.314013  0.273202  0  1.00815  0
C  C32  1  0.10511161  0.50344387  0.32202251  1  0  0.713658  0  3.867609  0  0  0.66357  0  4.164482  0  0  0.701532  0  4.154106  0  0  0.239651  0.637339  0  4.171031  0
C  C33  1  0.60512995  0.49656574  0.17798212  1  0  0.71358  0  3.86777  0  0  0.66344  0  4.164741  0  0  0.701388  0  4.154385  0  0  0.239628  0.637215  0  4.171279  0
C  C34  1  0.89487370  0.49656462  0.67797533  1  0  0.71358  0  3.867839  0  0  0.663441  0  4.164816  0  0  0.701388  0  4.15446  0  0  0.239614  0.637221  0  4.17135  0
C  C35  1  0.39488324  0.50344085  0.82202233  1  0  0.713474  0  3.868119  0  0  0.663404  0  4.164947  0  0  0.701357  0  4.154588  0  0  0.239547  0.637176  0  4.171489  0
C  C36  1  0.18984072  0.51460864  0.41649505  1  0  -0.147978  0  3.741958  0  0  -0.13147  0  3.97779  0  0  -0.143165  0  3.998488  0  0  -0.004335  -0.124257  0  3.964376  0
C  C37  1  0.68984433  0.48539444  0.08350973  1  0  -0.147897  0  3.741848  0  0  -0.131364  0  3.977721  0  0  -0.143049  0  3.998418  0  0  -0.004366  -0.124153  0  3.964306  0
C  C38  1  0.81016660  0.48539147  0.58350329  1  0  -0.147664  0  3.741639  0  0  -0.13111  0  3.977419  0  0  -0.142804  0  3.998121  0  0  -0.004253  -0.1239  0  3.964003  0
C  C39  1  0.31015565  0.51460303  0.91649379  1  0  -0.147961  0  3.741961  0  0  -0.13141  0  3.977746  0  0  -0.143101  0  3.998447  0  0  -0.004355  -0.124197  0  3.96433  0
C  C40  1  0.20399047  0.43772153  0.46501379  1  0  0.132285  0  3.685987  0  0  0.093805  0  3.947793  0  0  0.102915  0  3.965139  0  0  0.063475  0.087988  0  3.935716  0
C  C41  1  0.70397869  0.56228007  0.03498938  1  0  0.132322  0  3.685983  0  0  0.093818  0  3.947774  0  0  0.102924  0  3.965122  0  0  0.063584  0.087997  0  3.935699  0
C  C42  1  0.79602565  0.56227991  0.53498196  1  0  0.132212  0  3.685961  0  0  0.093712  0  3.947793  0  0  0.10283  0  3.965131  0  0  0.063549  0.087892  0  3.93572  0
C  C43  1  0.29600662  0.43771800  0.96501079  1  0  0.132338  0  3.685852  0  0  0.093795  0  3.947684  0  0  0.102899  0  3.965039  0  0  0.06349  0.087972  0  3.935617  0
C  C44  1  0.32363988  0.53083651  0.59307258  1  0  0.143992  0  3.683252  0  0  0.113434  0  3.944634  0  0  0.122165  0  3.960517  0  0  0.056312  0.107784  0  3.933657  0
C  C45  1  0.82362969  0.46916220  0.90692620  1  0  0.144143  0  3.682929  0  0  0.113592  0  3.944274  0  0  0.122331  0  3.960144  0  0  0.056309  0.107938  0  3.933304  0
C  C46  1  0.67636891  0.46916084  0.40692683  1  0  0.144202  0  3.683209  0  0  0.113666  0  3.944485  0  0  0.122406  0  3.960354  0  0  0.056346  0.108011  0  3.933517  0
C  C47  1  0.17636295  0.53083799  0.09307487  1  0  0.144036  0  3.683082  0  0  0.113472  0  3.944487  0  0  0.122209  0  3.960361  0  0  0.056281  0.107821  0  3.933511  0
C  C48  1  0.31787182  0.61090840  0.54973927  1  0  -0.116637  0  3.656847  0  0  -0.135539  0  3.905079  0  0  -0.141718  0  3.921748  0  0  -0.068487  -0.131836  0  3.894308  0
C  C49  1  0.81785079  0.38908552  0.95026246  1  0  -0.116751  0  3.656879  0  0  -0.135695  0  3.905149  0  0  -0.141877  0  3.921818  0  0  -0.068419  -0.131991  0  3.894381  0
C  C50  1  0.68212817  0.38908480  0.45026176  1  0  -0.116932  0  3.657017  0  0  -0.135789  0  3.905264  0  0  -0.141952  0  3.921911  0  0  -0.06854  -0.13209  0  3.894506  0
C  C51  1  0.18215066  0.61090844  0.04974069  1  0  -0.116779  0  3.657089  0  0  -0.135714  0  3.905322  0  0  -0.141893  0  3.921985  0  0  -0.068573  -0.132016  0  3.894554  0
C  C52  1  0.24854298  0.60320564  0.45981381  1  0  -0.003436  0  3.704008  0  0  0.000256  0  3.943924  0  0  0.002138  0  3.96005  0  0  0.023075  -0.000824  0  3.933404  0
C  C53  1  0.74853692  0.39679361  0.04018543  1  0  -0.003323  0  3.703794  0  0  0.0003  0  3.943831  0  0  0.002179  0  3.959958  0  0  0.023036  -0.00078  0  3.933293  0
C  C54  1  0.75146581  0.39678884  0.54018327  1  0  -0.003471  0  3.703752  0  0  0.000283  0  3.943654  0  0  0.002165  0  3.959781  0  0  0.02309  -0.000809  0  3.933132  0
C  C55  1  0.25146013  0.60320656  0.95981496  1  0  -0.003389  0  3.703852  0  0  0.000313  0  3.943883  0  0  0.002197  0  3.960005  0  0  0.023105  -0.000763  0  3.933332  0
C  C56  1  0.25194181  0.68881997  0.41155824  1  0  0.706348  0  3.855351  0  0  0.657194  0  4.152681  0  0  0.694424  0  4.140273  0  0  0.245487  0.631259  0  4.160637  0
C  C57  1  0.75193068  0.31118127  0.08843779  1  0  0.706151  0  3.855208  0  0  0.657034  0  4.152497  0  0  0.694262  0  4.140094  0  0  0.245401  0.631117  0  4.160425  0
C  C58  1  0.74805964  0.31117874  0.58843996  1  0  0.706499  0  3.855048  0  0  0.657196  0  4.152599  0  0  0.694425  0  4.140196  0  0  0.245498  0.63129  0  4.160505  0
C  C59  1  0.24806343  0.68881381  0.91155595  1  0  0.706492  0  3.85508  0  0  0.657134  0  4.152739  0  0  0.694359  0  4.140338  0  0  0.245469  0.631227  0  4.16065  0
C  C60  1  0.29048687  0.18090480  0.30410359  1  0  0.641546  0  3.964552  0  0  0.593124  0  4.271861  0  0  0.627549  0  4.26433  0  0  0.198515  0.56952  0  4.275818  0
C  C61  1  0.79048715  0.81909998  0.19589732  1  0  0.641512  0  3.964396  0  0  0.593133  0  4.271675  0  0  0.627553  0  4.264149  0  0  0.198484  0.569494  0  4.275695  0
C  C62  1  0.70951751  0.81909967  0.69589996  1  0  0.641399  0  3.964467  0  0  0.592915  0  4.271916  0  0  0.627357  0  4.264364  0  0  0.198398  0.569287  0  4.275907  0
C  C63  1  0.20952310  0.18089884  0.80410429  1  0  0.641587  0  3.964171  0  0  0.593137  0  4.27157  0  0  0.627564  0  4.264041  0  0  0.198544  0.569495  0  4.27559  0
C  C64  1  0.29054844  0.08560042  0.33682489  1  0  0.049472  0  3.61467  0  0  0.056171  0  3.84604  0  0  0.063088  0  3.858998  0  0  0.037053  0.051317  0  3.837952  0
C  C65  1  0.79054591  0.91440095  0.16317906  1  0  0.049575  0  3.614494  0  0  0.056233  0  3.845993  0  0  0.063151  0  3.858951  0  0  0.036987  0.051367  0  3.837958  0
C  C66  1  0.70945887  0.91440339  0.66317995  1  0  0.049589  0  3.61442  0  0  0.056277  0  3.845887  0  0  0.063189  0  3.858835  0  0  0.036956  0.051412  0  3.837838  0
C  C67  1  0.20945848  0.08559289  0.83681999  1  0  0.049535  0  3.614371  0  0  0.056165  0  3.845845  0  0  0.063082  0  3.858799  0  0  0.036908  0.051293  0  3.837825  0
C  C68  1  0.29934246  0.00792202  0.26804972  1  0  -0.145131  0  3.678487  0  0  -0.16521  0  3.936279  0  0  -0.175456  0  3.955289  0  0  -0.069989  -0.158849  0  3.92416  0
C  C69  1  0.79932253  0.99207992  0.23195084  1  0  -0.145133  0  3.678169  0  0  -0.165192  0  3.935947  0  0  -0.175439  0  3.954959  0  0  -0.069963  -0.158821  0  3.923824  0
C  C70  1  0.70066046  0.99207962  0.73195286  1  0  -0.145343  0  3.678123  0  0  -0.165332  0  3.935905  0  0  -0.175576  0  3.954908  0  0  -0.07003  -0.158967  0  3.923794  0
C  C71  1  0.20065691  0.00791797  0.76804319  1  0  -0.145162  0  3.678006  0  0  -0.165205  0  3.935753  0  0  -0.175453  0  3.954763  0  0  -0.070037  -0.15883  0  3.923627  0
C  C72  1  0.27174660  0.91832382  0.29011687  1  0  0.183864  0  3.576327  0  0  0.1344  0  3.843235  0  0  0.148133  0  3.851226  0  0  0.085145  0.125291  0  3.838313  0
C  C73  1  0.77173098  0.08168017  0.20987931  1  0  0.184009  0  3.576292  0  0  0.134593  0  3.843059  0  0  0.14833  0  3.851054  0  0  0.085286  0.125482  0  3.838126  0
C  C74  1  0.72825192  0.08168189  0.70988136  1  0  0.184081  0  3.5762  0  0  0.13461  0  3.842996  0  0  0.14835  0  3.850986  0  0  0.085261  0.125492  0  3.838068  0
C  C75  1  0.22825139  0.91831634  0.79011526  1  0  0.183919  0  3.576086  0  0  0.134584  0  3.842823  0  0  0.148324  0  3.850809  0  0  0.08532  0.125485  0  3.8379  0
C  C76  1  0.23553449  0.97847075  0.44607537  1  0  0.140316  0  3.61568  0  0  0.085728  0  3.875475  0  0  0.096829  0  3.888057  0  0  0.074017  0.078605  0  3.86725  0
C  C77  1  0.73554309  0.02153124  0.05392084  1  0  0.140282  0  3.615836  0  0  0.085824  0  3.875531  0  0  0.096922  0  3.888116  0  0  0.07402  0.078706  0  3.867306  0
C  C78  1  0.76444935  0.02153076  0.55392312  1  0  0.14035  0  3.615764  0  0  0.0858  0  3.875473  0  0  0.096896  0  3.888065  0  0  0.073972  0.078682  0  3.86724  0
C  C79  1  0.26445542  0.97847166  0.94607711  1  0  0.140384  0  3.615738  0  0  0.085891  0  3.875511  0  0  0.096987  0  3.888097  0  0  0.074047  0.078772  0  3.867281  0
C  C80  1  0.26636883  0.06997097  0.42878221  1  0  -0.123408  0  3.700602  0  0  -0.106639  0  3.93756  0  0  -0.11803  0  3.956557  0  0  -0.002402  -0.099942  0  3.925643  0
C  C81  1  0.76637327  0.93003395  0.07122159  1  0  -0.123232  0  3.700553  0  0  -0.106668  0  3.937703  0  0  -0.118057  0  3.956696  0  0  -0.002322  -0.099958  0  3.925804  0
C  C82  1  0.73362675  0.93003347  0.57122066  1  0  -0.123335  0  3.700662  0  0  -0.106724  0  3.937781  0  0  -0.118115  0  3.956773  0  0  -0.002358  -0.100022  0  3.925867  0
C  C83  1  0.23363405  0.06996550  0.92877804  1  0  -0.123505  0  3.700752  0  0  -0.10675  0  3.937701  0  0  -0.11814  0  3.956696  0  0  -0.002346  -0.100041  0  3.925798  0
C  C84  1  0.26712302  0.14763940  0.50842883  1  0  0.638047  0  3.962205  0  0  0.593408  0  4.25643  0  0  0.628002  0  4.25245  0  0  0.195182  0.570074  0  4.258101  0
C  C85  1  0.76713042  0.85236377  0.99157349  1  0  0.637866  0  3.962361  0  0  0.59334  0  4.256519  0  0  0.627935  0  4.252534  0  0  0.19507  0.569961  0  4.258263  0
C  C86  1  0.73287109  0.85236645  0.49157418  1  0  0.637852  0  3.962434  0  0  0.593269  0  4.256636  0  0  0.627871  0  4.252652  0  0  0.195033  0.569939  0  4.258307  0
C  C87  1  0.23286956  0.14763574  0.00842819  1  0  0.637869  0  3.962321  0  0  0.593278  0  4.256491  0  0  0.627872  0  4.252514  0  0  0.195058  0.569934  0  4.258185  0
N  N88  1  0.23442060  0.90658005  0.37783366  1  0  -0.205073  0  3.453379  0  0  -0.133068  0  3.687836  0  0  -0.148481  0  3.699628  0  0  -0.328086  -0.123165  0  3.680161  0
N  N89  1  0.73442654  0.09342481  0.12216489  1  0  -0.205281  0  3.453548  0  0  -0.133243  0  3.687858  0  0  -0.148673  0  3.69961  0  0  -0.328158  -0.123339  0  3.680179  0
N  N90  1  0.76556618  0.09342439  0.62216921  1  0  -0.205264  0  3.453491  0  0  -0.133194  0  3.687795  0  0  -0.148625  0  3.699557  0  0  -0.328143  -0.123292  0  3.680114  0
N  N91  1  0.26556023  0.90657885  0.87783517  1  0  -0.205249  0  3.453193  0  0  -0.133341  0  3.687625  0  0  -0.148764  0  3.699386  0  0  -0.328178  -0.123435  0  3.679939  0
N  N92  1  0.26720029  0.44534694  0.55229808  1  0  -0.397561  0  3.215246  0  0  -0.348873  0  3.50053  0  0  -0.371229  0  3.52246  0  0  -0.370365  -0.333066  0  3.484659  0
N  N93  1  0.76717054  0.55465483  0.94770410  1  0  -0.397654  0  3.21513  0  0  -0.348946  0  3.500413  0  0  -0.371307  0  3.522351  0  0  -0.370418  -0.333142  0  3.484545  0
N  N94  1  0.73281583  0.55465251  0.44770155  1  0  -0.397644  0  3.215362  0  0  -0.34897  0  3.500671  0  0  -0.371334  0  3.522603  0  0  -0.370456  -0.333162  0  3.484803  0
N  N95  1  0.23280450  0.44534107  0.05229381  1  0  -0.397675  0  3.215146  0  0  -0.348938  0  3.500414  0  0  -0.371295  0  3.522344  0  0  -0.370379  -0.333135  0  3.48455  0
O  O96  1  0.12188137  0.21229252  0.28822078  1  0  -0.627719  0  1.908477  0  0  -0.587999  0  2.141055  0  0  -0.619918  0  2.133996  0  0  -0.341658  -0.564483  0  2.14466  0
O  O97  1  0.62187999  0.78770631  0.21177583  1  0  -0.627751  0  1.908363  0  0  -0.588022  0  2.140892  0  0  -0.61994  0  2.133842  0  0  -0.341641  -0.564499  0  2.144519  0
O  O98  1  0.87813182  0.78771058  0.71178400  1  0  -0.627668  0  1.908317  0  0  -0.587932  0  2.140924  0  0  -0.619874  0  2.133905  0  0  -0.341558  -0.564404  0  2.144531  0
O  O99  1  0.37813027  0.21229465  0.78822736  1  0  -0.627807  0  1.908273  0  0  -0.588069  0  2.140869  0  0  -0.619977  0  2.133794  0  0  -0.34169  -0.564552  0  2.144508  0
O  O100  1  0.45077688  0.21746476  0.28269811  1  0  -0.646866  0  1.90173  0  0  -0.605231  0  2.132874  0  0  -0.636186  0  2.124199  0  0  -0.347484  -0.582431  0  2.137667  0
O  O101  1  0.95078272  0.78253748  0.21730356  1  0  -0.646908  0  1.901643  0  0  -0.605272  0  2.132754  0  0  -0.636228  0  2.124085  0  0  -0.347465  -0.582455  0  2.137557  0
O  O102  1  0.54922457  0.78254047  0.71730756  1  0  -0.646826  0  1.901718  0  0  -0.605171  0  2.13291  0  0  -0.636132  0  2.124233  0  0  -0.347477  -0.582364  0  2.13771  0
O  O103  1  0.04923340  0.21746194  0.78269471  1  0  -0.646835  0  1.901688  0  0  -0.605169  0  2.132838  0  0  -0.636129  0  2.124167  0  0  -0.347463  -0.582353  0  2.137644  0
O  O104  1  0.29691843  0.23066995  0.49184070  1  0  -0.628055  0  1.980781  0  0  -0.586918  0  2.222723  0  0  -0.617276  0  2.217022  0  0  -0.341334  -0.565372  0  2.225585  0
O  O105  1  0.79692175  0.76933264  0.00815790  1  0  -0.627932  0  1.980905  0  0  -0.586857  0  2.222841  0  0  -0.617237  0  2.217192  0  0  -0.341333  -0.565294  0  2.225713  0
O  O106  1  0.70307422  0.76933513  0.50816020  1  0  -0.62794  0  1.980909  0  0  -0.586788  0  2.222785  0  0  -0.617153  0  2.217091  0  0  -0.341254  -0.565238  0  2.22564  0
O  O107  1  0.20307676  0.23066752  0.99184180  1  0  -0.627865  0  1.980721  0  0  -0.586796  0  2.222718  0  0  -0.617161  0  2.217031  0  0  -0.341272  -0.565234  0  2.225566  0
O  O108  1  0.23801607  0.12602334  0.58886997  1  0  -0.678178  0  1.927046  0  0  -0.640543  0  2.171309  0  0  -0.671462  0  2.165953  0  0  -0.365383  -0.618345  0  2.173885  0
O  O109  1  0.73800951  0.87397568  0.91113075  1  0  -0.678099  0  1.927037  0  0  -0.640489  0  2.171261  0  0  -0.671403  0  2.165909  0  0  -0.365335  -0.618278  0  2.173866  0
O  O110  1  0.76198832  0.87397898  0.41113200  1  0  -0.67806  0  1.926994  0  0  -0.640447  0  2.171261  0  0  -0.671353  0  2.165871  0  0  -0.365294  -0.618239  0  2.173819  0
O  O111  1  0.26199047  0.12602309  0.08886949  1  0  -0.678084  0  1.927029  0  0  -0.640464  0  2.171275  0  0  -0.671381  0  2.165923  0  0  -0.365324  -0.61826  0  2.173863  0
O  O112  1  0.40709775  0.70656433  0.37103812  1  0  -0.643778  0  2.009897  0  0  -0.596051  0  2.263553  0  0  -0.629627  0  2.253489  0  0  -0.356673  -0.57152  0  2.269591  0
O  O113  1  0.90708412  0.29343231  0.12895917  1  0  -0.643656  0  2.009901  0  0  -0.595913  0  2.263531  0  0  -0.629489  0  2.253472  0  0  -0.356593  -0.57139  0  2.269561  0
O  O114  1  0.59290076  0.29343077  0.62895631  1  0  -0.643825  0  2.009937  0  0  -0.596047  0  2.263685  0  0  -0.629625  0  2.253626  0  0  -0.356669  -0.571521  0  2.269703  0
O  O115  1  0.09291587  0.70656155  0.87104057  1  0  -0.643771  0  2.009833  0  0  -0.595965  0  2.263585  0  0  -0.629532  0  2.253528  0  0  -0.356596  -0.571448  0  2.269606  0
O  O116  1  0.10183828  0.74323780  0.41924980  1  0  -0.672356  0  2.013349  0  0  -0.617981  0  2.249328  0  0  -0.651297  0  2.240522  0  0  -0.346754  -0.593718  0  2.254457  0
O  O117  1  0.60182493  0.25676673  0.08074820  1  0  -0.672318  0  2.013152  0  0  -0.61795  0  2.249117  0  0  -0.651284  0  2.240299  0  0  -0.346772  -0.593698  0  2.254242  0
O  O118  1  0.89816464  0.25676382  0.58075209  1  0  -0.672378  0  2.013177  0  0  -0.617968  0  2.249238  0  0  -0.651301  0  2.24042  0  0  -0.34678  -0.593716  0  2.25435  0
O  O119  1  0.39816919  0.74323117  0.91924652  1  0  -0.672479  0  2.013185  0  0  -0.618048  0  2.249262  0  0  -0.651375  0  2.24045  0  0  -0.346858  -0.593797  0  2.25438  0
O  O120  1  0.02241347  0.57494914  0.29605618  1  0  -0.686205  0  2.032192  0  0  -0.634114  0  2.281687  0  0  -0.668668  0  2.273023  0  0  -0.372051  -0.609032  0  2.286671  0
O  O121  1  0.52240527  0.42504943  0.20394511  1  0  -0.686247  0  2.031505  0  0  -0.634188  0  2.281067  0  0  -0.66874  0  2.272403  0  0  -0.372097  -0.609106  0  2.286051  0
O  O122  1  0.97759678  0.42505514  0.70394122  1  0  -0.686179  0  2.031862  0  0  -0.63412  0  2.281415  0  0  -0.668673  0  2.272755  0  0  -0.372066  -0.609043  0  2.2864  0
O  O123  1  0.47759178  0.57494736  0.79605901  1  0  -0.686105  0  2.032157  0  0  -0.634068  0  2.281683  0  0  -0.668605  0  2.272994  0  0  -0.371993  -0.608991  0  2.286664  0
O  O124  1  0.11760612  0.42433221  0.27302697  1  0  -0.673598  0  2.025235  0  0  -0.627179  0  2.288451  0  0  -0.660977  0  2.276962  0  0  -0.387411  -0.602687  0  2.295516  0
O  O125  1  0.61761204  0.57567068  0.22696464  1  0  -0.673479  0  2.025746  0  0  -0.626994  0  2.288899  0  0  -0.660782  0  2.277416  0  0  -0.387232  -0.602506  0  2.295956  0
O  O126  1  0.88238506  0.57567531  0.72696193  1  0  -0.673661  0  2.025403  0  0  -0.627173  0  2.288532  0  0  -0.660968  0  2.277066  0  0  -0.387314  -0.602694  0  2.295596  0
O  O127  1  0.38240115  0.42432805  0.77303424  1  0  -0.673551  0  2.025587  0  0  -0.627094  0  2.288729  0  0  -0.660895  0  2.277246  0  0  -0.387277  -0.602602  0  2.295786  0
