# generated using pymatgen
data_EuH13C25(O5F9)2
_symmetry_space_group_name_H-M   'P 1'
_cell_length_a   9.11785058
_cell_length_b   10.81716174
_cell_length_c   17.55159394
_cell_angle_alpha   90.00000572
_cell_angle_beta   89.99999274
_cell_angle_gamma   105.96024592
_symmetry_Int_Tables_number   1
_chemical_formula_structural   EuH13C25(O5F9)2
_chemical_formula_sum   'Eu2 H26 C50 O20 F36'
_cell_volume   1664.37155958
_cell_formula_units_Z   2
loop_
 _symmetry_equiv_pos_site_id
 _symmetry_equiv_pos_as_xyz
  1  'x, y, z'
loop_
 _atom_site_type_symbol
 _atom_site_label
 _atom_site_symmetry_multiplicity
 _atom_site_fract_x
 _atom_site_fract_y
 _atom_site_fract_z
 _atom_site_occupancy
 _atom_site_hle17_bader_spin_density
 _atom_site_hle17_ddec_charge
 _atom_site_hle17_ddec_spin_density
 _atom_site_hle17_ddec_sum_bond_order
 _atom_site_hle17_magmom
 _atom_site_hse06_10hf_bader_spin_density
 _atom_site_hse06_10hf_ddec_charge
 _atom_site_hse06_10hf_ddec_spin_density
 _atom_site_hse06_10hf_ddec_sum_bond_order
 _atom_site_hse06_10hf_magmom
 _atom_site_hse06_bader_spin_density
 _atom_site_hse06_ddec_charge
 _atom_site_hse06_ddec_spin_density
 _atom_site_hse06_ddec_sum_bond_order
 _atom_site_hse06_magmom
 _atom_site_pbe_bader_spin_density
 _atom_site_pbe_cm5_charge
 _atom_site_pbe_ddec_charge
 _atom_site_pbe_ddec_spin_density
 _atom_site_pbe_ddec_sum_bond_order
 _atom_site_pbe_magmom
Eu  Eu0  1  0.70653895  0.31301142  0.99641205  1  0  2.282378  0  1.694956  0  0  2.201208  0  2.047536  0  0  2.247326  0  2.004189  0  0  1.54046  2.168434  0  2.077532  0
Eu  Eu1  1  0.29346106  0.68698810  0.49641191  1  0  2.282322  0  1.694971  0  0  2.201218  0  2.04752  0  0  2.247336  0  2.004172  0  0  1.540456  2.168445  0  2.077516  0
H  H2  1  0.57408434  0.97442219  0.97544190  1  0  0.107347  0  0.95436  0  0  0.114043  0  1.019411  0  0  0.117585  0  1.01746  0  0  0.112502  0.111407  0  1.020975  0
H  H3  1  0.42591568  0.02557733  0.47544228  1  0  0.107316  0  0.954428  0  0  0.114055  0  1.019402  0  0  0.117597  0  1.017453  0  0  0.112499  0.11142  0  1.020961  0
H  H4  1  0.83370183  0.81217352  0.13287625  1  0  0.112507  0  0.945698  0  0  0.115292  0  1.015763  0  0  0.119762  0  1.011687  0  0  0.105673  0.112313  0  1.01823  0
H  H5  1  0.16629716  0.18782596  0.63287585  1  0  0.112474  0  0.945743  0  0  0.115302  0  1.015738  0  0  0.119772  0  1.011663  0  0  0.105681  0.112324  0  1.018206  0
H  H6  1  0.69747744  0.59228500  0.08754817  1  0  0.106493  0  0.949075  0  0  0.114392  0  1.01217  0  0  0.118155  0  1.010007  0  0  0.114428  0.111597  0  1.013873  0
H  H7  1  0.30252188  0.40771543  0.58754835  1  0  0.106487  0  0.949089  0  0  0.114391  0  1.012178  0  0  0.118153  0  1.010017  0  0  0.114429  0.111597  0  1.013883  0
H  H8  1  0.43915224  0.75492079  0.92946032  1  0  0.110553  0  0.942239  0  0  0.116119  0  1.007492  0  0  0.11991  0  1.004708  0  0  0.107628  0.113276  0  1.009655  0
H  H9  1  0.56084670  0.24507873  0.42946013  1  0  0.110545  0  0.942231  0  0  0.116121  0  1.007473  0  0  0.119911  0  1.004688  0  0  0.107622  0.11327  0  1.009642  0
H  H10  1  0.16984011  0.41008858  0.88568367  1  0  0.107984  0  0.926522  0  0  0.124579  0  0.988661  0  0  0.125542  0  0.987615  0  0  0.105811  0.123844  0  0.989357  0
H  H11  1  0.83015993  0.58991093  0.38568405  1  0  0.107958  0  0.926571  0  0  0.12457  0  0.988674  0  0  0.125535  0  0.987626  0  0  0.105807  0.123835  0  0.98937  0
H  H12  1  0.22712511  0.33287088  0.96678741  1  0  0.105914  0  0.924113  0  0  0.121167  0  0.990055  0  0  0.122156  0  0.988368  0  0  0.104735  0.120417  0  0.99125  0
H  H13  1  0.77287523  0.66712960  0.46678780  1  0  0.106056  0  0.923876  0  0  0.121168  0  0.99001  0  0  0.122158  0  0.988321  0  0  0.104732  0.12042  0  0.991204  0
H  H14  1  0.33834388  0.35290476  0.88099748  1  0  0.11159  0  0.943405  0  0  0.121343  0  1.017893  0  0  0.122876  0  1.015671  0  0  0.104633  0.120219  0  1.019414  0
H  H15  1  0.66165616  0.64709475  0.38099787  1  0  0.111533  0  0.943435  0  0  0.121311  0  1.017869  0  0  0.12284  0  1.015658  0  0  0.104614  0.120188  0  1.019389  0
H  H16  1  0.99750287  0.15472888  0.22792970  1  0  0.103181  0  0.962228  0  0  0.114782  0  1.033147  0  0  0.116046  0  1.031186  0  0  0.095085  0.113707  0  1.034735  0
H  H17  1  0.00249751  0.84527157  0.72792992  1  0  0.103137  0  0.962323  0  0  0.114774  0  1.033167  0  0  0.116037  0  1.03121  0  0  0.095077  0.113702  0  1.034745  0
H  H18  1  0.84642718  0.21783448  0.19411169  1  0  0.108574  0  0.929334  0  0  0.124973  0  0.993699  0  0  0.125543  0  0.992927  0  0  0.106756  0.124419  0  0.994432  0
H  H19  1  0.15357180  0.78216501  0.69411134  1  0  0.10853  0  0.929407  0  0  0.124973  0  0.993705  0  0  0.125543  0  0.992934  0  0  0.106758  0.12442  0  0.994439  0
H  H20  1  0.00940714  0.22933345  0.13513018  1  0  0.103655  0  0.943469  0  0  0.116101  0  1.015664  0  0  0.117502  0  1.013434  0  0  0.102392  0.115039  0  1.017201  0
H  H21  1  0.99059217  0.77066699  0.63513034  1  0  0.103796  0  0.943278  0  0  0.1161  0  1.01567  0  0  0.117501  0  1.01344  0  0  0.102389  0.115038  0  1.017205  0
H  H22  1  0.14045008  0.70682800  0.00285845  1  0  0.145493  0  0.985467  0  0  0.14197  0  1.066277  0  0  0.146977  0  1.06539  0  0  0.095998  0.138406  0  1.067102  0
H  H23  1  0.85954894  0.29317147  0.50285801  1  0  0.145446  0  0.985518  0  0  0.141954  0  1.066276  0  0  0.146962  0  1.065387  0  0  0.095996  0.13839  0  1.067101  0
H  H24  1  0.72108429  0.07555409  0.75894188  1  0  0.140739  0  0.989108  0  0  0.136895  0  1.071362  0  0  0.142024  0  1.070462  0  0  0.09298  0.133421  0  1.071932  0
H  H25  1  0.27891499  0.92444637  0.25894231  1  0  0.140764  0  0.989079  0  0  0.136899  0  1.071369  0  0  0.142028  0  1.070468  0  0  0.09299  0.133425  0  1.071938  0
H  H26  1  0.31453042  0.16704805  0.19698210  1  0  0.142997  0  0.965602  0  0  0.144269  0  1.037494  0  0  0.14912  0  1.037054  0  0  0.099552  0.141006  0  1.037644  0
H  H27  1  0.68546888  0.83295239  0.69698172  1  0  0.142995  0  0.965671  0  0  0.144312  0  1.037474  0  0  0.149166  0  1.037035  0  0  0.099566  0.14105  0  1.037624  0
C  C28  1  0.60239217  0.89049600  0.99857940  1  0  -0.048989  0  3.690544  0  0  -0.071796  0  3.938743  0  0  -0.072726  0  3.959479  0  0  -0.072266  -0.071112  0  3.92498  0
C  C29  1  0.39760816  0.10950448  0.49857921  1  0  -0.049107  0  3.690743  0  0  -0.071849  0  3.938798  0  0  -0.072781  0  3.959534  0  0  -0.072287  -0.071166  0  3.925033  0
C  C30  1  0.71258670  0.90620190  0.05622738  1  0  -0.059708  0  3.756693  0  0  -0.045908  0  4.000153  0  0  -0.053326  0  4.022258  0  0  -0.007914  -0.041312  0  3.985584  0
C  C31  1  0.28741262  0.09379853  0.55622697  1  0  -0.059632  0  3.756663  0  0  -0.045903  0  4.00022  0  0  -0.05332  0  4.022326  0  0  -0.00791  -0.041306  0  3.985649  0
C  C32  1  0.74882113  0.79905860  0.08782108  1  0  -0.052368  0  3.698729  0  0  -0.083526  0  3.963132  0  0  -0.0833  0  3.981767  0  0  -0.075192  -0.083472  0  3.95043  0
C  C33  1  0.25117819  0.20094183  0.58782068  1  0  -0.05237  0  3.698763  0  0  -0.083536  0  3.963156  0  0  -0.08331  0  3.981791  0  0  -0.0752  -0.083486  0  3.950459  0
C  C34  1  0.67335686  0.67660025  0.06223993  1  0  -0.053436  0  3.694896  0  0  -0.077416  0  3.946599  0  0  -0.078897  0  3.967723  0  0  -0.070569  -0.076508  0  3.932627  0
C  C35  1  0.32664215  0.32339922  0.56223953  1  0  -0.053458  0  3.694958  0  0  -0.077423  0  3.946643  0  0  -0.078906  0  3.967767  0  0  -0.070585  -0.076518  0  3.932676  0
C  C36  1  0.56122168  0.66086896  0.00551859  1  0  -0.059288  0  3.759525  0  0  -0.044707  0  4.003561  0  0  -0.05179  0  4.02552  0  0  -0.006572  -0.040268  0  3.989196  0
C  C37  1  0.43877765  0.33913147  0.50551819  1  0  -0.05936  0  3.759572  0  0  -0.044782  0  4.003598  0  0  -0.051863  0  4.025553  0  0  -0.006598  -0.040331  0  3.989209  0
C  C38  1  0.52596417  0.76811585  0.97356458  1  0  -0.05006  0  3.697513  0  0  -0.07946  0  3.956192  0  0  -0.079435  0  3.97495  0  0  -0.074491  -0.079298  0  3.94359  0
C  C39  1  0.47403585  0.23188366  0.47356439  1  0  -0.050025  0  3.69757  0  0  -0.079393  0  3.956181  0  0  -0.079368  0  3.974938  0  0  -0.074442  -0.079226  0  3.943575  0
C  C40  1  0.47991036  0.52933772  0.98086590  1  0  0.640673  0  3.756036  0  0  0.588845  0  4.046143  0  0  0.62485  0  4.034613  0  0  0.260829  0.564289  0  4.053886  0
C  C41  1  0.52009075  0.47066179  0.48086630  1  0  0.640704  0  3.756099  0  0  0.588899  0  4.04614  0  0  0.624905  0  4.034606  0  0  0.260847  0.564341  0  4.053886  0
C  C42  1  0.26646875  0.39459813  0.91719135  1  0  -0.071297  0  3.552806  0  0  -0.177666  0  3.832426  0  0  -0.168649  0  3.833212  0  0  -0.14159  -0.183543  0  3.831752  0
C  C43  1  0.73353128  0.60540138  0.41719116  1  0  -0.071339  0  3.552786  0  0  -0.177659  0  3.832331  0  0  -0.168642  0  3.833114  0  0  -0.14157  -0.183534  0  3.831653  0
C  C44  1  0.78374750  0.03775440  0.08445498  1  0  0.643854  0  3.755594  0  0  0.592787  0  4.045159  0  0  0.62896  0  4.033332  0  0  0.2599  0.568462  0  4.052254  0
C  C45  1  0.21625151  0.96224507  0.58445520  1  0  0.643901  0  3.755362  0  0  0.59271  0  4.045223  0  0  0.62888  0  4.033398  0  0  0.259867  0.568388  0  4.052316  0
C  C46  1  0.93429099  0.17100470  0.17812454  1  0  -0.070227  0  3.549883  0  0  -0.177735  0  3.828377  0  0  -0.168655  0  3.829262  0  0  -0.143712  -0.183574  0  3.827646  0
C  C47  1  0.06570831  0.82899575  0.67812476  1  0  -0.070265  0  3.549793  0  0  -0.177777  0  3.8284  0  0  -0.168698  0  3.829284  0  0  -0.143691  -0.183615  0  3.827682  0
C  C48  1  0.96083029  0.70737016  0.88048982  1  0  0.710283  0  3.634603  0  0  0.64065  0  3.967192  0  0  0.668794  0  3.940926  0  0  0.300403  0.620309  0  3.986393  0
C  C49  1  0.03916975  0.29262935  0.38048967  1  0  0.71034  0  3.634502  0  0  0.640629  0  3.96722  0  0  0.668774  0  3.940956  0  0  0.300405  0.620285  0  3.986421  0
C  C50  1  0.93941239  0.60190728  0.94207169  1  0  0.316587  0  3.823649  0  0  0.29947  0  4.093928  0  0  0.321953  0  4.098688  0  0  0.126265  0.284686  0  4.090518  0
C  C51  1  0.06058764  0.39809223  0.44207154  1  0  0.316669  0  3.823681  0  0  0.299574  0  4.093957  0  0  0.322057  0  4.098716  0  0  0.126301  0.284793  0  4.090542  0
C  C52  1  0.04719952  0.61947659  0.00092985  1  0  -0.353175  0  3.74257  0  0  -0.402257  0  4.024399  0  0  -0.425673  0  4.046117  0  0  -0.146356  -0.386844  0  4.009659  0
C  C53  1  0.95280092  0.38052384  0.50092941  1  0  -0.353254  0  3.742676  0  0  -0.402313  0  4.024449  0  0  -0.425731  0  4.046164  0  0  -0.146409  -0.386899  0  4.009709  0
C  C54  1  0.03756799  0.52398479  0.05614078  1  0  0.313976  0  3.821852  0  0  0.296883  0  4.091783  0  0  0.319403  0  4.096389  0  0  0.126514  0.281973  0  4.088732  0
C  C55  1  0.96243133  0.47601564  0.55614093  1  0  0.313993  0  3.821846  0  0  0.296903  0  4.091762  0  0  0.319424  0  4.096366  0  0  0.126512  0.281989  0  4.088714  0
C  C56  1  0.15854731  0.54791874  0.12034008  1  0  0.709229  0  3.634065  0  0  0.635985  0  3.974936  0  0  0.664411  0  3.947744  0  0  0.299014  0.615136  0  3.995482  0
C  C57  1  0.84145278  0.45208074  0.62033966  1  0  0.709203  0  3.634123  0  0  0.635967  0  3.974988  0  0  0.664393  0  3.947799  0  0  0.299012  0.61512  0  3.995534  0
C  C58  1  0.45329344  0.13124889  0.77157322  1  0  0.711812  0  3.634374  0  0  0.641143  0  3.969863  0  0  0.669854  0  3.942657  0  0  0.300283  0.620306  0  3.990123  0
C  C59  1  0.54670584  0.86875157  0.27157363  1  0  0.711843  0  3.634256  0  0  0.64128  0  3.969598  0  0  0.669981  0  3.942405  0  0  0.300257  0.620441  0  3.989862  0
C  C60  1  0.59227761  0.17636154  0.82504813  1  0  0.314498  0  3.839589  0  0  0.297433  0  4.108542  0  0  0.319761  0  4.113164  0  0  0.125506  0.282532  0  4.105678  0
C  C61  1  0.40772275  0.82363892  0.32504798  1  0  0.314519  0  3.839632  0  0  0.297445  0  4.108524  0  0  0.319769  0  4.113152  0  0  0.125539  0.282541  0  4.105661  0
C  C62  1  0.72122573  0.13480348  0.80878123  1  0  -0.363946  0  3.763043  0  0  -0.41283  0  4.045262  0  0  -0.436347  0  4.065918  0  0  -0.151002  -0.397161  0  4.030709  0
C  C63  1  0.27877323  0.86519602  0.30878166  1  0  -0.364023  0  3.76307  0  0  -0.412897  0  4.04533  0  0  -0.436411  0  4.065979  0  0  -0.151022  -0.397229  0  4.030778  0
C  C64  1  0.85390103  0.17474753  0.85297493  1  0  0.31889  0  3.828253  0  0  0.299688  0  4.100688  0  0  0.323006  0  4.103965  0  0  0.126575  0.28463  0  4.097725  0
C  C65  1  0.14609902  0.82525197  0.35297537  1  0  0.319012  0  3.828167  0  0  0.299798  0  4.100576  0  0  0.323115  0  4.103852  0  0  0.126601  0.28474  0  4.097612  0
C  C66  1  0.99421358  0.13502248  0.82379638  1  0  0.710409  0  3.631965  0  0  0.637211  0  3.970506  0  0  0.665879  0  3.943163  0  0  0.301509  0.617163  0  3.989089  0
C  C67  1  0.00578538  0.86497702  0.32379683  1  0  0.710178  0  3.632263  0  0  0.637109  0  3.970654  0  0  0.665782  0  3.94331  0  0  0.301436  0.61706  0  3.989242  0
C  C68  1  0.23331062  0.02491772  0.06968711  1  0  0.710192  0  3.626207  0  0  0.636484  0  3.965372  0  0  0.666535  0  3.935093  0  0  0.301901  0.616155  0  3.984571  0
C  C69  1  0.76668980  0.97508271  0.56968730  1  0  0.710969  0  3.624748  0  0  0.636483  0  3.96535  0  0  0.666525  0  3.93509  0  0  0.301919  0.616151  0  3.984552  0
C  C70  1  0.38228289  0.13328556  0.08278393  1  0  0.317012  0  3.821735  0  0  0.299218  0  4.094101  0  0  0.323069  0  4.096385  0  0  0.126758  0.284283  0  4.090914  0
C  C71  1  0.61771721  0.86671391  0.58278411  1  0  0.317315  0  3.82131  0  0  0.299236  0  4.094088  0  0  0.323087  0  4.096373  0  0  0.126768  0.284303  0  4.090899  0
C  C72  1  0.40163453  0.19695891  0.15340657  1  0  -0.353439  0  3.733662  0  0  -0.403554  0  4.015387  0  0  -0.426455  0  4.035141  0  0  -0.148509  -0.388135  0  4.001197  0
C  C73  1  0.59836556  0.80304057  0.65340676  1  0  -0.353603  0  3.733612  0  0  -0.40363  0  4.015329  0  0  -0.426535  0  4.03509  0  0  -0.148542  -0.388212  0  4.001141  0
C  C74  1  0.53246660  0.29726175  0.16940626  1  0  0.315082  0  3.826639  0  0  0.296368  0  4.101034  0  0  0.318994  0  4.105719  0  0  0.123759  0.281522  0  4.097755  0
C  C75  1  0.46753239  0.70273773  0.66940588  1  0  0.31503  0  3.82678  0  0  0.296371  0  4.101059  0  0  0.318994  0  4.105746  0  0  0.123748  0.281524  0  4.097783  0
C  C76  1  0.54914793  0.35912619  0.24946622  1  0  0.707707  0  3.638573  0  0  0.637634  0  3.973904  0  0  0.665521  0  3.947979  0  0  0.299591  0.617315  0  3.993094  0
C  C77  1  0.45085245  0.64087426  0.74946641  1  0  0.707652  0  3.638563  0  0  0.637566  0  3.973923  0  0  0.665463  0  3.947978  0  0  0.299556  0.617249  0  3.993113  0
O  O78  1  0.52350217  0.43296029  0.99538822  1  0  -0.650843  0  2.119868  0  0  -0.606788  0  2.371547  0  0  -0.630395  0  2.361991  0  0  -0.35012  -0.590626  0  2.37797  0
O  O79  1  0.47649785  0.56703923  0.49538806  1  0  -0.650924  0  2.119949  0  0  -0.60684  0  2.371585  0  0  -0.630447  0  2.362026  0  0  -0.350137  -0.590685  0  2.378023  0
O  O80  1  0.35227325  0.52218049  0.94255485  1  0  -0.27498  0  2.327501  0  0  -0.19916  0  2.572593  0  0  -0.222657  0  2.573125  0  0  -0.154223  -0.183033  0  2.571901  0
O  O81  1  0.64772677  0.47781902  0.44255467  1  0  -0.274948  0  2.327554  0  0  -0.199093  0  2.5726  0  0  -0.22259  0  2.573133  0  0  -0.154209  -0.182967  0  2.571906  0
O  O82  1  0.86332323  0.04310306  0.14811985  1  0  -0.268512  0  2.3325  0  0  -0.198543  0  2.583434  0  0  -0.22067  0  2.580763  0  0  -0.153951  -0.183185  0  2.584143  0
O  O83  1  0.13667608  0.95689738  0.64812008  1  0  -0.268188  0  2.332023  0  0  -0.198414  0  2.583372  0  0  -0.220538  0  2.580702  0  0  -0.153959  -0.183064  0  2.584087  0
O  O84  1  0.76806676  0.13536038  0.05224595  1  0  -0.662136  0  2.135931  0  0  -0.615876  0  2.387342  0  0  -0.639372  0  2.37694  0  0  -0.357019  -0.599664  0  2.393819  0
O  O85  1  0.23193367  0.86464005  0.55224559  1  0  -0.662115  0  2.135823  0  0  -0.615871  0  2.387436  0  0  -0.639367  0  2.377034  0  0  -0.356983  -0.599658  0  2.393909  0
O  O86  1  0.82145138  0.50890282  0.93298021  1  0  -0.594822  0  2.099493  0  0  -0.567996  0  2.33789  0  0  -0.589151  0  2.331769  0  0  -0.365441  -0.55349  0  2.341718  0
O  O87  1  0.17855006  0.49109765  0.43298006  1  0  -0.594889  0  2.099474  0  0  -0.568052  0  2.337857  0  0  -0.589208  0  2.331735  0  0  -0.36545  -0.553544  0  2.341682  0
O  O88  1  0.93971681  0.41572923  0.06028795  1  0  -0.575701  0  2.089793  0  0  -0.54977  0  2.336186  0  0  -0.570395  0  2.329106  0  0  -0.354411  -0.535704  0  2.340763  0
O  O89  1  0.06028330  0.58427024  0.56028759  1  0  -0.575747  0  2.08984  0  0  -0.549774  0  2.336222  0  0  -0.570401  0  2.329141  0  0  -0.35441  -0.535715  0  2.340817  0
O  O90  1  0.57317076  0.24586424  0.88002946  1  0  -0.571527  0  2.074093  0  0  -0.545614  0  2.313641  0  0  -0.566026  0  2.306226  0  0  -0.35606  -0.531853  0  2.318728  0
O  O91  1  0.42682928  0.75413527  0.38002931  1  0  -0.571544  0  2.074097  0  0  -0.545613  0  2.313624  0  0  -0.566024  0  2.30621  0  0  -0.35606  -0.531852  0  2.318712  0
O  O92  1  0.87522913  0.24368609  0.91223565  1  0  -0.57721  0  2.082142  0  0  -0.548562  0  2.319035  0  0  -0.56934  0  2.313102  0  0  -0.35395  -0.534277  0  2.322454  0
O  O93  1  0.12477091  0.75631342  0.41223551  1  0  -0.577264  0  2.082017  0  0  -0.548581  0  2.318962  0  0  -0.569359  0  2.313026  0  0  -0.353943  -0.534298  0  2.322382  0
O  O94  1  0.47049352  0.15535595  0.02611841  1  0  -0.570175  0  2.114887  0  0  -0.543372  0  2.35627  0  0  -0.564006  0  2.349554  0  0  -0.349928  -0.529145  0  2.36005  0
O  O95  1  0.52950581  0.84464448  0.52611861  1  0  -0.570285  0  2.114684  0  0  -0.54338  0  2.356275  0  0  -0.564019  0  2.349567  0  0  -0.34993  -0.52915  0  2.360049  0
O  O96  1  0.64535865  0.34428015  0.12645859  1  0  -0.587308  0  2.104647  0  0  -0.562172  0  2.350249  0  0  -0.58339  0  2.343826  0  0  -0.359317  -0.54757  0  2.354206  0
O  O97  1  0.35464176  0.65572028  0.62645878  1  0  -0.587332  0  2.10476  0  0  -0.562146  0  2.350298  0  0  -0.583363  0  2.343877  0  0  -0.359301  -0.547544  0  2.354257  0
F  F98  1  0.92801994  0.65310009  0.81051441  1  0  -0.230343  0  1.163238  0  0  -0.197777  0  1.329397  0  0  -0.206931  0  1.312573  0  0  -0.094119  -0.190979  0  1.341247  0
F  F99  1  0.07197934  0.34690037  0.31051426  1  0  -0.230354  0  1.163215  0  0  -0.197785  0  1.329407  0  0  -0.206938  0  1.312582  0  0  -0.094133  -0.190987  0  1.341256  0
F  F100  1  0.86395933  0.78178798  0.89315819  1  0  -0.246819  0  1.144922  0  0  -0.214867  0  1.308581  0  0  -0.225046  0  1.294331  0  0  -0.106118  -0.207402  0  1.318537  0
F  F101  1  0.13604070  0.21821152  0.39315803  1  0  -0.246829  0  1.144872  0  0  -0.214863  0  1.308573  0  0  -0.225041  0  1.294323  0  0  -0.10612  -0.207398  0  1.318529  0
F  F102  1  0.10500472  0.78742742  0.87803082  1  0  -0.245185  0  1.159233  0  0  -0.205248  0  1.315528  0  0  -0.214264  0  1.299232  0  0  -0.099119  -0.19879  0  1.327051  0
F  F103  1  0.89499533  0.21257209  0.37803060  1  0  -0.245185  0  1.159219  0  0  -0.20521  0  1.315529  0  0  -0.214227  0  1.299236  0  0  -0.099087  -0.198753  0  1.327051  0
F  F104  1  0.09018791  0.53688518  0.18972466  1  0  -0.232918  0  1.136142  0  0  -0.196343  0  1.286332  0  0  -0.206437  0  1.271641  0  0  -0.099945  -0.19045  0  1.298111  0
F  F105  1  0.90981217  0.46311430  0.68972424  1  0  -0.232924  0  1.136155  0  0  -0.196348  0  1.286342  0  0  -0.206437  0  1.271648  0  0  -0.099953  -0.190453  0  1.298121  0
F  F106  1  0.26175212  0.66564747  0.11700648  1  0  -0.246859  0  1.163038  0  0  -0.209304  0  1.323869  0  0  -0.218201  0  1.308347  0  0  -0.100787  -0.202978  0  1.334854  0
F  F107  1  0.73824719  0.33435297  0.61700606  1  0  -0.246872  0  1.163085  0  0  -0.209289  0  1.323881  0  0  -0.218188  0  1.308361  0  0  -0.100767  -0.202964  0  1.334867  0
F  F108  1  0.23881418  0.45781935  0.11697058  1  0  -0.25465  0  1.1336  0  0  -0.213819  0  1.289296  0  0  -0.224266  0  1.275325  0  0  -0.104184  -0.203433  0  1.296068  0
F  F109  1  0.76118733  0.54218108  0.61697017  1  0  -0.254669  0  1.133621  0  0  -0.213812  0  1.289321  0  0  -0.22426  0  1.275351  0  0  -0.104178  -0.203426  0  1.296094  0
F  F110  1  0.34155217  0.03818087  0.80652275  1  0  -0.245243  0  1.132713  0  0  -0.208837  0  1.285188  0  0  -0.218272  0  1.269347  0  0  -0.10548  -0.200831  0  1.294944  0
F  F111  1  0.65844820  0.96181959  0.30652317  1  0  -0.245256  0  1.132659  0  0  -0.208863  0  1.285104  0  0  -0.218271  0  1.269253  0  0  -0.105472  -0.20085  0  1.294852  0
F  F112  1  0.39456690  0.22993433  0.75377997  1  0  -0.226745  0  1.175605  0  0  -0.198348  0  1.347038  0  0  -0.207638  0  1.330864  0  0  -0.093126  -0.191455  0  1.358331  0
F  F113  1  0.60543238  0.77006612  0.25377980  1  0  -0.226806  0  1.175607  0  0  -0.198441  0  1.346999  0  0  -0.207735  0  1.330831  0  0  -0.093162  -0.19155  0  1.358293  0
F  F114  1  0.48716773  0.08010165  0.70476618  1  0  -0.258111  0  1.163945  0  0  -0.214242  0  1.32162  0  0  -0.22459  0  1.307604  0  0  -0.103277  -0.206905  0  1.331452  0
F  F115  1  0.51283188  0.91989976  0.20476603  1  0  -0.258087  0  1.163866  0  0  -0.214282  0  1.321524  0  0  -0.224636  0  1.307514  0  0  -0.103282  -0.206947  0  1.331357  0
F  F116  1  0.07370683  0.22475545  0.77286143  1  0  -0.25453  0  1.131191  0  0  -0.211139  0  1.282416  0  0  -0.22467  0  1.271079  0  0  -0.101291  -0.204281  0  1.293507  0
F  F117  1  0.92629292  0.77524308  0.27286182  1  0  -0.25448  0  1.131267  0  0  -0.211096  0  1.282499  0  0  -0.22463  0  1.271165  0  0  -0.101249  -0.204238  0  1.29359  0
F  F118  1  0.09011046  0.12621647  0.88088239  1  0  -0.219254  0  1.190194  0  0  -0.190969  0  1.365271  0  0  -0.199018  0  1.348103  0  0  -0.087846  -0.184384  0  1.376974  0
F  F119  1  0.90988958  0.87378303  0.38088278  1  0  -0.2188  0  1.189706  0  0  -0.190954  0  1.365288  0  0  -0.199003  0  1.348122  0  0  -0.087834  -0.18437  0  1.376992  0
F  F120  1  0.95384812  0.01956680  0.78706182  1  0  -0.24985  0  1.196067  0  0  -0.207525  0  1.36223  0  0  -0.215923  0  1.34481  0  0  -0.094234  -0.200867  0  1.374044  0
F  F121  1  0.04615085  0.98043269  0.28706171  1  0  -0.249873  0  1.196095  0  0  -0.207516  0  1.362229  0  0  -0.215914  0  1.34481  0  0  -0.094228  -0.200857  0  1.374046  0
F  F122  1  0.25679856  0.93248309  0.02290278  1  0  -0.225881  0  1.173324  0  0  -0.194627  0  1.344948  0  0  -0.202665  0  1.327696  0  0  -0.090805  -0.187867  0  1.35639  0
F  F123  1  0.74320187  0.06751734  0.52290291  1  0  -0.225699  0  1.172823  0  0  -0.194627  0  1.344961  0  0  -0.202662  0  1.327714  0  0  -0.090811  -0.187866  0  1.356404  0
F  F124  1  0.12661452  0.07442020  0.03583948  1  0  -0.247486  0  1.154477  0  0  -0.201804  0  1.307056  0  0  -0.217291  0  1.297981  0  0  -0.09651  -0.194716  0  1.318062  0
F  F125  1  0.87338560  0.92557926  0.53584022  1  0  -0.248216  0  1.154374  0  0  -0.201787  0  1.307047  0  0  -0.21727  0  1.297975  0  0  -0.096498  -0.194698  0  1.318052  0
F  F126  1  0.17030759  0.96624398  0.13537918  1  0  -0.252983  0  1.178244  0  0  -0.209194  0  1.340739  0  0  -0.220918  0  1.327246  0  0  -0.097136  -0.202475  0  1.352074  0
F  F127  1  0.82969140  0.03375550  0.63537987  1  0  -0.252982  0  1.177882  0  0  -0.209206  0  1.340723  0  0  -0.220922  0  1.327228  0  0  -0.097153  -0.202487  0  1.352058  0
F  F128  1  0.42275130  0.31734148  0.29387017  1  0  -0.241577  0  1.156137  0  0  -0.208832  0  1.322255  0  0  -0.2178  0  1.305845  0  0  -0.09874  -0.202293  0  1.333846  0
F  F129  1  0.57724876  0.68265801  0.79386978  1  0  -0.241572  0  1.156149  0  0  -0.208811  0  1.322271  0  0  -0.217784  0  1.305858  0  0  -0.098732  -0.202271  0  1.333862  0
F  F130  1  0.66775138  0.33151888  0.28724797  1  0  -0.253112  0  1.133918  0  0  -0.213069  0  1.287217  0  0  -0.221808  0  1.270566  0  0  -0.104452  -0.20658  0  1.298948  0
F  F131  1  0.33224790  0.66848158  0.78724817  1  0  -0.253101  0  1.133869  0  0  -0.213043  0  1.287162  0  0  -0.221784  0  1.270507  0  0  -0.104422  -0.206552  0  1.298893  0
F  F132  1  0.58129098  0.48927814  0.24444731  1  0  -0.229121  0  1.137311  0  0  -0.196276  0  1.296634  0  0  -0.205117  0  1.280139  0  0  -0.097674  -0.189804  0  1.308323  0
F  F133  1  0.41870690  0.51072135  0.74444692  1  0  -0.22911  0  1.137294  0  0  -0.19626  0  1.296622  0  0  -0.205104  0  1.280121  0  0  -0.097668  -0.189788  0  1.308311  0
