# generated using pymatgen
data_CdH9C10N5Cl2
_symmetry_space_group_name_H-M   'P 1'
_cell_length_a   11.48118103
_cell_length_b   11.48413215
_cell_length_c   12.52550114
_cell_angle_alpha   85.61470794
_cell_angle_beta   62.73019096
_cell_angle_gamma   60.00492688
_symmetry_Int_Tables_number   1
_chemical_formula_structural   CdH9C10N5Cl2
_chemical_formula_sum   'Cd4 H36 C40 N20 Cl8'
_cell_volume   1246.12202003
_cell_formula_units_Z   4
loop_
 _symmetry_equiv_pos_site_id
 _symmetry_equiv_pos_as_xyz
  1  'x, y, z'
loop_
 _atom_site_type_symbol
 _atom_site_label
 _atom_site_symmetry_multiplicity
 _atom_site_fract_x
 _atom_site_fract_y
 _atom_site_fract_z
 _atom_site_occupancy
 _atom_site_hle17_bader_spin_density
 _atom_site_hle17_ddec_charge
 _atom_site_hle17_ddec_spin_density
 _atom_site_hle17_ddec_sum_bond_order
 _atom_site_hle17_magmom
 _atom_site_hse06_10hf_bader_spin_density
 _atom_site_hse06_10hf_ddec_charge
 _atom_site_hse06_10hf_ddec_spin_density
 _atom_site_hse06_10hf_ddec_sum_bond_order
 _atom_site_hse06_10hf_magmom
 _atom_site_hse06_bader_spin_density
 _atom_site_hse06_ddec_charge
 _atom_site_hse06_ddec_spin_density
 _atom_site_hse06_ddec_sum_bond_order
 _atom_site_hse06_magmom
 _atom_site_pbe_bader_spin_density
 _atom_site_pbe_cm5_charge
 _atom_site_pbe_ddec_charge
 _atom_site_pbe_ddec_spin_density
 _atom_site_pbe_ddec_sum_bond_order
 _atom_site_pbe_magmom
Cd  Cd0  1  0.00476597  0.08429291  0.12777767  1  0  0.970056  0  1.955298  0  0  0.80644  0  2.422069  0  0  0.851807  0  2.381765  0  0  0.600644  0.774208  0  2.449978  0
Cd  Cd1  1  0.71683980  0.41585190  0.37225341  1  0  0.970338  0  1.955249  0  0  0.80654  0  2.422646  0  0  0.851971  0  2.382195  0  0  0.600433  0.774289  0  2.450625  0
Cd  Cd2  1  0.99523560  0.91570759  0.87222171  1  0  0.970072  0  1.955282  0  0  0.806458  0  2.42206  0  0  0.851829  0  2.381753  0  0  0.600643  0.774222  0  2.449972  0
Cd  Cd3  1  0.28315980  0.58414860  0.62774759  1  0  0.97031  0  1.955224  0  0  0.806511  0  2.42262  0  0  0.851943  0  2.382172  0  0  0.600405  0.774271  0  2.450563  0
H  H4  1  0.43416001  0.98905361  0.24959754  1  0  0.303031  0  0.928773  0  0  0.279389  0  0.998593  0  0  0.28796  0  0.992332  0  0  0.306664  0.273018  0  1.003761  0
H  H5  1  0.17322237  0.51052681  0.25033841  1  0  0.30148  0  0.929259  0  0  0.278355  0  0.99875  0  0  0.286893  0  0.992478  0  0  0.306291  0.271968  0  1.003982  0
H  H6  1  0.56584021  0.01094586  0.75040167  1  0  0.303036  0  0.928774  0  0  0.279392  0  0.998586  0  0  0.287962  0  0.992325  0  0  0.306671  0.273021  0  1.003763  0
H  H7  1  0.82677746  0.48947164  0.74966182  1  0  0.301496  0  0.929234  0  0  0.278369  0  0.998719  0  0  0.286906  0  0.99245  0  0  0.306298  0.271989  0  1.003946  0
H  H8  1  0.15754094  0.28483069  0.98987225  1  0  0.091561  0  0.988243  0  0  0.099969  0  1.057245  0  0  0.102468  0  1.055996  0  0  0.089157  0.098215  0  1.058253  0
H  H9  1  0.93241969  0.21500350  0.51015453  1  0  0.091098  0  0.988722  0  0  0.099548  0  1.057464  0  0  0.102019  0  1.056291  0  0  0.088869  0.097816  0  1.058458  0
H  H10  1  0.84245648  0.71517186  0.01012870  1  0  0.091571  0  0.988239  0  0  0.099976  0  1.057242  0  0  0.102489  0  1.055978  0  0  0.089157  0.098214  0  1.058254  0
H  H11  1  0.06758149  0.78499597  0.48984588  1  0  0.091111  0  0.988719  0  0  0.099561  0  1.05746  0  0  0.102035  0  1.056284  0  0  0.088857  0.097831  0  1.058446  0
H  H12  1  0.31525531  0.39528226  0.92232358  1  0  0.092193  0  0.969493  0  0  0.101732  0  1.033163  0  0  0.104206  0  1.032826  0  0  0.08591  0.099745  0  1.033806  0
H  H13  1  0.13294805  0.10453085  0.57782524  1  0  0.09261  0  0.968912  0  0  0.102144  0  1.032635  0  0  0.104644  0  1.032248  0  0  0.086165  0.100136  0  1.033322  0
H  H14  1  0.68474466  0.60471927  0.07767799  1  0  0.092252  0  0.969471  0  0  0.101785  0  1.033134  0  0  0.104259  0  1.032796  0  0  0.085931  0.099802  0  1.03377  0
H  H15  1  0.86705473  0.89546760  0.42217378  1  0  0.09263  0  0.968863  0  0  0.102131  0  1.032621  0  0  0.104641  0  1.032222  0  0  0.086162  0.10012  0  1.033299  0
H  H16  1  0.50598837  0.33677833  0.98993565  1  0  0.086942  0  0.960552  0  0  0.099113  0  1.019723  0  0  0.10125  0  1.019471  0  0  0.096183  0.097075  0  1.021234  0
H  H17  1  0.33298012  0.16279051  0.51013306  1  0  0.087567  0  0.961449  0  0  0.099439  0  1.020782  0  0  0.101636  0  1.020471  0  0  0.096457  0.097394  0  1.02229  0
H  H18  1  0.49401061  0.66322320  0.01006713  1  0  0.08692  0  0.960579  0  0  0.099084  0  1.01975  0  0  0.101228  0  1.019491  0  0  0.096186  0.097046  0  1.021264  0
H  H19  1  0.66702047  0.83720999  0.48986673  1  0  0.087557  0  0.961431  0  0  0.099432  0  1.020764  0  0  0.101628  0  1.020453  0  0  0.096451  0.097385  0  1.022272  0
H  H20  1  0.55560052  0.16178346  0.11941032  1  0  0.119236  0  0.964114  0  0  0.128627  0  1.025326  0  0  0.131982  0  1.023039  0  0  0.095051  0.12621  0  1.026881  0
H  H21  1  0.33737888  0.33751028  0.38036438  1  0  0.120131  0  0.96226  0  0  0.129783  0  1.023081  0  0  0.133101  0  1.02083  0  0  0.095607  0.127362  0  1.024638  0
H  H22  1  0.44439628  0.83822012  0.88059242  1  0  0.1192  0  0.9641  0  0  0.128578  0  1.025341  0  0  0.131934  0  1.023052  0  0  0.095021  0.126158  0  1.026907  0
H  H23  1  0.66262134  0.66248919  0.61963483  1  0  0.120141  0  0.962223  0  0  0.12978  0  1.023066  0  0  0.133098  0  1.020814  0  0  0.095606  0.127362  0  1.024622  0
H  H24  1  0.27729202  0.88246478  0.33998511  1  0  0.114243  0  0.927265  0  0  0.127862  0  0.989822  0  0  0.129021  0  0.988315  0  0  0.127119  0.12703  0  0.990299  0
H  H25  1  0.99992291  0.61755315  0.16027215  1  0  0.113881  0  0.926537  0  0  0.127809  0  0.988654  0  0  0.129018  0  0.987117  0  0  0.126971  0.127024  0  0.989037  0
H  H26  1  0.72270978  0.11753367  0.66001351  1  0  0.114243  0  0.927241  0  0  0.127844  0  0.989829  0  0  0.129002  0  0.988321  0  0  0.127115  0.127013  0  0.990308  0
H  H27  1  0.00007889  0.38244530  0.83972727  1  0  0.113914  0  0.926549  0  0  0.127839  0  0.988674  0  0  0.129051  0  0.987132  0  0  0.126991  0.127052  0  0.989057  0
H  H28  1  0.08707989  0.00139955  0.36567775  1  0  0.113841  0  0.945359  0  0  0.12363  0  1.013212  0  0  0.125761  0  1.010493  0  0  0.112848  0.121899  0  1.014764  0
H  H29  1  0.95437770  0.49864938  0.13443266  1  0  0.113526  0  0.943824  0  0  0.123408  0  1.011774  0  0  0.125479  0  1.009141  0  0  0.112924  0.121775  0  1.013196  0
H  H30  1  0.91292288  0.99859890  0.63432127  1  0  0.1138  0  0.945365  0  0  0.123625  0  1.013183  0  0  0.125756  0  1.010464  0  0  0.11285  0.121898  0  1.014733  0
H  H31  1  0.04562153  0.50135010  0.86556775  1  0  0.113512  0  0.943882  0  0  0.123398  0  1.01183  0  0  0.125468  0  1.0092  0  0  0.11292  0.121767  0  1.013247  0
H  H32  1  0.33244029  0.64192146  0.29197815  1  0  0.110764  0  0.987288  0  0  0.116242  0  1.057985  0  0  0.119494  0  1.053146  0  0  0.119671  0.113547  0  1.061242  0
H  H33  1  0.76657643  0.85798461  0.20774687  1  0  0.109591  0  0.986938  0  0  0.115062  0  1.05775  0  0  0.118313  0  1.052957  0  0  0.119533  0.1124  0  1.060975  0
H  H34  1  0.66756092  0.35807802  0.70801985  1  0  0.110766  0  0.987305  0  0  0.116233  0  1.058018  0  0  0.119485  0  1.053177  0  0  0.119674  0.113527  0  1.0613  0
H  H35  1  0.23342341  0.14201384  0.79225256  1  0  0.109616  0  0.986885  0  0  0.115073  0  1.057719  0  0  0.118328  0  1.052929  0  0  0.119525  0.112414  0  1.060946  0
H  H36  1  0.12244457  0.72567349  0.07132111  1  0  0.087824  0  0.985869  0  0  0.092749  0  1.059324  0  0  0.094986  0  1.056364  0  0  0.112988  0.09091  0  1.06174  0
H  H37  1  0.41958496  0.77446100  0.42857082  1  0  0.088133  0  0.986808  0  0  0.093138  0  1.059943  0  0  0.095377  0  1.056983  0  0  0.113228  0.091364  0  1.062263  0
H  H38  1  0.87755406  0.27432701  0.92867869  1  0  0.087825  0  0.985879  0  0  0.092752  0  1.059329  0  0  0.094991  0  1.056368  0  0  0.113001  0.090915  0  1.061735  0
H  H39  1  0.58041428  0.22553847  0.57142880  1  0  0.088135  0  0.98684  0  0  0.093142  0  1.059964  0  0  0.095381  0  1.057005  0  0  0.113221  0.091366  0  1.062289  0
C  C40  1  0.26914829  0.16209606  0.09140554  1  0  0.150664  0  3.813535  0  0  0.14933  0  4.059272  0  0  0.15303  0  4.082741  0  0  0.082617  0.147063  0  4.043436  0
C  C41  1  0.02304058  0.33751822  0.40847646  1  0  0.153593  0  3.808705  0  0  0.151909  0  4.054618  0  0  0.155647  0  4.078037  0  0  0.083778  0.14956  0  4.038818  0
C  C42  1  0.73084854  0.83790752  0.90859479  1  0  0.150676  0  3.8135  0  0  0.149351  0  4.059262  0  0  0.153057  0  4.082724  0  0  0.082613  0.147085  0  4.043416  0
C  C43  1  0.97696083  0.66247920  0.59152399  1  0  0.153637  0  3.808864  0  0  0.151947  0  4.054774  0  0  0.155688  0  4.078194  0  0  0.083769  0.149591  0  4.038978  0
C  C44  1  0.24562856  0.25738817  0.01531315  1  0  -0.151527  0  3.764873  0  0  -0.16941  0  4.016867  0  0  -0.172645  0  4.038632  0  0  -0.10713  -0.167338  0  4.002141  0
C  C45  1  0.01862039  0.24230988  0.48464812  1  0  -0.151102  0  3.764622  0  0  -0.168784  0  4.01665  0  0  -0.172042  0  4.038418  0  0  -0.106766  -0.166783  0  4.001985  0
C  C46  1  0.75437044  0.74261336  0.98468802  1  0  -0.151546  0  3.764848  0  0  -0.169418  0  4.016835  0  0  -0.172669  0  4.038591  0  0  -0.107154  -0.167349  0  4.002106  0
C  C47  1  0.98138080  0.75768960  0.51535148  1  0  -0.151185  0  3.764619  0  0  -0.168872  0  4.016642  0  0  -0.172134  0  4.038416  0  0  -0.106778  -0.16687  0  4.00197  0
C  C48  1  0.33343895  0.31791215  0.97903010  1  0  -0.091658  0  3.784969  0  0  -0.10985  0  4.046778  0  0  -0.112876  0  4.070624  0  0  -0.11256  -0.107432  0  4.031156  0
C  C49  1  0.13059641  0.18178355  0.52101049  1  0  -0.092776  0  3.783883  0  0  -0.110975  0  4.045684  0  0  -0.114012  0  4.069518  0  0  -0.113111  -0.108627  0  4.030158  0
C  C50  1  0.66656005  0.68208938  0.02097028  1  0  -0.091772  0  3.785021  0  0  -0.109962  0  4.046834  0  0  -0.112988  0  4.070686  0  0  -0.112583  -0.107545  0  4.031201  0
C  C51  1  0.86940478  0.81821592  0.47898912  1  0  -0.092713  0  3.783787  0  0  -0.110879  0  4.045581  0  0  -0.113923  0  4.069405  0  0  -0.11307  -0.108529  0  4.030043  0
C  C52  1  0.44304869  0.28396032  0.01703880  1  0  -0.069739  0  3.779109  0  0  -0.091097  0  4.045509  0  0  -0.092467  0  4.067006  0  0  -0.104185  -0.090372  0  4.032505  0
C  C53  1  0.24440014  0.21557086  0.48293651  1  0  -0.069669  0  3.781288  0  0  -0.090671  0  4.047689  0  0  -0.092083  0  4.06916  0  0  -0.104338  -0.089919  0  4.034651  0
C  C54  1  0.55694813  0.71604326  0.98296314  1  0  -0.069644  0  3.779135  0  0  -0.090992  0  4.04552  0  0  -0.092366  0  4.067012  0  0  -0.104154  -0.090273  0  4.032525  0
C  C55  1  0.75560165  0.78442759  0.51706291  1  0  -0.069697  0  3.781302  0  0  -0.090699  0  4.047687  0  0  -0.09211  0  4.069164  0  0  -0.104362  -0.089947  0  4.034647  0
C  C56  1  0.47018231  0.18773385  0.09100780  1  0  -0.140322  0  3.71519  0  0  -0.158682  0  3.968786  0  0  -0.161014  0  3.987224  0  0  -0.095723  -0.157311  0  3.956539  0
C  C57  1  0.24948016  0.31160667  0.40879681  1  0  -0.142239  0  3.717203  0  0  -0.160979  0  3.970605  0  0  -0.163292  0  3.989092  0  0  -0.096329  -0.159488  0  3.958201  0
C  C58  1  0.52981509  0.81226870  0.90899557  1  0  -0.140293  0  3.715256  0  0  -0.158627  0  3.968863  0  0  -0.160959  0  3.987303  0  0  -0.095719  -0.157259  0  3.956621  0
C  C59  1  0.75052104  0.68839280  0.59120199  1  0  -0.14223  0  3.717264  0  0  -0.160974  0  3.970677  0  0  -0.163286  0  3.989163  0  0  -0.096328  -0.159487  0  3.958275  0
C  C60  1  0.38109287  0.12785421  0.12768229  1  0  0.160214  0  3.773407  0  0  0.150849  0  4.018228  0  0  0.155282  0  4.040006  0  0  0.094778  0.147985  0  4.003644  0
C  C61  1  0.13716488  0.37157775  0.37212129  1  0  0.160175  0  3.771501  0  0  0.151614  0  4.0159  0  0  0.15598  0  4.037727  0  0  0.09518  0.148804  0  4.001185  0
C  C62  1  0.61890650  0.87214835  0.87231865  1  0  0.1602  0  3.773441  0  0  0.150774  0  4.01832  0  0  0.155203  0  4.040098  0  0  0.094788  0.147921  0  4.003726  0
C  C63  1  0.86283691  0.62842070  0.62787814  1  0  0.160141  0  3.771651  0  0  0.151595  0  4.016025  0  0  0.155958  0  4.037854  0  0  0.095188  0.148786  0  4.001309  0
C  C64  1  0.25994394  0.01656170  0.21180090  1  0  0.38525  0  3.6951  0  0  0.353008  0  3.97544  0  0  0.371316  0  3.986385  0  0  0.230802  0.341  0  3.966915  0
C  C65  1  0.98852055  0.48332083  0.28831860  1  0  0.385267  0  3.697979  0  0  0.35422  0  3.977325  0  0  0.372645  0  3.988175  0  0  0.231242  0.342133  0  3.968914  0
C  C66  1  0.74005568  0.98343880  0.78819849  1  0  0.385291  0  3.695055  0  0  0.353009  0  3.975443  0  0  0.371306  0  3.986406  0  0  0.230805  0.340996  0  3.966927  0
C  C67  1  0.01147869  0.51667865  0.71168101  1  0  0.38525  0  3.697995  0  0  0.354193  0  3.977363  0  0  0.372625  0  3.988199  0  0  0.231225  0.342107  0  3.968951  0
C  C68  1  0.20749687  0.93240143  0.29490843  1  0  -0.113581  0  3.644298  0  0  -0.186484  0  3.887446  0  0  -0.1752  0  3.897272  0  0  -0.033776  -0.188079  0  3.883354  0
C  C69  1  0.93498491  0.56761717  0.20526269  1  0  -0.112244  0  3.643011  0  0  -0.185327  0  3.885864  0  0  -0.174343  0  3.895603  0  0  -0.033476  -0.186941  0  3.881695  0
C  C70  1  0.79250433  0.06759804  0.70509038  1  0  -0.113549  0  3.644199  0  0  -0.186455  0  3.887366  0  0  -0.175162  0  3.897198  0  0  -0.033776  -0.188049  0  3.883276  0
C  C71  1  0.06501494  0.43238128  0.79473674  1  0  -0.112221  0  3.643064  0  0  -0.18534  0  3.885966  0  0  -0.174358  0  3.895694  0  0  -0.03347  -0.186948  0  3.881793  0
C  C72  1  0.27019298  0.69230019  0.24148420  1  0  0.165716  0  3.639939  0  0  0.092948  0  3.911143  0  0  0.116651  0  3.923295  0  0  0.161127  0.08422  0  3.904604  0
C  C73  1  0.70418781  0.80765071  0.25834132  1  0  0.169419  0  3.633269  0  0  0.096901  0  3.904549  0  0  0.120365  0  3.916592  0  0  0.162484  0.088145  0  3.898036  0
C  C74  1  0.72980823  0.30769928  0.75851380  1  0  0.165732  0  3.639985  0  0  0.092972  0  3.911179  0  0  0.116684  0  3.923334  0  0  0.161127  0.084244  0  3.904668  0
C  C75  1  0.29581240  0.19234876  0.74165869  1  0  0.169414  0  3.63325  0  0  0.096886  0  3.904515  0  0  0.120346  0  3.916561  0  0  0.162489  0.088123  0  3.898017  0
C  C76  1  0.16097762  0.73697330  0.13251949  1  0  0.208578  0  3.69956  0  0  0.152629  0  3.989653  0  0  0.16587  0  3.998193  0  0  0.146082  0.144564  0  3.981807  0
C  C77  1  0.53062783  0.76311604  0.36741235  1  0  0.206464  0  3.700697  0  0  0.150529  0  3.990681  0  0  0.163757  0  3.999291  0  0  0.14504  0.142433  0  3.98283  0
C  C78  1  0.83902260  0.26302618  0.86747972  1  0  0.208616  0  3.699603  0  0  0.152669  0  3.989693  0  0  0.165907  0  3.998235  0  0  0.146091  0.144605  0  3.981835  0
C  C79  1  0.46937337  0.23688344  0.63258645  1  0  0.206392  0  3.700745  0  0  0.150463  0  3.99073  0  0  0.163692  0  3.99934  0  0  0.145007  0.142372  0  3.982877  0
N  N80  1  0.19526320  0.09102053  0.14612399  1  0  -0.468226  0  3.140351  0  0  -0.411386  0  3.422356  0  0  -0.433691  0  3.437875  0  0  -0.353132  -0.396327  0  3.411783  0
N  N81  1  0.93261888  0.40884702  0.35392807  1  0  -0.47089  0  3.141058  0  0  -0.414459  0  3.423173  0  0  -0.436794  0  3.438599  0  0  -0.354574  -0.399419  0  3.412732  0
N  N82  1  0.80473678  0.90898100  0.85387678  1  0  -0.468229  0  3.140301  0  0  -0.411397  0  3.422345  0  0  -0.433703  0  3.437867  0  0  -0.353123  -0.396329  0  3.411757  0
N  N83  1  0.06738135  0.59115245  0.64607034  1  0  -0.470859  0  3.141137  0  0  -0.414448  0  3.423285  0  0  -0.436787  0  3.43871  0  0  -0.354549  -0.399406  0  3.412838  0
N  N84  1  0.37195568  0.03484585  0.20328117  1  0  -0.372074  0  3.369546  0  0  -0.309244  0  3.596233  0  0  -0.328478  0  3.610721  0  0  -0.365973  -0.296261  0  3.586769  0
N  N85  1  0.11051279  0.46475218  0.29666176  1  0  -0.369536  0  3.369544  0  0  -0.308259  0  3.596318  0  0  -0.327445  0  3.6108  0  0  -0.365507  -0.295269  0  3.586868  0
N  N86  1  0.62804431  0.96515568  0.79671880  1  0  -0.372117  0  3.369571  0  0  -0.309226  0  3.596252  0  0  -0.328451  0  3.61074  0  0  -0.366009  -0.29625  0  3.5868  0
N  N87  1  0.88948804  0.53524627  0.70333646  1  0  -0.369571  0  3.369569  0  0  -0.308268  0  3.596313  0  0  -0.327454  0  3.61079  0  0  -0.365528  -0.295291  0  3.586871  0
N  N88  1  0.21257463  0.82560679  0.23348688  1  0  0.056511  0  3.550333  0  0  0.170089  0  3.735887  0  0  0.131478  0  3.796821  0  0  -0.133357  0.177318  0  3.717971  0
N  N89  1  0.77183943  0.67443453  0.26660131  1  0  0.056123  0  3.549884  0  0  0.169069  0  3.736167  0  0  0.131116  0  3.796282  0  0  -0.132772  0.176303  0  3.718311  0
N  N90  1  0.78742598  0.17439371  0.76651130  1  0  0.056467  0  3.55035  0  0  0.17004  0  3.735925  0  0  0.131408  0  3.796877  0  0  -0.133374  0.177272  0  3.718011  0
N  N91  1  0.22816139  0.32556392  0.73339852  1  0  0.056084  0  3.549916  0  0  0.169098  0  3.73613  0  0  0.131141  0  3.796249  0  0  -0.132771  0.176318  0  3.718298  0
N  N92  1  0.14116587  0.85577007  0.16486813  1  0  -0.29051  0  3.061887  0  0  -0.256621  0  3.334554  0  0  -0.263005  0  3.357778  0  0  -0.231375  -0.245807  0  3.321924  0
N  N93  1  0.66193754  0.64435722  0.33528488  1  0  -0.290764  0  3.061581  0  0  -0.256633  0  3.334467  0  0  -0.263227  0  3.357564  0  0  -0.232121  -0.24581  0  3.321852  0
N  N94  1  0.85883571  0.14423042  0.83512964  1  0  -0.290487  0  3.06193  0  0  -0.256605  0  3.334601  0  0  -0.262978  0  3.357828  0  0  -0.231373  -0.245784  0  3.321959  0
N  N95  1  0.33806170  0.35564226  0.66471474  1  0  -0.290732  0  3.061539  0  0  -0.256622  0  3.334419  0  0  -0.263215  0  3.357514  0  0  -0.232118  -0.245794  0  3.3218  0
N  N96  1  0.23889366  0.63332245  0.17875130  1  0  -0.384962  0  3.019599  0  0  -0.341645  0  3.298326  0  0  -0.356366  0  3.304523  0  0  -0.329896  -0.331599  0  3.292941  0
N  N97  1  0.55119431  0.86667017  0.32098633  1  0  -0.385254  0  3.013754  0  0  -0.341896  0  3.292567  0  0  -0.356611  0  3.298821  0  0  -0.329689  -0.331917  0  3.287257  0
N  N98  1  0.76110657  0.36667702  0.82124711  1  0  -0.38501  0  3.019592  0  0  -0.341692  0  3.298307  0  0  -0.356413  0  3.304506  0  0  -0.329892  -0.331642  0  3.292919  0
N  N99  1  0.44880553  0.13332828  0.67901310  1  0  -0.38521  0  3.013777  0  0  -0.341858  0  3.29259  0  0  -0.356573  0  3.298845  0  0  -0.329658  -0.331874  0  3.28728  0
Cl  Cl100  1  0.82522899  0.01747092  0.11072756  1  0  -0.560862  0  1.00776  0  0  -0.497863  0  1.277834  0  0  -0.516833  0  1.256949  0  0  -0.296819  -0.484339  0  1.292387  0
Cl  Cl101  1  0.45336606  0.48266817  0.38925247  1  0  -0.561335  0  1.0071  0  0  -0.498538  0  1.277723  0  0  -0.517476  0  1.256695  0  0  -0.29713  -0.485041  0  1.292194  0
Cl  Cl102  1  0.17477378  0.98252753  0.88927146  1  0  -0.560854  0  1.007736  0  0  -0.497841  0  1.277817  0  0  -0.516814  0  1.256934  0  0  -0.296804  -0.484314  0  1.292374  0
Cl  Cl103  1  0.54663453  0.51733233  0.61074731  1  0  -0.561326  0  1.007091  0  0  -0.498518  0  1.277726  0  0  -0.517459  0  1.256697  0  0  -0.297121  -0.485018  0  1.292195  0
Cl  Cl104  1  0.85649207  0.34431594  0.12204182  1  0  -0.573389  0  0.984687  0  0  -0.512562  0  1.262223  0  0  -0.530229  0  1.240834  0  0  -0.298012  -0.499354  0  1.276984  0
Cl  Cl105  1  0.82266886  0.15585474  0.37799454  1  0  -0.573372  0  0.984504  0  0  -0.512715  0  1.262166  0  0  -0.530405  0  1.240827  0  0  -0.29808  -0.499486  0  1.277068  0
Cl  Cl106  1  0.14350754  0.65568456  0.87795837  1  0  -0.573386  0  0.984691  0  0  -0.512554  0  1.262222  0  0  -0.53022  0  1.240833  0  0  -0.298015  -0.499349  0  1.276981  0
Cl  Cl107  1  0.17733369  0.84414576  0.62200443  1  0  -0.573363  0  0.984491  0  0  -0.512705  0  1.26215  0  0  -0.530399  0  1.240815  0  0  -0.298072  -0.49948  0  1.277047  0
