# generated using pymatgen
data_KH8AuC10(NCl2)2
_symmetry_space_group_name_H-M   'P 1'
_cell_length_a   7.94516613
_cell_length_b   10.57737078
_cell_length_c   10.57738063
_cell_angle_alpha   74.08240581
_cell_angle_beta   67.92028235
_cell_angle_gamma   67.92034185
_symmetry_Int_Tables_number   1
_chemical_formula_structural   KH8AuC10(NCl2)2
_chemical_formula_sum   'K2 H16 Au2 C20 N4 Cl8'
_cell_volume   754.10574195
_cell_formula_units_Z   2
loop_
 _symmetry_equiv_pos_site_id
 _symmetry_equiv_pos_as_xyz
  1  'x, y, z'
loop_
 _atom_site_type_symbol
 _atom_site_label
 _atom_site_symmetry_multiplicity
 _atom_site_fract_x
 _atom_site_fract_y
 _atom_site_fract_z
 _atom_site_occupancy
 _atom_site_hle17_bader_spin_density
 _atom_site_hle17_ddec_charge
 _atom_site_hle17_ddec_spin_density
 _atom_site_hle17_ddec_sum_bond_order
 _atom_site_hle17_magmom
 _atom_site_hse06_10hf_bader_spin_density
 _atom_site_hse06_10hf_ddec_charge
 _atom_site_hse06_10hf_ddec_spin_density
 _atom_site_hse06_10hf_ddec_sum_bond_order
 _atom_site_hse06_10hf_magmom
 _atom_site_hse06_bader_spin_density
 _atom_site_hse06_ddec_charge
 _atom_site_hse06_ddec_spin_density
 _atom_site_hse06_ddec_sum_bond_order
 _atom_site_hse06_magmom
 _atom_site_pbe_bader_spin_density
 _atom_site_pbe_cm5_charge
 _atom_site_pbe_ddec_charge
 _atom_site_pbe_ddec_spin_density
 _atom_site_pbe_ddec_sum_bond_order
 _atom_site_pbe_magmom
K  K0  1  0.24999786  0.74999650  0.75000029  1  0  0.907624  0  0.315115  0  0  0.832249  0  0.476386  0  0  0.848504  0  0.457526  0  0  0.574208  0.818983  0  0.49127  0
K  K1  1  0.74999569  0.25000271  0.25000207  1  0  0.907621  0  0.315118  0  0  0.832244  0  0.476391  0  0  0.848497  0  0.45753  0  0  0.574212  0.818977  0  0.491274  0
H  H2  1  0.26610963  0.04321878  0.19340220  1  0  0.100987  0  0.994007  0  0  0.103247  0  1.070072  0  0  0.106881  0  1.068586  0  0  0.090201  0.10091  0  1.07087  0
H  H3  1  0.50264519  0.80664261  0.95681469  1  0  0.101592  0  0.99321  0  0  0.104374  0  1.068497  0  0  0.10805  0  1.066957  0  0  0.089515  0.101619  0  1.069962  0
H  H4  1  0.76611104  0.69340308  0.54322063  1  0  0.100965  0  0.994091  0  0  0.103257  0  1.070105  0  0  0.10689  0  1.068618  0  0  0.090209  0.10092  0  1.070903  0
H  H5  1  0.99735299  0.54318525  0.69335906  1  0  0.101587  0  0.993202  0  0  0.104369  0  1.06849  0  0  0.108043  0  1.066952  0  0  0.089528  0.101613  0  1.069956  0
H  H6  1  0.73388907  0.95677974  0.80659707  1  0  0.100974  0  0.994074  0  0  0.103259  0  1.070088  0  0  0.106894  0  1.068602  0  0  0.090204  0.100922  0  1.070886  0
H  H7  1  0.49735361  0.19335857  0.04318455  1  0  0.101579  0  0.993215  0  0  0.104364  0  1.068502  0  0  0.108052  0  1.06695  0  0  0.089518  0.101608  0  1.069967  0
H  H8  1  0.23389061  0.30659658  0.45677863  1  0  0.100971  0  0.994079  0  0  0.103261  0  1.070097  0  0  0.106895  0  1.068609  0  0  0.090204  0.100924  0  1.070896  0
H  H9  1  0.00264537  0.45681320  0.30664330  1  0  0.10159  0  0.993179  0  0  0.104379  0  1.068469  0  0  0.108066  0  1.066919  0  0  0.089533  0.101622  0  1.069934  0
H  H10  1  0.25378612  0.85680785  0.39521875  1  0  0.063244  0  0.972301  0  0  0.066424  0  1.048072  0  0  0.069297  0  1.045239  0  0  0.093808  0.064891  0  1.049233  0
H  H11  1  0.50564850  0.60479329  0.14325791  1  0  0.06428  0  0.971869  0  0  0.067616  0  1.046809  0  0  0.070421  0  1.04403  0  0  0.093277  0.065393  0  1.049264  0
H  H12  1  0.75378782  0.89521794  0.35680849  1  0  0.063253  0  0.972235  0  0  0.066432  0  1.048005  0  0  0.069304  0  1.045172  0  0  0.093799  0.064899  0  1.049166  0
H  H13  1  0.99434764  0.35674357  0.89520732  1  0  0.064277  0  0.97184  0  0  0.067615  0  1.046771  0  0  0.07042  0  1.043993  0  0  0.093292  0.065393  0  1.049225  0
H  H14  1  0.74621121  0.14319147  0.60478155  1  0  0.063274  0  0.97229  0  0  0.066456  0  1.048053  0  0  0.069328  0  1.04522  0  0  0.093823  0.064922  0  1.049214  0
H  H15  1  0.49434749  0.39520816  0.85674339  1  0  0.06425  0  0.971857  0  0  0.067587  0  1.046796  0  0  0.070392  0  1.044017  0  0  0.093276  0.065365  0  1.049251  0
H  H16  1  0.24621285  0.10478134  0.64319078  1  0  0.063263  0  0.972238  0  0  0.066445  0  1.048008  0  0  0.069316  0  1.045176  0  0  0.093814  0.064912  0  1.04917  0
H  H17  1  0.00565125  0.64325769  0.10479398  1  0  0.064289  0  0.97183  0  0  0.067612  0  1.046787  0  0  0.070423  0  1.044006  0  0  0.093276  0.065389  0  1.049243  0
Au  Au18  1  0.99999888  0.00000140  0.99999876  1  0  0.498419  0  3.161274  0  0  0.467939  0  3.785236  0  0  0.500075  0  3.74147  0  0  0.510022  0.446536  0  3.814965  0
Au  Au19  1  0.50000038  0.49999968  0.50000066  1  0  0.498433  0  3.161288  0  0  0.467952  0  3.785254  0  0  0.500091  0  3.741487  0  0  0.510033  0.44655  0  3.814983  0
C  C20  1  0.24999916  0.19191746  0.30808271  1  0  0.071563  0  3.799335  0  0  0.08976  0  4.017719  0  0  0.092492  0  4.04131  0  0  0.003513  0.08793  0  4.001906  0
C  C21  1  0.75000187  0.69187309  0.80812513  1  0  0.076119  0  3.796755  0  0  0.093369  0  4.016237  0  0  0.096163  0  4.039846  0  0  0.004311  0.091649  0  4.000041  0
C  C22  1  0.74999914  0.80808223  0.69191758  1  0  0.071572  0  3.799376  0  0  0.089805  0  4.017736  0  0  0.092538  0  4.041324  0  0  0.003539  0.087974  0  4.001925  0
C  C23  1  0.25000112  0.30812444  0.19187312  1  0  0.076067  0  3.796825  0  0  0.093354  0  4.01627  0  0  0.096146  0  4.039888  0  0  0.004321  0.091634  0  4.000073  0
C  C24  1  0.25872962  0.06212409  0.29192112  1  0  -0.176728  0  3.723218  0  0  -0.191023  0  3.964936  0  0  -0.199061  0  3.986926  0  0  -0.092537  -0.18591  0  3.950319  0
C  C25  1  0.61266470  0.70808149  0.93791816  1  0  -0.180235  0  3.723388  0  0  -0.194723  0  3.965252  0  0  -0.202817  0  3.987168  0  0  -0.093688  -0.189292  0  3.95053  0
C  C26  1  0.75872978  0.79192005  0.56212658  1  0  -0.176752  0  3.723303  0  0  -0.191081  0  3.964999  0  0  -0.199119  0  3.986988  0  0  -0.092582  -0.185969  0  3.950383  0
C  C27  1  0.88733707  0.56208035  0.79191870  1  0  -0.180147  0  3.723406  0  0  -0.194641  0  3.965271  0  0  -0.202735  0  3.987188  0  0  -0.093666  -0.18921  0  3.950549  0
C  C28  1  0.74127154  0.93787409  0.70807918  1  0  -0.176741  0  3.723248  0  0  -0.191057  0  3.964955  0  0  -0.1991  0  3.986948  0  0  -0.092573  -0.185945  0  3.950339  0
C  C29  1  0.38733597  0.29191779  0.06208110  1  0  -0.180153  0  3.723478  0  0  -0.194658  0  3.965329  0  0  -0.202763  0  3.987239  0  0  -0.093681  -0.189226  0  3.950608  0
C  C30  1  0.24126857  0.20808098  0.43787370  1  0  -0.176744  0  3.723269  0  0  -0.191059  0  3.96497  0  0  -0.199098  0  3.986961  0  0  -0.092563  -0.185947  0  3.950355  0
C  C31  1  0.11266557  0.43791711  0.20808265  1  0  -0.180153  0  3.723405  0  0  -0.194649  0  3.965224  0  0  -0.202754  0  3.987138  0  0  -0.093698  -0.189216  0  3.950501  0
C  C32  1  0.25406867  0.95681972  0.40506165  1  0  0.144502  0  3.745484  0  0  0.119222  0  4.002933  0  0  0.125544  0  4.020708  0  0  0.03484  0.115106  0  3.990696  0
C  C33  1  0.61580063  0.59493285  0.04319373  1  0  0.144546  0  3.744946  0  0  0.119829  0  4.001798  0  0  0.126218  0  4.019645  0  0  0.03729  0.115795  0  3.989659  0
C  C34  1  0.75406999  0.90506150  0.45682204  1  0  0.144476  0  3.745481  0  0  0.119197  0  4.002933  0  0  0.125521  0  4.020709  0  0  0.034852  0.115081  0  3.990696  0
C  C35  1  0.88420195  0.45680803  0.90506847  1  0  0.144556  0  3.74492  0  0  0.119842  0  4.001771  0  0  0.12623  0  4.019615  0  0  0.037271  0.115806  0  3.989633  0
C  C36  1  0.74593057  0.04317903  0.59493865  1  0  0.144473  0  3.74549  0  0  0.11919  0  4.002951  0  0  0.125512  0  4.020728  0  0  0.034852  0.115073  0  3.990715  0
C  C37  1  0.38420209  0.40506727  0.95680758  1  0  0.144587  0  3.744936  0  0  0.119879  0  4.001763  0  0  0.126266  0  4.019613  0  0  0.037276  0.115842  0  3.989625  0
C  C38  1  0.24593264  0.09493854  0.54317722  1  0  0.144536  0  3.745416  0  0  0.119251  0  4.002872  0  0  0.125574  0  4.020647  0  0  0.03488  0.115134  0  3.990639  0
C  C39  1  0.11579828  0.54319110  0.09493182  1  0  0.144499  0  3.744934  0  0  0.119787  0  4.001791  0  0  0.12617  0  4.019636  0  0  0.037262  0.115751  0  3.989652  0
N  N40  1  0.24999980  0.97086379  0.52913615  1  0  -0.416927  0  3.139314  0  0  -0.367409  0  3.40916  0  0  -0.381849  0  3.426152  0  0  -0.419766  -0.357989  0  3.398722  0
N  N41  1  0.75000034  0.47085029  0.02914847  1  0  -0.417024  0  3.139423  0  0  -0.368264  0  3.409802  0  0  -0.382675  0  3.426692  0  0  -0.420818  -0.357746  0  3.39802  0
N  N42  1  0.74999997  0.02913777  0.47086309  1  0  -0.416875  0  3.139337  0  0  -0.367359  0  3.409181  0  0  -0.3818  0  3.426174  0  0  -0.419763  -0.357939  0  3.398743  0
N  N43  1  0.25000175  0.52914951  0.97084976  1  0  -0.417059  0  3.139474  0  0  -0.368302  0  3.409848  0  0  -0.382714  0  3.426739  0  0  -0.420808  -0.357784  0  3.398066  0
Cl  Cl44  1  0.13835527  0.84102908  0.15903406  1  0  -0.311922  0  1.182291  0  0  -0.28747  0  1.489739  0  0  -0.298247  0  1.47247  0  0  -0.18761  -0.280498  0  1.501505  0
Cl  Cl45  1  0.63835590  0.65903529  0.34102881  1  0  -0.311944  0  1.182317  0  0  -0.287502  0  1.489779  0  0  -0.298281  0  1.472513  0  0  -0.187622  -0.280531  0  1.501546  0
Cl  Cl46  1  0.36164387  0.34096626  0.65897042  1  0  -0.311928  0  1.182324  0  0  -0.287482  0  1.489782  0  0  -0.298258  0  1.472511  0  0  -0.18761  -0.280512  0  1.501548  0
Cl  Cl47  1  0.86164500  0.15897138  0.84096622  1  0  -0.311926  0  1.18235  0  0  -0.287483  0  1.489811  0  0  -0.298259  0  1.472544  0  0  -0.187613  -0.280512  0  1.501578  0
Cl  Cl48  1  0.74450759  0.91445815  0.08557401  1  0  -0.310181  0  1.149018  0  0  -0.281356  0  1.44268  0  0  -0.292674  0  1.425222  0  0  -0.190846  -0.272728  0  1.453452  0
Cl  Cl49  1  0.24450769  0.58557337  0.41445772  1  0  -0.310176  0  1.149011  0  0  -0.28135  0  1.442672  0  0  -0.292668  0  1.425212  0  0  -0.190837  -0.272723  0  1.453444  0
Cl  Cl50  1  0.75549071  0.41442899  0.58554254  1  0  -0.310182  0  1.149053  0  0  -0.28135  0  1.442709  0  0  -0.292672  0  1.425257  0  0  -0.190843  -0.272724  0  1.453482  0
Cl  Cl51  1  0.25549170  0.08554192  0.91442628  1  0  -0.31017  0  1.149014  0  0  -0.281348  0  1.442681  0  0  -0.292667  0  1.425221  0  0  -0.190837  -0.272721  0  1.453452  0
