# generated using pymatgen
data_CoH28C29(NO)4
_symmetry_space_group_name_H-M   'P 1'
_cell_length_a   10.24743700
_cell_length_b   11.62963411
_cell_length_c   12.68613719
_cell_angle_alpha   65.26906516
_cell_angle_beta   83.74498550
_cell_angle_gamma   70.01472375
_symmetry_Int_Tables_number   1
_chemical_formula_structural   CoH28C29(NO)4
_chemical_formula_sum   'Co2 H56 C58 N8 O8'
_cell_volume   1289.47404575
_cell_formula_units_Z   2
loop_
 _symmetry_equiv_pos_site_id
 _symmetry_equiv_pos_as_xyz
  1  'x, y, z'
loop_
 _atom_site_type_symbol
 _atom_site_label
 _atom_site_symmetry_multiplicity
 _atom_site_fract_x
 _atom_site_fract_y
 _atom_site_fract_z
 _atom_site_occupancy
 _atom_site_hle17_ddec_charge
 _atom_site_hle17_ddec_spin_density
 _atom_site_hle17_ddec_sum_bond_order
 _atom_site_hle17_magmom
 _atom_site_hse06_10hf_ddec_charge
 _atom_site_hse06_10hf_ddec_spin_density
 _atom_site_hse06_10hf_ddec_sum_bond_order
 _atom_site_hse06_10hf_magmom
 _atom_site_hse06_ddec_charge
 _atom_site_hse06_ddec_spin_density
 _atom_site_hse06_ddec_sum_bond_order
 _atom_site_hse06_magmom
 _atom_site_pbe_cm5_charge
 _atom_site_pbe_ddec_charge
 _atom_site_pbe_ddec_spin_density
 _atom_site_pbe_ddec_sum_bond_order
 _atom_site_pbe_magmom
Co  Co0  1  0.64245071  0.63338438  0.61190302  1  0.974671  2.816225  2.060918  2.521  0.91967  2.818275  2.523037  2.572  1.010318  2.866366  2.434965  2.665  0.692509  0.848348  2.771247  2.589213  2.485
Co  Co1  1  0.35754779  0.36661584  0.38809668  1  0.974627  2.81622  2.060962  2.521  0.919659  2.818288  2.523087  2.572  1.010277  2.866365  2.435016  2.665  0.692455  0.848269  2.771305  2.58922  2.485
H  H2  1  0.91840737  0.78098135  0.87423974  1  0.102408  -3.5e-05  0.939248  0.0  0.112798  -2.4e-05  0.999904  0.0  0.116565  -2.3e-05  0.997288  0.0  0.103189  0.110229  -2.4e-05  1.001557  0.0
H  H3  1  0.08158951  0.21901785  0.12576285  1  0.102449  -3.7e-05  0.93921  0.0  0.112838  -2.4e-05  0.99987  0.0  0.116604  -2.3e-05  0.997254  0.0  0.103231  0.110267  -2.4e-05  1.001527  0.0
H  H4  1  0.90608715  0.96862934  0.97502060  1  0.102957  2e-05  0.95469  0.0  0.126515  -3e-06  1.01546  0.0  0.127175  -1.2e-05  1.015927  0.0  0.089477  0.126132  4e-06  1.014995  0.0
H  H5  1  0.09391598  0.03136891  0.02497868  1  0.102989  1.8e-05  0.954657  0.0  0.126531  -3e-06  1.015442  0.0  0.127193  -1.2e-05  1.015905  0.0  0.089472  0.126143  4e-06  1.014979  0.0
H  H6  1  0.92452939  0.11434289  0.85739891  1  0.100659  1.1e-05  0.968205  0.0  0.119136  -1e-05  1.034818  0.0  0.119906  -1.3e-05  1.03605  0.0  0.085649  0.118579  -9e-06  1.03403  0.0
H  H7  1  0.07547143  0.88565634  0.14260019  1  0.100665  1e-05  0.968221  0.0  0.119153  -1e-05  1.034808  0.0  0.119922  -1.3e-05  1.036041  0.0  0.085656  0.118594  -9e-06  1.034016  0.0
H  H8  1  0.04068369  0.95274908  0.87723192  1  0.103482  1.8e-05  0.982734  0.0  0.123702  -5e-06  1.048255  0.0  0.124331  -1.1e-05  1.049319  0.0  0.088613  0.123259  2e-06  1.047523  0.0
H  H9  1  0.95931645  0.04725217  0.12276489  1  0.103513  1.6e-05  0.982701  0.0  0.123733  -5e-06  1.048219  0.0  0.124364  -1e-05  1.04928  0.0  0.088631  0.123293  2e-06  1.047496  0.0
H  H10  1  0.73303105  0.21176260  0.72505788  1  0.094208  -0.000118  0.965912  0.0  0.103057  -0.000106  1.033136  0.0  0.105843  -9.8e-05  1.031611  0.0  0.099172  0.101118  -0.000111  1.034245  0.0
H  H11  1  0.26697040  0.78823765  0.27493999  1  0.094187  -0.00012  0.965962  0.0  0.103053  -0.000106  1.033173  0.0  0.105833  -9.8e-05  1.031669  0.0  0.099141  0.10111  -0.00011  1.03427  0.0
H  H12  1  0.58968898  0.97437589  0.61188690  1  0.114529  9.2e-05  0.946212  0.0  0.123291  -3e-06  1.00858  0.0  0.128102  -0.000122  1.003932  0.0  0.107551  0.119673  0.000141  1.01206  0.0
H  H13  1  0.41031051  0.02562433  0.38811351  1  0.114556  9.1e-05  0.946169  0.0  0.123303  -3e-06  1.008547  0.0  0.128108  -0.000122  1.003908  0.0  0.107559  0.119685  0.000141  1.012027  0.0
H  H14  1  0.43906031  0.84478747  0.70808536  1  0.116732  -0.000138  0.943941  0.0  0.128159  -8.3e-05  1.001078  0.0  0.131222  -0.000113  0.999569  0.0  0.111432  0.12565  -2.8e-05  1.002618  0.0
H  H15  1  0.56094281  0.15521077  0.29191392  1  0.116741  -0.000142  0.943927  0.0  0.128167  -8.3e-05  1.001069  0.0  0.131231  -0.000113  0.99956  0.0  0.111423  0.125653  -2.9e-05  1.002609  0.0
H  H16  1  0.28208606  0.91900182  0.84900068  1  0.082423  -1e-05  0.960033  0.0  0.09674  -2.2e-05  1.0169  0.0  0.099173  -1.5e-05  1.016152  0.0  0.097565  0.094894  -2.8e-05  1.017621  0.0
H  H17  1  0.71792062  0.08099743  0.15100028  1  0.082457  -8e-06  0.960015  0.0  0.09681  -2.1e-05  1.01684  0.0  0.099214  -1.6e-05  1.016124  0.0  0.097574  0.094971  -2.8e-05  1.017563  0.0
H  H18  1  0.18942449  0.76014874  0.01195854  1  0.0803  -0.000102  0.964832  0.0  0.094119  -3e-05  1.023671  0.0  0.096328  -2.7e-05  1.023499  0.0  0.097409  0.092445  -3.8e-05  1.024005  0.0
H  H19  1  0.81057955  0.23985252  0.98804109  1  0.080314  -0.000108  0.964807  0.0  0.094112  -3e-05  1.023667  0.0  0.096319  -2.6e-05  1.023503  0.0  0.097413  0.092445  -3.8e-05  1.024011  0.0
H  H20  1  0.24333504  0.52398834  0.03688735  1  0.13374  0.000145  0.989619  0.0  0.141427  0.000134  1.052758  0.0  0.145568  8.2e-05  1.049605  0.0  0.107359  0.138413  0.000188  1.05506  0.0
H  H21  1  0.75666277  0.47601389  0.96311165  1  0.133738  0.000147  0.989662  0.0  0.141463  0.000134  1.052752  0.0  0.145606  8.2e-05  1.049598  0.0  0.107394  0.138458  0.000188  1.055057  0.0
H  H22  1  0.55395203  0.37357297  0.74785545  1  0.10485  -0.000126  0.976123  0.001  0.10948  8.1e-05  1.047639  0.0  0.113017  5.6e-05  1.042491  0.0  0.137096  0.106746  8.9e-05  1.051587  0.001
H  H23  1  0.44604452  0.62642725  0.25214363  1  0.104781  -0.000124  0.976175  0.001  0.109487  8.1e-05  1.047594  0.0  0.113027  5.5e-05  1.042443  0.0  0.137085  0.106711  8.9e-05  1.051583  0.001
H  H24  1  0.28218477  0.32777474  0.94629083  1  0.071406  -1.1e-05  0.916892  0.0  0.089618  5.7e-05  0.975974  0.0  0.090181  3.3e-05  0.975118  0.0  0.109853  0.088995  7.9e-05  0.976821  0.0
H  H25  1  0.71781408  0.67222448  0.05371001  1  0.071383  -7e-06  0.916918  0.0  0.089581  5.7e-05  0.976021  0.0  0.090144  3.2e-05  0.975165  0.0  0.109853  0.088961  7.9e-05  0.976871  0.0
H  H26  1  0.41793438  0.29175700  0.04110436  1  0.077787  7.7e-05  0.935167  0.0  0.092372  9.3e-05  1.001252  0.0  0.092028  5.7e-05  1.003461  0.0  0.109485  0.092454  0.000141  0.999842  0.0
H  H27  1  0.58206475  0.70824423  0.95889649  1  0.07779  7.9e-05  0.935161  0.0  0.092379  9.3e-05  1.001242  0.0  0.092034  5.7e-05  1.003453  0.0  0.109496  0.092464  0.000141  0.999836  0.0
H  H28  1  0.45731076  0.20891740  0.83573669  1  0.070304  3e-06  0.941901  0.0  0.088526  -2.8e-05  1.002942  0.0  0.088468  -2.8e-05  1.004689  0.0  0.092245  0.088367  -2.8e-05  1.00203  0.0
H  H29  1  0.54269039  0.79108082  0.16426513  1  0.070295  3e-06  0.941978  0.0  0.088533  -2.8e-05  1.00303  0.0  0.088474  -2.7e-05  1.004776  0.0  0.092256  0.088377  -2.8e-05  1.002121  0.0
H  H30  1  0.59097968  0.17704527  0.93087951  1  0.065804  -1.9e-05  0.943625  0.0  0.085199  -1.8e-05  1.005174  0.0  0.085133  -1.2e-05  1.006903  0.0  0.09074  0.085141  -3e-05  1.004095  0.0
H  H31  1  0.40901910  0.82295695  0.06912177  1  0.065799  -1.9e-05  0.94362  0.0  0.085212  -1.8e-05  1.005198  0.0  0.085145  -1.2e-05  1.006925  0.0  0.090733  0.08515  -3e-05  1.004113  0.0
H  H32  1  0.34362849  0.07214717  0.00157004  1  0.05836  2e-06  0.943168  0.0  0.079701  7e-06  1.000736  0.0  0.079582  4e-06  1.002483  0.0  0.086569  0.079682  6e-06  0.999571  0.0
H  H33  1  0.65637329  0.92785206  0.99843213  1  0.058333  1e-06  0.943233  0.0  0.079661  7e-06  1.000807  0.0  0.079545  4e-06  1.002555  0.0  0.086558  0.079645  6e-06  0.999644  0.0
H  H34  1  0.46933063  0.04652839  0.09988967  1  0.062884  -1e-05  0.941867  0.0  0.081737  -4e-06  1.003443  0.0  0.081564  -1e-06  1.00595  0.0  0.086676  0.081732  -6e-06  1.001788  0.0
H  H35  1  0.53067080  0.95347184  0.90011294  1  0.062869  -1.1e-05  0.941883  0.0  0.081728  -4e-06  1.003435  0.0  0.081554  -1e-06  1.00595  0.0  0.086679  0.081723  -6e-06  1.001772  0.0
H  H36  1  0.91806190  0.44511317  0.78712328  1  0.121956  0.000189  0.970008  0.0  0.129261  0.000454  1.033718  0.0  0.133703  0.000327  1.030273  0.0  0.104912  0.125982  0.000586  1.036307  0.0
H  H37  1  0.08193591  0.55488906  0.21287650  1  0.121933  0.000191  0.970122  0.0  0.129261  0.000453  1.033797  0.0  0.133715  0.000327  1.030339  0.0  0.104893  0.125974  0.000586  1.036373  0.0
H  H38  1  0.16137639  0.28641050  0.84310157  1  0.078556  -1.2e-05  0.974035  0.0  0.092268  -1.8e-05  1.031984  0.0  0.094908  -1.8e-05  1.030976  0.0  0.093653  0.090292  -2.8e-05  1.032888  0.0
H  H39  1  0.83861917  0.71358971  0.15689996  1  0.07854  -1.3e-05  0.974024  0.0  0.092241  -1.8e-05  1.031988  0.0  0.09488  -1.8e-05  1.030981  0.0  0.093638  0.090279  -2.8e-05  1.032882  0.0
H  H40  1  0.28930590  0.16596704  0.72183224  1  0.088208  -0.000163  0.953271  0.0  0.103303  -8e-05  1.007209  0.0  0.106067  -7.9e-05  1.00646  0.0  0.098681  0.101052  -8e-05  1.008315  0.0
H  H41  1  0.71069127  0.83403417  0.27816957  1  0.088272  -0.000159  0.953201  0.0  0.103335  -8e-05  1.007174  0.0  0.106106  -7.9e-05  1.006417  0.0  0.098695  0.101091  -8e-05  1.008296  0.0
H  H42  1  0.17664341  0.18905537  0.54746089  1  0.11992  9.2e-05  0.958975  0.0  0.129465  0.000133  1.020104  0.0  0.133408  3.6e-05  1.017544  0.0  0.111155  0.126396  0.000246  1.022272  0.0
H  H43  1  0.82335699  0.81094787  0.45253908  1  0.119887  9.1e-05  0.958999  0.0  0.12943  0.000133  1.020135  0.0  0.133374  3.6e-05  1.017574  0.0  0.111162  0.126373  0.000246  1.022311  0.0
H  H44  1  0.67836484  0.50177094  0.43705752  1  0.111782  1.6e-05  0.952691  0.001  0.118363  0.000139  1.018751  0.001  0.12161  9.5e-05  1.014021  0.0  0.139173  0.115683  0.000163  1.022866  0.001
H  H45  1  0.32163401  0.49822828  0.56294253  1  0.111788  1.6e-05  0.952609  0.001  0.118348  0.000139  1.01871  0.001  0.121597  9.5e-05  1.01398  0.0  0.139169  0.115669  0.000163  1.022817  0.001
H  H46  1  0.01802790  0.32203106  0.35653540  1  0.081389  -3.6e-05  0.94934  0.0  0.097563  -2e-05  1.012718  0.0  0.098034  -5.8e-05  1.013207  0.0  0.112392  0.096974  2.6e-05  1.012567  0.0
H  H47  1  0.98197158  0.67796917  0.64346501  1  0.081375  -4e-05  0.949345  0.0  0.097542  -2.1e-05  1.012729  0.0  0.098017  -5.8e-05  1.01321  0.0  0.112397  0.096962  2.6e-05  1.012587  0.0
H  H48  1  0.84013518  0.40314084  0.31450801  1  0.073088  -5e-05  0.915399  0.0  0.090749  -3.6e-05  0.973948  0.0  0.091  -3.3e-05  0.974519  0.0  0.112145  0.09055  -3e-05  0.973599  0.0
H  H49  1  0.15986206  0.59685737  0.68549177  1  0.073099  -5.6e-05  0.915422  0.0  0.090769  -3.6e-05  0.973951  0.0  0.091015  -3.2e-05  0.974521  0.0  0.112163  0.090575  -3e-05  0.973602  0.0
H  H50  1  0.89970900  0.18019059  0.32717268  1  0.07271  0.0  0.934095  0.0  0.092741  3e-06  0.993143  0.0  0.092629  2e-06  0.995348  0.0  0.092453  0.092811  1.6e-05  0.991582  0.0
H  H51  1  0.10029215  0.81980763  0.67282993  1  0.072707  -2e-06  0.93408  0.0  0.092713  2e-06  0.993143  0.0  0.0926  3e-06  0.995349  0.0  0.092462  0.092783  1.6e-05  0.991581  0.0
H  H52  1  0.79058259  0.18962188  0.44268246  1  0.072684  -8e-05  0.935485  0.0  0.090719  -9.5e-05  0.995446  0.0  0.090819  -8.8e-05  0.997122  0.0  0.089854  0.090519  -0.000106  0.994412  0.0
H  H53  1  0.20941826  0.81037433  0.55732172  1  0.072711  -8.3e-05  0.935452  0.0  0.090719  -9.5e-05  0.99543  0.0  0.090818  -8.8e-05  0.997106  0.0  0.089848  0.090523  -0.000106  0.994393  0.0
H  H54  1  0.10945354  0.07046063  0.46707329  1  0.060672  -2.2e-05  0.953753  0.0  0.081157  -2.3e-05  1.013185  0.0  0.081245  -2.4e-05  1.014667  0.0  0.086398  0.080865  -2e-05  1.012397  0.0
H  H55  1  0.89054733  0.92953560  0.53292694  1  0.06064  -2.5e-05  0.953759  0.0  0.081143  -2.3e-05  1.013192  0.0  0.081231  -2.4e-05  1.014674  0.0  0.086405  0.080855  -2e-05  1.012405  0.0
H  H56  1  0.99532534  0.06651768  0.58268152  1  0.057395  -9e-06  0.951984  0.0  0.076065  -8e-06  1.013741  0.0  0.075924  -6e-06  1.015865  0.0  0.08349  0.07615  -6e-06  1.012271  0.0
H  H57  1  0.00467783  0.93347755  0.41731968  1  0.05734  -1e-05  0.95207  0.0  0.076008  -8e-06  1.013864  0.0  0.075881  -6e-06  1.015974  0.0  0.083468  0.076072  -6e-06  1.012417  0.0
C  C58  1  0.76638266  0.73048446  0.74721302  1  0.627944  -0.003545  3.945059  -0.003  0.583122  0.002808  4.249315  0.003  0.619455  0.001965  4.243154  0.002  0.203992  0.557206  0.003674  4.252303  0.003
C  C59  1  0.23361654  0.26951376  0.25278738  1  0.628089  -0.003539  3.944855  -0.003  0.583245  0.002808  4.249145  0.003  0.619579  0.001966  4.24298  0.002  0.204031  0.557313  0.003673  4.252122  0.003
C  C60  1  0.75513576  0.86416003  0.74421460  1  -0.06585  0.004516  3.78589  0.007  -0.04154  0.001831  4.023421  0.003  -0.049437  0.000936  4.045202  0.002  -0.020999  -0.036461  0.002869  4.009187  0.004
C  C61  1  0.24486177  0.13584019  0.25578519  1  -0.06594  0.004484  3.785853  0.007  -0.041625  0.001831  4.023388  0.003  -0.049523  0.000936  4.045166  0.002  -0.021029  -0.036532  0.002867  4.009131  0.004
C  C62  1  0.84343610  0.87316504  0.81503130  1  -0.119804  -0.0011  3.678976  0.0  -0.151538  0.001077  3.922684  0.001  -0.151056  0.000843  3.940979  0.001  -0.080614  -0.151534  0.001184  3.909935  0.001
C  C63  1  0.15656143  0.12683517  0.18496928  1  -0.119847  -0.001033  3.678984  0.0  -0.151563  0.001076  3.922711  0.001  -0.15108  0.000842  3.941006  0.001  -0.08066  -0.151559  0.001184  3.909956  0.001
C  C64  1  0.83755656  0.99826866  0.80846771  1  0.1336  0.001058  3.778926  0.002  0.163514  0.0002  4.017303  0.0  0.162459  -6.2e-05  4.041494  0.0  -0.011542  0.16422  0.0005  4.000584  0.001
C  C65  1  0.16244258  0.00173257  0.19153155  1  0.133691  0.001023  3.778882  0.002  0.163551  0.000201  4.017326  0.0  0.162497  -6.1e-05  4.041517  0.0  -0.011538  0.164257  0.000499  4.000607  0.001
C  C66  1  0.93208488  0.00958843  0.88313748  1  -0.339976  0.000141  3.750708  0.0  -0.4219  0.000107  3.983431  0.0  -0.423774  5.9e-05  3.994228  0.0  -0.242928  -0.420335  0.00016  3.975771  0.0
C  C67  1  0.06791692  0.99041081  0.11686153  1  -0.340097  0.000149  3.750648  0.0  -0.421992  0.000107  3.983377  0.0  -0.423867  5.9e-05  3.994169  0.0  -0.242954  -0.420423  0.00016  3.975722  0.0
C  C68  1  0.73887623  0.11317453  0.73264160  1  -0.122584  -0.000377  3.70174  0.0  -0.157022  0.001105  3.949465  0.001  -0.157032  0.00084  3.969607  0.001  -0.08554  -0.15662  0.001346  3.935409  0.002
C  C69  1  0.26112522  0.88682571  0.26735706  1  -0.122603  -0.000317  3.701775  0.0  -0.157029  0.001105  3.949512  0.001  -0.157042  0.00084  3.969651  0.001  -0.085509  -0.156622  0.001347  3.935453  0.002
C  C70  1  0.64661461  0.10534318  0.66430632  1  -0.068658  0.003983  3.802441  0.006  -0.043282  0.001721  4.039075  0.003  -0.051379  0.000969  4.06064  0.002  -0.024768  -0.038107  0.002494  4.024863  0.004
C  C71  1  0.35338783  0.89465707  0.33569067  1  -0.068588  0.003952  3.802398  0.006  -0.043234  0.001722  4.03905  0.003  -0.051329  0.000971  4.06061  0.002  -0.024745  -0.038068  0.002495  4.024861  0.004
C  C72  1  0.53901454  0.23117799  0.58750201  1  0.618098  -0.006339  3.953596  -0.006  0.573653  0.001447  4.255413  0.001  0.610495  0.000977  4.250447  0.001  0.198302  0.547386  0.001925  4.257933  0.001
C  C73  1  0.46098755  0.76882326  0.41249622  1  0.618098  -0.006326  3.953637  -0.006  0.573658  0.001447  4.255449  0.001  0.610502  0.000976  4.250479  0.001  0.1983  0.5474  0.001925  4.257983  0.001
C  C74  1  0.65708360  0.98066909  0.66843425  1  -0.083453  -0.001511  3.710445  -0.001  -0.121842  0.000699  3.961138  0.001  -0.118212  0.000483  3.975982  0.001  -0.083266  -0.124242  0.00093  3.951659  0.001
C  C75  1  0.34291652  0.01933215  0.33156414  1  -0.083478  -0.001446  3.710334  -0.001  -0.121838  0.000698  3.961022  0.001  -0.118201  0.000481  3.975868  0.001  -0.083258  -0.124237  0.000929  3.951543  0.001
C  C76  1  0.42945609  0.64273984  0.79463969  1  0.149495  -0.002647  3.826205  -0.002  0.149491  0.000788  4.075355  0.001  0.153981  0.000278  4.099698  0.001  0.087285  0.146019  0.001286  4.0591  0.002
C  C77  1  0.57054438  0.35726039  0.20535905  1  0.149435  -0.002698  3.826343  -0.002  0.149438  0.000788  4.075485  0.001  0.153926  0.000276  4.099831  0.001  0.087253  0.145967  0.001286  4.059205  0.002
C  C78  1  0.39736502  0.77586438  0.77936133  1  -0.140451  0.001999  3.735194  0.003  -0.15933  0.000765  3.984854  0.001  -0.162155  0.000583  4.004145  0.001  -0.087533  -0.157315  0.001054  3.972232  0.001
C  C79  1  0.60263740  0.22413586  0.22063803  1  -0.140456  0.002049  3.735329  0.003  -0.159339  0.000764  3.984989  0.001  -0.162161  0.000581  4.004272  0.001  -0.087517  -0.15731  0.001053  3.972352  0.001
C  C80  1  0.30981888  0.81565728  0.85871034  1  -0.085024  -0.002902  3.802874  -0.002  -0.100547  -0.000825  4.057472  0.0  -0.101831  -0.000833  4.07886  0.0  -0.099626  -0.099735  -0.00096  4.042999  -0.001
C  C81  1  0.69018550  0.18434297  0.14128965  1  -0.085123  -0.003004  3.803034  -0.002  -0.100677  -0.000824  4.057631  0.0  -0.101938  -0.000829  4.079023  0.0  -0.099648  -0.099872  -0.00096  4.04318  -0.001
C  C82  1  0.25621656  0.72564837  0.95077499  1  -0.080641  0.001559  3.796651  0.002  -0.096603  0.000549  4.052564  0.001  -0.099314  0.000444  4.075392  0.001  -0.100444  -0.094625  0.000787  4.037034  0.001
C  C83  1  0.74378453  0.27435287  0.04922489  1  -0.080564  0.001609  3.79666  0.002  -0.096506  0.000549  4.052589  0.001  -0.099217  0.000443  4.07541  0.001  -0.100397  -0.094533  0.000787  4.037094  0.001
C  C84  1  0.28519505  0.59341263  0.96588674  1  -0.144984  -0.001636  3.730917  -0.001  -0.164992  -0.000275  3.98084  0.0  -0.167471  -0.000481  3.999866  0.0  -0.095033  -0.1634  -0.000108  3.96809  0.0
C  C85  1  0.71480438  0.40659060  0.03411253  1  -0.145027  -0.001732  3.73102  -0.001  -0.165066  -0.000276  3.980927  0.0  -0.167548  -0.000481  3.999955  0.0  -0.095063  -0.163475  -0.000108  3.968206  0.0
C  C86  1  0.37196947  0.55456199  0.88549702  1  0.097879  0.002859  3.776675  0.004  0.088291  0.001713  4.017889  0.003  0.091709  0.001272  4.040185  0.002  0.091511  0.086059  0.002203  4.003088  0.003
C  C87  1  0.62802968  0.44543924  0.11450224  1  0.097864  0.002883  3.776852  0.004  0.088257  0.001713  4.018071  0.003  0.091675  0.001273  4.040367  0.002  0.091449  0.086019  0.002203  4.003287  0.003
C  C88  1  0.50539132  0.44948623  0.78163040  1  0.206227  -0.009242  3.634608  -0.005  0.147446  0.002396  3.907285  0.003  0.166548  0.002111  3.91732  0.003  0.162552  0.134231  0.002361  3.900552  0.003
C  C89  1  0.49460557  0.55051298  0.21836982  1  0.206264  -0.009301  3.634627  -0.005  0.14742  0.002396  3.907275  0.003  0.16652  0.002112  3.917306  0.003  0.162525  0.134226  0.002359  3.900542  0.003
C  C90  1  0.39432811  0.30990711  0.95195521  1  0.01814  0.000482  3.623283  0.001  -0.047422  0.000381  3.889286  0.001  -0.042629  0.000281  3.900568  0.0  -0.04929  -0.050394  0.000492  3.881476  0.001
C  C91  1  0.60567039  0.69009311  0.04804528  1  0.018146  0.000473  3.62325  0.001  -0.047406  0.000381  3.889281  0.001  -0.042614  0.000281  3.90056  0.0  -0.049306  -0.050374  0.000493  3.881479  0.001
C  C92  1  0.47991413  0.19013138  0.92550680  1  -0.136082  -5.3e-05  3.709341  0.0  -0.177247  -1.6e-05  3.972772  0.0  -0.178696  -1.6e-05  3.987438  0.0  -0.164049  -0.176091  -2e-05  3.962551  0.0
C  C93  1  0.52008667  0.80986784  0.07449545  1  -0.136078  -5.1e-05  3.709432  0.0  -0.177347  -1.6e-05  3.97296  0.0  -0.178801  -1.8e-05  3.987646  0.0  -0.164087  -0.176191  -2.1e-05  3.962738  0.0
C  C94  1  0.45350353  0.06153269  0.00987155  1  -0.101948  4e-06  3.68605  0.0  -0.140177  2.3e-05  3.943447  0.0  -0.141031  1.7e-05  3.958296  0.0  -0.16606  -0.139415  2.7e-05  3.933184  0.0
C  C95  1  0.54649888  0.93846754  0.99013098  1  -0.101901  9e-06  3.686077  0.0  -0.140067  2.3e-05  3.943448  0.0  -0.140917  1.6e-05  3.958272  0.0  -0.166003  -0.139309  2.7e-05  3.9332  0.0
C  C96  1  0.90962569  0.39972293  0.63880925  1  0.143439  -0.001873  3.829263  -0.001  0.143394  0.001164  4.079632  0.002  0.147745  0.000685  4.10484  0.002  0.082907  0.140319  0.001657  4.062317  0.003
C  C97  1  0.09037541  0.60027830  0.36119143  1  0.143406  -0.00184  3.829324  -0.001  0.143398  0.001163  4.07964  0.002  0.147748  0.000684  4.104847  0.002  0.08288  0.140319  0.001656  4.062296  0.003
C  C98  1  0.97262549  0.38649998  0.73756997  1  -0.152793  0.002251  3.743705  0.003  -0.170963  0.001386  3.993614  0.002  -0.174415  0.001029  4.01312  0.001  -0.096806  -0.168558  0.00173  3.980464  0.002
C  C99  1  0.02737233  0.61350225  0.26242824  1  -0.152788  0.00222  3.7437  0.003  -0.170987  0.001386  3.993586  0.002  -0.174449  0.001029  4.013086  0.001  -0.096788  -0.16856  0.001729  3.980402  0.002
C  C100  1  0.10888808  0.29935257  0.76664776  1  -0.090213  -0.002642  3.814411  -0.002  -0.10557  -0.000844  4.069189  0.0  -0.107772  -0.000831  4.092064  0.0  -0.106509  -0.103915  -0.000894  4.053813  0.0
C  C101  1  0.89110874  0.70064964  0.23335290  1  -0.090128  -0.002573  3.814398  -0.002  -0.105473  -0.000844  4.069172  0.0  -0.107676  -0.000831  4.092052  0.0  -0.106478  -0.103834  -0.000894  4.053801  0.0
C  C102  1  0.18113098  0.22927513  0.69890847  1  -0.079914  0.001402  3.797935  0.002  -0.097186  0.00064  4.056259  0.001  -0.099675  0.000487  4.079195  0.001  -0.101266  -0.095819  0.000746  4.041581  0.001
C  C103  1  0.81886717  0.77072609  0.30109325  1  -0.080024  0.001366  3.798032  0.002  -0.097278  0.000639  4.056366  0.001  -0.099772  0.000488  4.079297  0.001  -0.101292  -0.095912  0.000746  4.041733  0.001
C  C104  1  0.11903136  0.24122290  0.60070330  1  -0.140568  -0.001155  3.747277  -0.001  -0.162861  0.00012  4.005273  0.0  -0.165579  -0.000192  4.024441  0.0  -0.09107  -0.161133  0.000481  3.992884  0.0
C  C105  1  0.88096876  0.75877833  0.39929746  1  -0.140491  -0.001082  3.747411  -0.001  -0.162783  0.000121  4.005384  0.0  -0.165501  -0.000193  4.024556  0.0  -0.091063  -0.161065  0.000482  3.993039  0.0
C  C106  1  0.98143224  0.32598006  0.57280508  1  0.103389  0.002388  3.750757  0.004  0.095592  0.001352  3.988588  0.002  0.099358  0.000981  4.010909  0.002  0.095407  0.093192  0.001855  3.973623  0.003
C  C107  1  0.01856655  0.67402218  0.42719384  1  0.103322  0.002367  3.750917  0.004  0.095521  0.001352  3.98872  0.002  0.099286  0.000982  4.011044  0.002  0.095428  0.093124  0.001855  3.973773  0.003
C  C108  1  0.77007441  0.45415377  0.49486773  1  0.225416  -0.008913  3.630495  -0.005  0.161164  0.001946  3.91009  0.003  0.182066  0.001814  3.919202  0.003  0.168672  0.14641  0.001736  3.904527  0.003
C  C109  1  0.22992277  0.54584745  0.50513171  1  0.225404  -0.008916  3.630445  -0.005  0.161153  0.001946  3.910061  0.003  0.182052  0.001814  3.919172  0.003  0.168632  0.146395  0.001734  3.904475  0.003
C  C110  1  0.91303363  0.32253001  0.38523248  1  0.015272  0.000324  3.612231  0.0  -0.048022  0.000291  3.87338  0.0  -0.043237  0.000201  3.884075  0.0  -0.049274  -0.051018  0.000399  3.86598  0.001
C  C111  1  0.08696557  0.67746821  0.61476871  1  0.015254  0.000337  3.612306  0.0  -0.048035  0.000291  3.873402  0.0  -0.043236  0.000199  3.884073  0.0  -0.049268  -0.051037  0.000399  3.866027  0.001
C  C112  1  0.89539255  0.18814506  0.41117781  1  -0.12819  1.4e-05  3.680235  0.0  -0.169736  7.4e-05  3.944665  0.0  -0.171325  4.1e-05  3.958838  0.0  -0.164177  -0.16851  0.000118  3.934833  0.0
C  C113  1  0.10460895  0.81185216  0.58882436  1  -0.128232  2.4e-05  3.680137  0.0  -0.1697  7.4e-05  3.944528  0.0  -0.171295  4.1e-05  3.9587  0.0  -0.164167  -0.168471  0.000118  3.934695  0.0
C  C114  1  0.00529439  0.06569142  0.49567640  1  -0.107669  -3.6e-05  3.69332  0.0  -0.145168  0.0  3.949044  0.0  -0.14596  -2e-06  3.96361  0.0  -0.171643  -0.14444  2.1e-05  3.938964  0.0
C  C115  1  0.99470580  0.93430681  0.50432313  1  -0.107502  -2.5e-05  3.693275  0.0  -0.145099  -0.0  3.949044  0.0  -0.145899  -3e-06  3.963606  0.0  -0.171633  -0.14435  2.1e-05  3.938978  0.0
N  N116  1  0.51359339  0.57292467  0.73221005  1  -0.435736  0.04174  3.310742  0.064  -0.398657  0.031451  3.635488  0.038  -0.430228  0.025071  3.644118  0.029  -0.369242  -0.375555  0.037054  3.630168  0.045
N  N117  1  0.48640610  0.42707556  0.26778878  1  -0.435643  0.041755  3.310687  0.065  -0.398573  0.031448  3.63545  0.038  -0.430134  0.02507  3.644074  0.029  -0.369197  -0.375458  0.03705  3.630065  0.045
N  N118  1  0.42193633  0.43319651  0.87396856  1  -0.118518  0.000989  3.501568  0.002  -0.029026  0.001829  3.722369  0.003  -0.045348  0.001314  3.745829  0.002  -0.237863  -0.018303  0.002338  3.706499  0.004
N  N119  1  0.57806119  0.56680371  0.12603122  1  -0.118477  0.001001  3.501509  0.002  -0.028946  0.00183  3.722272  0.003  -0.045264  0.001314  3.745728  0.002  -0.237805  -0.018237  0.002337  3.706404  0.004
N  N120  1  0.77800722  0.48024359  0.58634727  1  -0.453342  0.038724  3.309235  0.056  -0.414993  0.028974  3.643404  0.031  -0.447707  0.022553  3.652433  0.022  -0.370734  -0.390809  0.034607  3.637044  0.038
N  N121  1  0.22198996  0.51975764  0.41365216  1  -0.453359  0.038723  3.309335  0.056  -0.415023  0.028973  3.64349  0.031  -0.447728  0.022552  3.652514  0.022  -0.370718  -0.390821  0.034604  3.637066  0.038
N  N122  1  0.88853662  0.36284072  0.48267468  1  -0.113189  0.00155  3.483099  0.003  -0.021932  0.001817  3.702887  0.003  -0.038756  0.001342  3.72611  0.002  -0.234415  -0.010914  0.002271  3.687428  0.004
N  N123  1  0.11146188  0.63715950  0.51732581  1  -0.113109  0.001549  3.483209  0.003  -0.021855  0.001816  3.702984  0.003  -0.038683  0.001341  3.726207  0.002  -0.234414  -0.010853  0.00227  3.687541  0.004
O  O124  1  0.71883119  0.74000193  0.65182427  1  -0.647598  0.055029  2.136111  0.093  -0.611605  0.041127  2.442426  0.062  -0.655683  0.030041  2.426905  0.045  -0.336475  -0.575974  0.052567  2.450877  0.079
O  O125  1  0.28116598  0.25999929  0.34817596  1  -0.647664  0.055029  2.136008  0.093  -0.611683  0.041128  2.442361  0.062  -0.655754  0.030042  2.426829  0.045  -0.336535  -0.576054  0.052568  2.450788  0.079
O  O126  1  0.81959030  0.62449129  0.83364956  1  -0.605547  0.003149  1.932435  0.006  -0.567598  0.004087  2.155235  0.007  -0.590798  0.002873  2.146203  0.005  -0.320517  -0.550646  0.005498  2.160592  0.009
O  O127  1  0.18040820  0.37550893  0.16635093  1  -0.605596  0.003146  1.932366  0.006  -0.567635  0.004087  2.15518  0.007  -0.590836  0.002874  2.146149  0.005  -0.320529  -0.550702  0.005498  2.160544  0.009
O  O128  1  0.46737223  0.21596019  0.51882889  1  -0.620312  0.060678  2.089923  0.102  -0.582215  0.044391  2.375829  0.069  -0.627139  0.032217  2.363432  0.05  -0.330878  -0.546302  0.05645  2.382077  0.087
O  O129  1  0.53262691  0.78404104  0.48117117  1  -0.620327  0.060675  2.089941  0.102  -0.582225  0.044392  2.375829  0.069  -0.627157  0.032216  2.363439  0.05  -0.330857  -0.546307  0.056454  2.382093  0.087
O  O130  1  0.52298717  0.34031118  0.59289868  1  -0.611701  0.003165  1.94255  0.005  -0.573564  0.004939  2.179398  0.008  -0.599993  0.003434  2.172054  0.005  -0.314958  -0.55396  0.00678  2.18441  0.01
O  O131  1  0.47701884  0.65969009  0.40709841  1  -0.611723  0.003161  1.942649  0.005  -0.573591  0.004939  2.179487  0.008  -0.60002  0.003434  2.172142  0.005  -0.314956  -0.553969  0.006781  2.18449  0.01
