# generated using pymatgen
data_Zn2H32C39(NO6)2
_symmetry_space_group_name_H-M   'P 1'
_cell_length_a   9.66747013
_cell_length_b   11.03399440
_cell_length_c   17.47354331
_cell_angle_alpha   91.41274285
_cell_angle_beta   89.39213809
_cell_angle_gamma   91.82264344
_symmetry_Int_Tables_number   1
_chemical_formula_structural   Zn2H32C39(NO6)2
_chemical_formula_sum   'Zn2 H32 C39 N2 O12'
_cell_volume   1862.31770452
_cell_formula_units_Z   1
loop_
 _symmetry_equiv_pos_site_id
 _symmetry_equiv_pos_as_xyz
  1  'x, y, z'
loop_
 _atom_site_type_symbol
 _atom_site_label
 _atom_site_symmetry_multiplicity
 _atom_site_fract_x
 _atom_site_fract_y
 _atom_site_fract_z
 _atom_site_occupancy
 _atom_site_pbe_bader_charge
 _atom_site_pbe_bader_spin_density
 _atom_site_pbe_cm5_charge
 _atom_site_pbe_ddec_charge
 _atom_site_pbe_ddec_spin_density
 _atom_site_pbe_ddec_sum_bond_order
 _atom_site_pbe_magmom
Zn  Zn0  1  0.36970668  0.47737021  0.49909159  1  1.277026  0  0.670342  0.808241  0  2.460048  0
Zn  Zn1  1  0.65257163  0.48766549  0.49833730  1  1.274709  0  0.664941  0.806153  0  2.450638  0
H  H2  1  0.72486746  0.10806190  0.47695454  1  0.11958  0  0.100358  0.103858  0  1.00813  0
H  H3  1  0.22478030  0.06568496  0.60719541  1  0.071982  0  0.097312  0.113658  0  0.996091  0
H  H4  1  0.17185602  0.08788199  0.51037427  1  0.030585  0  0.091099  0.107301  0  0.996254  0
H  H5  1  0.18020827  0.86120999  0.48664682  1  0.028757  0  0.09912  0.040476  0  0.97575  0
H  H6  1  0.88766906  0.57510357  0.39538821  1  0.140784  0  0.136179  0.120826  0  0.969129  0
H  H7  1  0.14869872  0.57008040  0.39460763  1  0.163856  0  0.135583  0.122193  0  0.979134  0
H  H8  1  0.12936266  0.27363448  0.62051260  1  0.097502  0  0.11232  0.135415  0  0.982277  0
H  H9  1  0.13688250  0.41415866  0.67336985  1  0.084542  0  0.110836  0.132927  0  0.98315  0
H  H10  1  0.86660579  0.27768178  0.62096592  1  0.102545  0  0.115507  0.140566  0  0.959397  0
H  H11  1  0.87324805  0.41822412  0.67394286  1  0.107793  0  0.111532  0.134841  0  0.976657  0
H  H12  1  0.69229406  0.61273733  0.27103395  1  0.08732  0  0.104239  0.111625  0  1.003848  0
H  H13  1  0.67560354  0.68564678  0.13694054  1  0.047402  0  0.104657  0.105567  0  1.013115  0
H  H14  1  0.26620067  0.61789264  0.87437189  1  0.064404  0  0.104013  0.10594  0  0.995277  0
H  H15  1  0.27813872  0.57305143  0.73336324  1  0.088633  0  0.102244  0.100722  0  1.023686  0
H  H16  1  0.72095596  0.58581851  0.74074228  1  0.072042  0  0.101869  0.098745  0  1.026457  0
H  H17  1  0.71218596  0.63534964  0.88133449  1  0.06219  0  0.103641  0.105461  0  0.994113  0
H  H18  1  0.73110815  0.88282994  0.46602091  1  0.08508  0  0.102067  0.105602  0  1.003667  0
H  H19  1  0.10733483  0.53838652  0.03328626  1  0.044737  0  0.106161  0.076381  0  0.955212  0
H  H20  1  0.23242833  0.65592807  0.05408619  1  0.064649  0  0.094557  0.056422  0  1.02565  0
H  H21  1  0.00671380  0.56198669  0.16488743  1  0.030368  0  0.089565  0.087549  0  0.984624  0
H  H22  1  0.13488471  0.67361188  0.18849950  1  0.004657  0  0.09109  0.087442  0  0.974016  0
H  H23  1  0.04537326  0.80949271  0.08616154  1  0.029822  0  0.088586  0.115371  0  0.998502  0
H  H24  1  0.91428032  0.77222941  0.15398704  1  0.022807  0  0.08858  0.116473  0  1.00178  0
H  H25  1  0.91520755  0.69776829  0.06274768  1  0.017413  0  0.083703  0.104969  0  1.011889  0
H  H26  1  0.08108322  0.71547610  0.65532595  1  0.016002  0  0.09835  0.066088  0  0.966704  0
H  H27  1  0.05054855  0.72509053  0.55509511  1  0.053563  0  0.082029  0.02986  0  1.026727  0
H  H28  1  0.00844130  0.93455274  0.67079499  1  0.028595  0  0.088502  0.081635  0  0.977177  0
H  H29  1  0.96218316  0.93164839  0.57303256  1  0.01739  0  0.085475  0.076365  0  0.991526  0
H  H30  1  0.79233336  0.75382849  0.59827375  1  0.056078  0  0.082108  0.121329  0  1.03188  0
H  H31  1  0.75164989  0.88549430  0.65242498  1  0.04017  0  0.087115  0.119849  0  0.9984  0
H  H32  1  0.83578998  0.76574460  0.69682948  1  0.014739  0  0.078549  0.10038  0  1.02604  0
H  H33  1  0.09091260  0.36257741  0.28040075  1  0.599699  0  0.343801  0.378361  0  0.853977  0
C  C34  1  0.51995827  0.71817210  0.48709437  1  1.542254  0  0.216952  0.595776  0  4.172397  0
C  C35  1  0.47665264  0.59813097  0.11661445  1  0.053076  0  -0.006559  0.037059  0  4.109017  0
C  C36  1  0.47689395  0.62511781  0.03801325  1  0.166377  0  -0.04178  -0.08802  0  4.146792  0
C  C37  1  0.48265167  0.63434061  0.96850255  1  -0.559542  0  -0.039936  -0.107796  0  4.095504  0
C  C38  1  0.36571974  0.61130315  0.84489051  1  -0.031282  0  -0.083974  -0.129305  0  3.954181  0
C  C39  1  0.37213646  0.58524369  0.76686892  1  -0.014971  0  -0.082344  -0.08698  0  3.995382  0
C  C40  1  0.50011335  0.57182954  0.72949711  1  -0.014639  0  -0.014709  -0.025602  0  3.951189  0
C  C41  1  0.62226205  0.59311747  0.77088972  1  -0.035532  0  -0.082779  -0.09078  0  4.002077  0
C  C42  1  0.61725003  0.62094760  0.84880612  1  -0.064505  0  -0.084799  -0.130408  0  3.953739  0
C  C43  1  0.48858123  0.62592296  0.88764099  1  0.152127  0  0.003095  0.145245  0  4.114878  0
C  C44  1  0.39638059  0.91322710  0.51508436  1  0.000324  0  -0.008198  -0.00989  0  3.865583  0
C  C45  1  0.50500871  0.53261305  0.64692001  1  1.570431  0  0.214327  0.587699  0  4.176423  0
C  C46  1  0.51589533  0.85280939  0.49425103  1  -0.035447  0  -0.005695  -0.043165  0  3.955797  0
C  C47  1  0.63504525  0.92676527  0.48161208  1  -0.051269  0  -0.085073  -0.105151  0  3.991791  0
C  C48  1  0.63164184  0.05288880  0.48813502  1  -0.036969  0  -0.083919  -0.097676  0  3.98797  0
C  C49  1  0.50953093  0.11325735  0.50823510  1  -0.078633  0  -0.012717  -0.070228  0  3.959436  0
C  C50  1  0.39298738  0.03925580  0.52259852  1  0.043099  0  -0.00053  0.082881  0  3.891607  0
C  C51  1  0.24202445  0.03898086  0.54692633  1  -0.051041  0  -0.160802  -0.288842  0  3.882687  0
C  C52  1  0.24402414  0.89523747  0.53526245  1  0.5247  0  0.013498  0.150486  0  3.865027  0
C  C53  1  0.93580678  0.43421784  0.55270347  1  0.524542  0  0.146485  0.192653  0  3.871344  0
C  C54  1  0.94328566  0.53394146  0.44145801  1  0.43373  0  0.064735  0.040576  0  3.874821  0
C  C55  1  0.08745058  0.53147343  0.44113795  1  0.521998  0  0.065574  0.044706  0  3.877669  0
C  C56  1  0.50744436  0.24821105  0.51138037  1  1.591851  0  0.216711  0.600328  0  4.17491  0
C  C57  1  0.07974559  0.43173775  0.55243400  1  0.605518  0  0.147604  0.196751  0  3.86963  0
C  C58  1  0.08514766  0.36382137  0.62631361  1  -0.019373  0  -0.135954  -0.225753  0  3.808809  0
C  C59  1  0.92050402  0.36646857  0.62661524  1  -0.068717  0  -0.135609  -0.225642  0  3.812156  0
C  C60  1  0.50917860  0.47636035  0.34861380  1  1.56693  0  0.214701  0.5941  0  4.16881  0
C  C61  1  0.36708314  0.52670623  0.14942778  1  0.540922  0  0.098568  0.194352  0  3.985061  0
C  C62  1  0.38090919  0.48132036  0.22313465  1  0.011966  0  -0.009734  -0.139018  0  3.921316  0
C  C63  1  0.49902494  0.51221156  0.26669027  1  0.031486  0  -0.007796  -0.025386  0  3.942268  0
C  C64  1  0.60326351  0.58779079  0.23571380  1  -0.051263  0  -0.091592  -0.112438  0  4.021952  0
C  C65  1  0.59279061  0.62963840  0.16188798  1  0.058459  0  -0.081503  -0.107542  0  3.977233  0
C  C66  1  0.16700348  0.58377292  0.07953142  1  0.388567  0  -0.0658  0.033112  0  3.880122  0
C  C67  1  0.07160548  0.63578964  0.14106414  1  0.01443  0  -0.173476  -0.141351  0  3.988287  0
C  C68  1  0.98185155  0.73407110  0.10916119  1  -0.057921  0  -0.24083  -0.349159  0  3.981512  0
C  C69  1  0.07895988  0.77858094  0.60750950  1  0.422119  0  -0.074102  0.03852  0  3.943315  0
C  C70  1  0.97119434  0.87457414  0.62353452  1  -0.034445  0  -0.173254  -0.141934  0  3.99233  0
C  C71  1  0.83024255  0.81668762  0.64369366  1  -0.085707  0  -0.24985  -0.356261  0  3.968273  0
C  C72  1  0.27597555  0.38741940  0.24936914  1  1.527929  0  0.234509  0.617147  0  4.114038  0
N  N73  1  0.86433605  0.48452379  0.49811950  1  -1.219649  0  -0.290406  -0.17819  0  3.48386  0
N  N74  1  0.15854256  0.47922603  0.49754366  1  -1.228383  0  -0.289289  -0.175275  0  3.474078  0
O  O75  1  0.40459944  0.66032164  0.47990665  1  -1.156376  0  -0.312412  -0.540615  0  2.315748  0
O  O76  1  0.63877079  0.67132382  0.48959762  1  -1.160969  0  -0.316802  -0.547425  0  2.339281  0
O  O77  1  0.38887500  0.51739281  0.61355256  1  -1.159094  0  -0.314868  -0.543678  0  2.343834  0
O  O78  1  0.62344206  0.51611402  0.61627002  1  -1.163709  0  -0.317241  -0.551747  0  2.309276  0
O  O79  1  0.38964686  0.29617769  0.51799141  1  -1.155668  0  -0.312993  -0.532066  0  2.298199  0
O  O80  1  0.62376990  0.30570258  0.50604003  1  -1.168497  0  -0.321017  -0.554741  0  2.340949  0
O  O81  1  0.39546615  0.44912186  0.38266188  1  -1.154751  0  -0.311605  -0.543138  0  2.339645  0
O  O82  1  0.62825651  0.48124443  0.37903456  1  -1.171  0  -0.31858  -0.551068  0  2.300183  0
O  O83  1  0.25280829  0.48972759  0.10838488  1  -1.064693  0  -0.195947  -0.224831  0  2.503195  0
O  O84  1  0.21819351  0.82441176  0.60043832  1  -1.046854  0  -0.230321  -0.251094  0  2.466872  0
O  O85  1  0.29786497  0.27940488  0.24952069  1  -1.093984  0  -0.2942  -0.477551  0  2.026126  0
O  O86  1  0.15064072  0.43342672  0.26870407  1  -1.10537  0  -0.333795  -0.500237  0  2.265994  0
