# generated using pymatgen
data_FeH7C7O3
_symmetry_space_group_name_H-M   'P 1'
_cell_length_a   7.01885103
_cell_length_b   15.10372630
_cell_length_c   15.10806807
_cell_angle_alpha   117.63219094
_cell_angle_beta   98.92552017
_cell_angle_gamma   98.91057849
_symmetry_Int_Tables_number   1
_chemical_formula_structural   FeH7C7O3
_chemical_formula_sum   'Fe6 H42 C42 O18'
_cell_volume   1353.85588682
_cell_formula_units_Z   6
loop_
 _symmetry_equiv_pos_site_id
 _symmetry_equiv_pos_as_xyz
  1  'x, y, z'
loop_
 _atom_site_type_symbol
 _atom_site_label
 _atom_site_symmetry_multiplicity
 _atom_site_fract_x
 _atom_site_fract_y
 _atom_site_fract_z
 _atom_site_occupancy
 _atom_site_hle17_ddec_charge
 _atom_site_hle17_ddec_spin_density
 _atom_site_hle17_ddec_sum_bond_order
 _atom_site_hle17_magmom
 _atom_site_hse06_10hf_ddec_charge
 _atom_site_hse06_10hf_ddec_spin_density
 _atom_site_hse06_10hf_ddec_sum_bond_order
 _atom_site_hse06_10hf_magmom
 _atom_site_hse06_ddec_charge
 _atom_site_hse06_ddec_spin_density
 _atom_site_hse06_ddec_sum_bond_order
 _atom_site_hse06_magmom
 _atom_site_pbe_cm5_charge
 _atom_site_pbe_ddec_charge
 _atom_site_pbe_ddec_spin_density
 _atom_site_pbe_ddec_sum_bond_order
 _atom_site_pbe_magmom
Fe  Fe0  1  0.46066078  0.25937427  0.57616635  1  1.075171  -3.890193  2.040022  -3.647  1.006777  -3.877896  2.466765  -3.656  1.067577  -3.904999  2.403066  -3.72  0.679771  0.955011  -3.845933  2.513698  -3.589
Fe  Fe1  1  0.20129238  0.31679953  0.74054555  1  1.074266  -3.890281  2.039096  -3.648  1.005781  -3.878584  2.465815  -3.656  1.066483  -3.904899  2.402055  -3.72  0.6793  0.95428  -3.847931  2.512694  -3.59
Fe  Fe2  1  0.88451422  0.42396454  0.68338964  1  1.074291  -3.89113  2.038497  -3.647  1.006472  -3.878867  2.464807  -3.656  1.067271  -3.905912  2.401084  -3.72  0.67938  0.95468  -3.846885  2.511745  -3.589
Fe  Fe3  1  0.53933902  0.74062730  0.42383365  1  1.075212  -3.890198  2.040024  -3.647  1.006803  -3.877902  2.466753  -3.656  1.067608  -3.905004  2.403051  -3.72  0.679781  0.955043  -3.845961  2.513674  -3.589
Fe  Fe4  1  0.79871214  0.68320281  0.25945514  1  1.074287  -3.890289  2.039138  -3.648  1.005829  -3.87859  2.465809  -3.656  1.066534  -3.904903  2.402048  -3.72  0.679318  0.954308  -3.847949  2.512738  -3.59
Fe  Fe5  1  0.11548703  0.57603702  0.31661046  1  1.074273  -3.891124  2.03857  -3.647  1.006442  -3.878856  2.464909  -3.656  1.067244  -3.905897  2.401184  -3.72  0.679367  0.954662  -3.846898  2.511823  -3.589
H  H6  1  0.18989273  0.55310700  0.53091291  1  0.131776  0.000342  0.940047  0.0  0.139498  -3.2e-05  1.002527  0.0  0.143505  8.2e-05  1.000016  0.0  0.11176  0.136751  -0.000163  1.004152  0.0
H  H7  1  0.63677641  0.97792001  0.44705644  1  0.132302  0.000343  0.938897  0.0  0.140262  -3.3e-05  1.001227  0.0  0.144266  8.2e-05  0.99872  0.0  0.11226  0.137478  -0.000163  1.002926  0.0
H  H8  1  0.65893879  0.46920515  0.02215837  1  0.13142  0.000332  0.941481  0.0  0.139679  -3.4e-05  1.003502  0.0  0.143608  8.1e-05  1.00106  0.0  0.11158  0.136941  -0.000164  1.005134  0.0
H  H9  1  0.81011034  0.44689534  0.46908768  1  0.131753  0.000344  0.940058  0.0  0.13947  -3.2e-05  1.002546  0.0  0.143477  8.2e-05  1.000036  0.0  0.11174  0.136724  -0.000163  1.004171  0.0
H  H10  1  0.36322561  0.02208310  0.55294509  1  0.132264  0.00034  0.938953  0.0  0.140236  -3.3e-05  1.00126  0.0  0.144239  8.2e-05  0.998754  0.0  0.112257  0.137453  -0.000163  1.002958  0.0
H  H11  1  0.34106274  0.53079409  0.97784200  1  0.131406  0.000332  0.941464  0.0  0.13963  -3.4e-05  1.003523  0.0  0.143559  8.1e-05  1.001082  0.0  0.111572  0.136894  -0.000164  1.005157  0.0
H  H12  1  0.22997799  0.31966267  0.92746903  1  0.079112  0.00078  0.948664  0.0  0.093461  0.000785  1.005256  0.0  0.096218  0.000681  1.003444  0.0  0.099577  0.091203  0.000784  1.006811  0.0
H  H13  1  0.91035173  0.60777231  0.68029781  1  0.079679  0.000782  0.9481  0.0  0.094068  0.000791  1.004591  0.0  0.096891  0.000685  1.002721  0.0  0.099775  0.091765  0.000796  1.006223  0.0
H  H14  1  0.30245085  0.07240871  0.39233281  1  0.079769  0.000778  0.947955  0.0  0.093883  0.000791  1.004783  0.0  0.09667  0.000685  1.002916  0.0  0.099779  0.091595  0.000793  1.0064  0.0
H  H15  1  0.77002392  0.68033735  0.07252973  1  0.079162  0.000778  0.948621  0.0  0.093483  0.000785  1.005241  0.0  0.096257  0.00068  1.003407  0.0  0.099585  0.091227  0.000784  1.006796  0.0
H  H16  1  0.08964115  0.39222693  0.31970260  1  0.079664  0.000783  0.948107  0.0  0.094027  0.000791  1.004616  0.0  0.096851  0.000685  1.002746  0.0  0.099743  0.091724  0.000796  1.006248  0.0
H  H17  1  0.69755108  0.92759130  0.60767059  1  0.079788  0.00078  0.947949  0.0  0.093822  0.000791  1.004852  0.0  0.096605  0.000686  1.002991  0.0  0.099752  0.091538  0.000794  1.006471  0.0
H  H18  1  0.95050858  0.13633747  0.72287716  1  0.134004  0.000628  0.974332  0.0  0.149257  0.000654  1.030752  -0.001  0.152674  0.000483  1.028703  0.0  0.094898  0.146505  0.000758  1.032666  -0.001
H  H19  1  0.81442343  0.58639907  0.86356842  1  0.13357  0.000621  0.974692  0.0  0.148842  0.000649  1.031118  -0.001  0.152208  0.000481  1.029167  -0.001  0.094525  0.146115  0.000752  1.032978  -0.001
H  H20  1  0.22817797  0.27722826  0.41391036  1  0.133007  0.000631  0.974648  0.0  0.148689  0.000657  1.030553  -0.001  0.152057  0.000489  1.028595  -0.001  0.094651  0.145979  0.000759  1.032408  -0.001
H  H21  1  0.04948728  0.86366487  0.27712358  1  0.133969  0.000629  0.974371  0.0  0.149213  0.000654  1.030802  -0.001  0.15263  0.000483  1.028755  0.0  0.094889  0.146461  0.000759  1.032715  -0.001
H  H22  1  0.18557666  0.41360017  0.13643250  1  0.133635  0.000621  0.974656  0.0  0.148901  0.000649  1.031084  -0.001  0.152267  0.000481  1.029133  -0.001  0.09455  0.146174  0.000752  1.032943  -0.001
H  H23  1  0.77181519  0.72276866  0.58608701  1  0.133017  0.000629  0.97459  0.0  0.148705  0.000657  1.030495  -0.001  0.152073  0.000489  1.028537  -0.001  0.094658  0.145995  0.000759  1.03235  -0.001
H  H24  1  0.89512274  0.25971591  0.80822789  1  0.142302  0.001694  0.986063  0.0  0.151094  0.001479  1.050636  0.0  0.155571  0.00139  1.047654  0.0  0.095145  0.147635  0.001446  1.053123  -0.001
H  H25  1  0.63543878  0.54846412  0.74027403  1  0.14302  0.001714  0.988118  0.0  0.152094  0.00149  1.052058  0.0  0.156627  0.001403  1.049017  0.0  0.095722  0.14853  0.001455  1.05466  -0.001
H  H26  1  0.08711865  0.19183054  0.45183589  1  0.142492  0.001714  0.988922  0.0  0.151455  0.00149  1.053238  0.0  0.155969  0.001405  1.050238  0.0  0.095363  0.147891  0.001454  1.055839  -0.001
H  H27  1  0.10487888  0.74028643  0.19177193  1  0.142285  0.001695  0.986024  0.0  0.151086  0.00148  1.050599  0.0  0.155563  0.001391  1.047617  0.0  0.095153  0.147626  0.001446  1.05308  -0.001
H  H28  1  0.36456066  0.45153667  0.25973022  1  0.143062  0.001714  0.988112  0.0  0.152125  0.00149  1.052065  0.0  0.156659  0.001403  1.049023  0.0  0.095734  0.14856  0.001455  1.054663  -0.001
H  H29  1  0.91287923  0.80816715  0.54816482  1  0.142512  0.001711  0.988909  0.0  0.151471  0.00149  1.053229  0.0  0.155978  0.001405  1.050239  0.0  0.095391  0.147913  0.001454  1.055819  -0.001
H  H30  1  0.33393059  0.15572755  0.90560877  1  0.100826  0.00115  0.9289  0.001  0.124448  0.001406  0.984036  0.001  0.125527  0.001009  0.984451  0.001  0.092722  0.123603  0.001553  0.983845  0.001
H  H31  1  0.17793438  0.74985392  0.84422970  1  0.101725  0.001166  0.928349  0.001  0.125288  0.001418  0.983402  0.001  0.126374  0.001021  0.983799  0.001  0.093204  0.124414  0.001565  0.983245  0.001
H  H32  1  0.42782919  0.09439303  0.25033505  1  0.102003  0.001173  0.929182  0.001  0.125836  0.001421  0.983803  0.001  0.126948  0.001026  0.9842  0.001  0.093417  0.124949  0.001567  0.983644  0.001
H  H33  1  0.66606334  0.84427091  0.09439069  1  0.100808  0.001152  0.928893  0.001  0.124414  0.001406  0.984052  0.001  0.125493  0.001009  0.984468  0.001  0.092707  0.123569  0.001553  0.983863  0.001
H  H34  1  0.82206099  0.25014455  0.15576921  1  0.101718  0.001167  0.928363  0.001  0.125276  0.001417  0.983426  0.001  0.126361  0.001021  0.983824  0.001  0.093197  0.1244  0.001564  0.98327  0.001
H  H35  1  0.57216840  0.90560698  0.74966539  1  0.10199  0.00117  0.929207  0.001  0.125821  0.001421  0.983827  0.001  0.126932  0.001026  0.984224  0.001  0.093405  0.124936  0.001567  0.983668  0.001
H  H36  1  0.48117365  0.21775370  0.85534817  1  0.113101  0.000488  0.938987  0.0  0.133299  0.000672  0.998184  0.0  0.135922  0.000513  0.996839  0.0  0.092901  0.131238  0.000723  0.999396  0.0
H  H37  1  0.26369276  0.63770024  0.78241486  1  0.1133  0.00049  0.940336  0.0  0.133375  0.000674  0.999509  0.0  0.135977  0.000517  0.998197  0.0  0.093048  0.131294  0.000722  1.000728  0.0
H  H38  1  0.62582548  0.14465205  0.36243212  1  0.113316  0.000494  0.939488  0.0  0.133741  0.000676  0.998351  0.0  0.136393  0.000518  0.996997  0.0  0.093002  0.131634  0.000725  0.999589  0.0
H  H39  1  0.51882239  0.78224322  0.14465007  1  0.113057  0.000491  0.939016  0.0  0.13327  0.000672  0.998203  0.0  0.135894  0.000513  0.996858  0.0  0.092884  0.131206  0.000723  0.999412  0.0
H  H40  1  0.73630261  0.36229822  0.21758272  1  0.113288  0.000492  0.940339  0.0  0.133364  0.000674  0.999514  0.0  0.135968  0.000517  0.998202  0.0  0.093042  0.13129  0.000722  1.000725  0.0
H  H41  1  0.37417211  0.85534796  0.63756832  1  0.113338  0.00049  0.93945  0.0  0.133756  0.000676  0.99832  0.0  0.13641  0.000518  0.996963  0.0  0.092998  0.131647  0.000725  0.999558  0.0
H  H42  1  0.28003628  0.10586815  0.76938921  1  0.108821  -2.2e-05  0.940942  0.0  0.13166  -8e-06  0.997046  0.0  0.133498  3.2e-05  0.997154  0.0  0.091732  0.130178  -4.7e-05  0.997151  0.0
H  H43  1  0.17412774  0.66351323  0.89416917  1  0.109853  -2.1e-05  0.940442  0.0  0.132334  -1e-05  0.996717  0.0  0.134174  3e-05  0.996813  0.0  0.092247  0.130888  -4.9e-05  0.996762  0.0
H  H44  1  0.51036405  0.23064448  0.33668358  1  0.109379  -2.1e-05  0.941425  0.0  0.132088  -1e-05  0.997494  0.0  0.134001  3.1e-05  0.997526  0.0  0.091695  0.130604  -4.9e-05  0.997587  0.0
H  H45  1  0.71995620  0.89413032  0.23060883  1  0.108734  -1.9e-05  0.941014  0.0  0.13161  -8e-06  0.997086  0.0  0.133461  3.2e-05  0.997178  0.0  0.091738  0.130127  -4.7e-05  0.997192  0.0
H  H46  1  0.82587234  0.33648601  0.10582977  1  0.109836  -1.9e-05  0.940444  0.0  0.132332  -1e-05  0.996703  0.0  0.134172  3.1e-05  0.996799  0.0  0.092239  0.130886  -4.9e-05  0.99675  0.0
H  H47  1  0.48963172  0.76935476  0.66331704  1  0.109359  -2.2e-05  0.941437  0.0  0.132068  -1e-05  0.997506  0.0  0.133981  3.1e-05  0.997539  0.0  0.091679  0.130583  -4.9e-05  0.997601  0.0
C  C48  1  0.26122755  0.43466790  0.61092115  1  0.678452  0.008407  3.830555  0.004  0.633097  4.9e-05  4.120712  -0.003  0.671222  0.00037  4.111616  -0.003  0.221428  0.604834  -9.7e-05  4.127434  -0.003
C  C49  1  0.82665847  0.17623543  0.56540216  1  0.680107  0.008462  3.832503  0.005  0.635298  0.000101  4.121643  -0.003  0.673377  0.0004  4.1126  -0.003  0.222817  0.607067  -4e-06  4.1283  -0.003
C  C50  1  0.65029188  0.38916352  0.82384282  1  0.679701  0.008529  3.828164  0.005  0.634582  0.000124  4.117643  -0.003  0.672716  0.000408  4.108532  -0.003  0.222614  0.606293  4.3e-05  4.124412  -0.003
C  C51  1  0.73877408  0.56533444  0.38907933  1  0.678628  0.008408  3.830163  0.004  0.633195  5.1e-05  4.120449  -0.003  0.67132  0.000372  4.111346  -0.003  0.221462  0.604928  -9.4e-05  4.127166  -0.003
C  C52  1  0.17334355  0.82376768  0.43459937  1  0.679825  0.008459  3.832775  0.005  0.635234  0.000101  4.121655  -0.003  0.673297  0.000401  4.112631  -0.003  0.222799  0.606998  -3e-06  4.128305  -0.003
C  C53  1  0.34970926  0.61083494  0.17615649  1  0.679592  0.008524  3.828303  0.005  0.634517  0.000124  4.117731  -0.003  0.672652  0.000406  4.108621  -0.003  0.222584  0.606223  4.4e-05  4.124488  -0.003
C  C54  1  0.38698228  0.46559735  0.55362392  1  -0.177763  -0.006044  3.76957  -0.011  -0.163789  -0.00627  4.013491  -0.01  -0.175248  -0.004265  4.038209  -0.007  -0.030916  -0.155782  -0.00837  3.997057  -0.013
C  C55  1  0.92143737  0.08797175  0.53440523  1  -0.178406  -0.005939  3.771279  -0.01  -0.165057  -0.006165  4.015986  -0.01  -0.176579  -0.004199  4.040792  -0.007  -0.03115  -0.157014  -0.008195  3.99946  -0.013
C  C56  1  0.83338838  0.44642381  0.91203629  1  -0.178397  -0.006054  3.767962  -0.011  -0.164483  -0.006281  4.012169  -0.01  -0.175943  -0.004282  4.036856  -0.007  -0.030878  -0.156501  -0.008344  3.99578  -0.013
C  C57  1  0.61301779  0.53440189  0.44637304  1  -0.177848  -0.006036  3.769608  -0.011  -0.163855  -0.006271  4.013546  -0.01  -0.175306  -0.004265  4.038245  -0.007  -0.030967  -0.155843  -0.00837  3.997106  -0.013
C  C58  1  0.07856859  0.91203059  0.46559491  1  -0.178078  -0.005953  3.771188  -0.01  -0.164949  -0.006165  4.016086  -0.01  -0.176465  -0.004201  4.040896  -0.007  -0.03105  -0.156886  -0.008195  3.999526  -0.013
C  C59  1  0.16661421  0.55357466  0.08796512  1  -0.17843  -0.006054  3.767912  -0.011  -0.164535  -0.006282  4.012105  -0.01  -0.176003  -0.004276  4.036802  -0.007  -0.030888  -0.156549  -0.008344  3.995715  -0.013
C  C60  1  0.56546698  0.43478553  0.53520174  1  0.307143  -0.002468  3.84764  -0.003  0.292629  -0.005188  4.11026  -0.007  0.304201  -0.003304  4.135363  -0.006  0.074029  0.283901  -0.007444  4.091932  -0.01
C  C61  1  0.13073347  0.10040483  0.56524984  1  0.307064  -0.002393  3.850097  -0.003  0.292165  -0.005125  4.113179  -0.007  0.303843  -0.00326  4.138276  -0.006  0.073993  0.283402  -0.007338  4.094806  -0.01
C  C62  1  0.03028441  0.46476417  0.89962953  1  0.309261  -0.002515  3.847716  -0.003  0.294127  -0.005222  4.111111  -0.008  0.305784  -0.003343  4.136147  -0.006  0.074759  0.28535  -0.007431  4.092836  -0.01
C  C63  1  0.43453753  0.56521681  0.46479895  1  0.307048  -0.002477  3.847699  -0.003  0.292547  -0.005188  4.110264  -0.007  0.304123  -0.003303  4.13536  -0.006  0.073949  0.283817  -0.007444  4.091933  -0.01
C  C64  1  0.86927250  0.89959751  0.43475295  1  0.306952  -0.002373  3.850031  -0.003  0.292071  -0.005125  4.11319  -0.007  0.303752  -0.003258  4.138286  -0.006  0.073968  0.283319  -0.007338  4.094801  -0.01
C  C65  1  0.96971712  0.53523507  0.10037150  1  0.309323  -0.002516  3.847714  -0.003  0.294193  -0.005221  4.111113  -0.008  0.305851  -0.003348  4.13615  -0.006  0.074799  0.28542  -0.007431  4.092834  -0.01
C  C66  1  0.32675532  0.52975980  0.51765555  1  -0.176767  -0.005995  3.721641  -0.009  -0.210489  -0.005232  3.984171  -0.008  -0.215399  -0.003356  4.005941  -0.005  -0.099161  -0.2065  -0.007235  3.968903  -0.01
C  C67  1  0.79694707  0.98789295  0.47027381  1  -0.176807  -0.006038  3.7203  -0.009  -0.210505  -0.00525  3.983053  -0.008  -0.21538  -0.003376  4.004775  -0.005  -0.099644  -0.20649  -0.007264  3.967736  -0.01
C  C68  1  0.80907128  0.48242298  0.01210741  1  -0.176112  -0.005895  3.723674  -0.009  -0.210151  -0.005163  3.986293  -0.007  -0.214919  -0.003314  4.007983  -0.005  -0.098379  -0.206239  -0.00716  3.971063  -0.01
C  C69  1  0.67324592  0.47024176  0.48234323  1  -0.176751  -0.006006  3.72169  -0.009  -0.21046  -0.005232  3.984223  -0.008  -0.215369  -0.003355  4.005991  -0.005  -0.099166  -0.206475  -0.007235  3.968957  -0.01
C  C70  1  0.20305744  0.01210939  0.52972754  1  -0.17691  -0.006019  3.720298  -0.009  -0.210566  -0.005251  3.983107  -0.008  -0.215443  -0.003374  4.004831  -0.005  -0.09972  -0.206556  -0.007264  3.967789  -0.01
C  C71  1  0.19092947  0.51757471  0.98789219  1  -0.176013  -0.005896  3.723479  -0.009  -0.210017  -0.005164  3.986118  -0.007  -0.214783  -0.003317  4.007809  -0.005  -0.098329  -0.206111  -0.00716  3.970894  -0.01
C  C72  1  0.18790233  0.24489556  0.85576171  1  0.036241  0.011673  3.749749  0.002  0.02768  0.01223  4.021914  0.003  0.03391  0.008168  4.033841  0.0  -0.103366  0.023765  0.013067  4.013196  0.004
C  C73  1  0.94316695  0.61081964  0.75505588  1  0.034103  0.011984  3.748255  0.002  0.025232  0.012471  4.020872  0.003  0.03149  0.008385  4.032701  0.0  -0.104795  0.021227  0.013339  4.012362  0.004
C  C74  1  0.33224905  0.14421448  0.38941703  1  0.035754  0.012111  3.747246  0.002  0.026926  0.012545  4.020185  0.003  0.033239  0.008466  4.032001  0.0  -0.103783  0.022896  0.013393  4.011656  0.004
C  C75  1  0.81209603  0.75510601  0.14423753  1  0.036221  0.011678  3.749892  0.002  0.027676  0.012222  4.022054  0.003  0.033893  0.00816  4.033986  0.0  -0.103325  0.023757  0.013061  4.013333  0.004
C  C76  1  0.05682910  0.38917728  0.24494434  1  0.034182  0.011976  3.748091  0.002  0.025344  0.012466  4.020675  0.003  0.031601  0.00838  4.032508  0.0  -0.104722  0.021334  0.013335  4.012169  0.004
C  C77  1  0.66774921  0.85578399  0.61058341  1  0.035764  0.012073  3.747308  0.002  0.027001  0.012548  4.020228  0.003  0.033316  0.008469  4.032039  0.0  -0.103742  0.022954  0.013395  4.011703  0.004
C  C78  1  0.00415179  0.21427913  0.78980644  1  -0.364842  0.014943  3.669962  0.002  -0.413732  0.014637  3.929937  0.003  -0.416644  0.013731  3.934769  0.003  -0.217367  -0.411363  0.014175  3.926811  0.003
C  C79  1  0.78998656  0.57537996  0.78562326  1  -0.364969  0.015459  3.67074  0.003  -0.413955  0.015067  3.930542  0.003  -0.416875  0.014168  3.935382  0.003  -0.217518  -0.411558  0.014662  3.927574  0.003
C  C80  1  0.21467237  0.21025799  0.42489671  1  -0.364383  0.015454  3.67172  0.003  -0.413543  0.015068  3.93119  0.003  -0.416472  0.014185  3.936047  0.003  -0.218016  -0.411141  0.014629  3.928198  0.003
C  C81  1  0.99584186  0.78572166  0.21019210  1  -0.364822  0.014935  3.670114  0.002  -0.413708  0.014641  3.930094  0.003  -0.416623  0.013736  3.934936  0.003  -0.217392  -0.411335  0.014183  3.926961  0.003
C  C82  1  0.21001314  0.42461850  0.21437794  1  -0.365105  0.015462  3.67065  0.003  -0.414091  0.015067  3.930484  0.003  -0.417017  0.014168  3.935325  0.003  -0.217557  -0.41169  0.014666  3.927511  0.003
C  C83  1  0.78532407  0.78973970  0.57510323  1  -0.364407  0.015496  3.671686  0.003  -0.413569  0.015066  3.931136  0.003  -0.416492  0.014181  3.935998  0.003  -0.218059  -0.411173  0.01463  3.928131  0.003
C  C84  1  0.32810772  0.17729332  0.84493909  1  -0.289582  0.000814  3.751249  -0.001  -0.361827  0.001022  3.990104  -0.001  -0.364721  0.000852  3.997757  0.0  -0.238221  -0.359652  0.001092  3.984933  -0.001
C  C85  1  0.15089665  0.66764834  0.82274917  1  -0.290987  0.000807  3.751882  -0.001  -0.362634  0.001022  3.990854  -0.001  -0.365504  0.000854  3.998506  0.0  -0.23888  -0.360473  0.001085  3.985718  -0.001
C  C86  1  0.48300717  0.15506552  0.33254337  1  -0.292072  0.000804  3.752339  -0.001  -0.364443  0.001025  3.990836  -0.001  -0.367445  0.000855  3.99842  0.0  -0.239049  -0.362192  0.001088  3.985736  -0.001
C  C87  1  0.67188477  0.82270515  0.15505961  1  -0.289427  0.000808  3.7513  -0.001  -0.361707  0.001022  3.990141  -0.001  -0.364611  0.000852  3.997789  0.0  -0.238218  -0.359526  0.001092  3.984967  -0.001
C  C88  1  0.84910016  0.33235013  0.17724917  1  -0.290978  0.000801  3.751889  -0.001  -0.362636  0.001022  3.990858  -0.001  -0.365505  0.000853  3.998507  0.0  -0.238893  -0.360478  0.001086  3.985714  -0.001
C  C89  1  0.51699003  0.84493372  0.66745669  1  -0.292088  0.000812  3.752342  -0.001  -0.364443  0.001025  3.990805  -0.001  -0.367445  0.000855  3.998387  0.0  -0.239029  -0.362186  0.001089  3.985707  -0.001
O  O90  1  0.32951093  0.38842953  0.65703280  1  -0.646211  -0.032525  2.212992  -0.06  -0.594466  -0.03436  2.486643  -0.058  -0.629444  -0.027333  2.476004  -0.047  -0.307699  -0.566948  -0.040964  2.492295  -0.068
O  O91  1  0.94104613  0.26861018  0.61151998  1  -0.646847  -0.032395  2.213061  -0.06  -0.595679  -0.034239  2.486766  -0.058  -0.630512  -0.027239  2.476021  -0.047  -0.308098  -0.568232  -0.040801  2.492465  -0.068
O  O92  1  0.67241499  0.34298567  0.73152002  1  -0.648696  -0.032436  2.210176  -0.06  -0.596873  -0.034275  2.483373  -0.058  -0.631802  -0.02727  2.472683  -0.047  -0.309201  -0.569406  -0.040825  2.489122  -0.068
O  O93  1  0.67049280  0.61157126  0.34296514  1  -0.646334  -0.032524  2.213052  -0.06  -0.594491  -0.034359  2.486597  -0.058  -0.629468  -0.027332  2.475955  -0.047  -0.307683  -0.566971  -0.040962  2.492245  -0.068
O  O94  1  0.05895798  0.73139139  0.38847635  1  -0.646713  -0.032395  2.213051  -0.06  -0.595655  -0.034239  2.486756  -0.058  -0.630483  -0.02724  2.476018  -0.047  -0.308071  -0.568207  -0.040801  2.492452  -0.068
O  O95  1  0.32758942  0.65701357  0.26848055  1  -0.648671  -0.032438  2.210187  -0.06  -0.596845  -0.034276  2.483341  -0.058  -0.631773  -0.027271  2.472649  -0.047  -0.309208  -0.569376  -0.040826  2.489075  -0.068
O  O96  1  0.09560870  0.45827137  0.61375081  1  -0.606004  -0.028144  2.095103  -0.055  -0.555578  -0.027985  2.357356  -0.05  -0.589619  -0.022064  2.347033  -0.04  -0.301019  -0.529496  -0.033954  2.363567  -0.06
O  O97  1  0.63743645  0.15547406  0.54200671  1  -0.608033  -0.028194  2.097999  -0.055  -0.556798  -0.028024  2.359355  -0.05  -0.590873  -0.022111  2.349047  -0.04  -0.301986  -0.530659  -0.033994  2.365527  -0.06
O  O98  1  0.48179738  0.38636546  0.84454113  1  -0.606242  -0.028168  2.097001  -0.055  -0.555516  -0.027989  2.358898  -0.05  -0.58953  -0.022062  2.3485  -0.04  -0.301339  -0.529445  -0.033996  2.365112  -0.06
O  O99  1  0.90439427  0.54172787  0.38624900  1  -0.606013  -0.028145  2.094905  -0.055  -0.555597  -0.027987  2.357223  -0.05  -0.589638  -0.022065  2.346895  -0.04  -0.301034  -0.529517  -0.033955  2.363431  -0.06
O  O100  1  0.36256625  0.84452750  0.45799614  1  -0.608002  -0.028197  2.098073  -0.055  -0.556836  -0.028025  2.359349  -0.05  -0.590904  -0.022113  2.349046  -0.04  -0.302059  -0.5307  -0.033997  2.36552  -0.06
O  O101  1  0.51820531  0.61363610  0.15546040  1  -0.606196  -0.028166  2.097075  -0.055  -0.555503  -0.027989  2.358966  -0.05  -0.589516  -0.022062  2.348569  -0.04  -0.301344  -0.529432  -0.033996  2.365177  -0.06
O  O102  1  0.63634344  0.37204396  0.56526223  1  -0.643807  -0.076014  2.229266  -0.117  -0.581685  -0.076112  2.518748  -0.109  -0.627474  -0.06234  2.515933  -0.084  -0.354937  -0.543415  -0.089243  2.517691  -0.132
O  O103  1  0.26436178  0.19315693  0.62802028  1  -0.644274  -0.075935  2.23122  -0.117  -0.581351  -0.075991  2.520238  -0.109  -0.627342  -0.062265  2.517652  -0.084  -0.355178  -0.54306  -0.089115  2.519148  -0.132
O  O104  1  0.07102068  0.43472006  0.80685626  1  -0.645071  -0.075944  2.228998  -0.117  -0.582493  -0.076068  2.518402  -0.109  -0.628399  -0.062295  2.515714  -0.084  -0.356428  -0.544247  -0.089249  2.517363  -0.132
O  O105  1  0.36365769  0.62795451  0.43473510  1  -0.64378  -0.076014  2.229337  -0.117  -0.581619  -0.07611  2.518757  -0.109  -0.627417  -0.062338  2.515953  -0.084  -0.354884  -0.543356  -0.08924  2.517698  -0.132
O  O106  1  0.73564524  0.80684463  0.37198288  1  -0.644344  -0.075936  2.231186  -0.117  -0.581382  -0.075991  2.520163  -0.109  -0.627388  -0.062266  2.517596  -0.084  -0.355227  -0.543118  -0.089118  2.519089  -0.132
O  O107  1  0.92898086  0.56527918  0.19314477  1  -0.645098  -0.075943  2.229052  -0.117  -0.582534  -0.076068  2.518483  -0.109  -0.628438  -0.062296  2.515792  -0.084  -0.356461  -0.544291  -0.089247  2.517442  -0.132
