# generated using pymatgen
data_ZnH6C4SN
_symmetry_space_group_name_H-M   'P 1'
_cell_length_a   6.14888140
_cell_length_b   6.42898635
_cell_length_c   24.82900000
_cell_angle_alpha   90.00000000
_cell_angle_beta   90.00000000
_cell_angle_gamma   90.00000000
_symmetry_Int_Tables_number   1
_chemical_formula_structural   ZnH6C4SN
_chemical_formula_sum   'Zn8 H48 C32 S8 N8'
_cell_volume   981.51704987
_cell_formula_units_Z   8
loop_
 _symmetry_equiv_pos_site_id
 _symmetry_equiv_pos_as_xyz
  1  'x, y, z'
loop_
 _atom_site_type_symbol
 _atom_site_label
 _atom_site_symmetry_multiplicity
 _atom_site_fract_x
 _atom_site_fract_y
 _atom_site_fract_z
 _atom_site_occupancy
 _atom_site_hle17_bader_spin_density
 _atom_site_hle17_ddec_charge
 _atom_site_hle17_ddec_spin_density
 _atom_site_hle17_ddec_sum_bond_order
 _atom_site_hle17_magmom
 _atom_site_hse06_10hf_bader_spin_density
 _atom_site_hse06_10hf_ddec_charge
 _atom_site_hse06_10hf_ddec_spin_density
 _atom_site_hse06_10hf_ddec_sum_bond_order
 _atom_site_hse06_10hf_magmom
 _atom_site_hse06_bader_spin_density
 _atom_site_hse06_ddec_charge
 _atom_site_hse06_ddec_spin_density
 _atom_site_hse06_ddec_sum_bond_order
 _atom_site_hse06_magmom
 _atom_site_pbe_bader_charge
 _atom_site_pbe_bader_spin_density
 _atom_site_pbe_cm5_charge
 _atom_site_pbe_ddec_charge
 _atom_site_pbe_ddec_spin_density
 _atom_site_pbe_ddec_sum_bond_order
 _atom_site_pbe_magmom
Zn  Zn0  1  0.17680452  0.89806226  0.28154577  1  0  0.775545  0  2.210752  0  0  0.636779  0  2.667126  0  0  0.668264  0  2.635516  0  0.913308  0  0.428797  0.614685  0  2.689133  0
Zn  Zn1  1  0.67680766  0.10193364  0.21845463  1  0  0.775556  0  2.210735  0  0  0.636768  0  2.667148  0  0  0.668253  0  2.635532  0  0.913309  0  0.428799  0.614673  0  2.689156  0
Zn  Zn2  1  0.82319038  0.60193471  0.78154537  1  0  0.775526  0  2.210757  0  0  0.636744  0  2.667156  0  0  0.668226  0  2.635544  0  0.913291  0  0.42878  0.614648  0  2.689167  0
Zn  Zn3  1  0.32319049  0.39806431  0.71845544  1  0  0.775538  0  2.210738  0  0  0.636756  0  2.667101  0  0  0.668244  0  2.635489  0  0.913337  0  0.428801  0.614662  0  2.689112  0
Zn  Zn4  1  0.82319038  0.10193364  0.71845423  1  0  0.775512  0  2.210721  0  0  0.636754  0  2.667112  0  0  0.668237  0  2.635497  0  0.91332  0  0.428808  0.614658  0  2.689122  0
Zn  Zn5  1  0.32319049  0.89806537  0.78154618  1  0  0.775508  0  2.210763  0  0  0.636729  0  2.667134  0  0  0.668218  0  2.635521  0  0.913314  0  0.428794  0.614636  0  2.689139  0
Zn  Zn6  1  0.17680940  0.39806431  0.21845382  1  0  0.775537  0  2.210788  0  0  0.636764  0  2.66717  0  0  0.668245  0  2.635559  0  0.913305  0  0.4288  0.614667  0  2.689179  0
Zn  Zn7  1  0.67680766  0.60193626  0.28154698  1  0  0.775533  0  2.210696  0  0  0.636771  0  2.667089  0  0  0.668258  0  2.635473  0  0.913326  0  0.428785  0.614674  0  2.689098  0
H  H8  1  0.48851487  0.01051177  0.34267308  1  0  0.274718  0  0.961761  0  0  0.26449  0  1.021945  0  0  0.270246  0  1.018603  0  0.450854  0  0.257565  0.260297  0  1.024483  0
H  H9  1  0.98851638  0.98949036  0.15732571  1  0  0.274757  0  0.961739  0  0  0.26452  0  1.021928  0  0  0.270274  0  1.018587  0  0.450913  0  0.257559  0.260326  0  1.024466  0
H  H10  1  0.51148328  0.48949085  0.84267510  1  0  0.274728  0  0.961723  0  0  0.264497  0  1.021915  0  0  0.270251  0  1.018575  0  0.450917  0  0.257552  0.260303  0  1.024451  0
H  H11  1  0.01148014  0.51050661  0.65732772  1  0  0.274673  0  0.961789  0  0  0.264441  0  1.02197  0  0  0.270195  0  1.018631  0  0.450806  0  0.257526  0.260251  0  1.0245  0
H  H12  1  0.51147840  0.98949502  0.65732531  1  0  0.274656  0  0.961791  0  0  0.264441  0  1.021981  0  0  0.270196  0  1.018643  0  0.450863  0  0.257547  0.260251  0  1.024511  0
H  H13  1  0.01148339  0.01051332  0.84267429  1  0  0.274707  0  0.961733  0  0  0.264475  0  1.021919  0  0  0.27023  0  1.018579  0  0.450906  0  0.257588  0.26028  0  1.024462  0
H  H14  1  0.48852463  0.51050972  0.15732651  1  0  0.27468  0  0.96178  0  0  0.26445  0  1.021969  0  0  0.270205  0  1.018629  0  0.451127  0  0.257511  0.260259  0  1.024499  0
H  H15  1  0.98851313  0.48949552  0.34267631  1  0  0.274737  0  0.961752  0  0  0.26451  0  1.021942  0  0  0.270264  0  1.018605  0  0.450948  0  0.257608  0.260316  0  1.024477  0
H  H16  1  0.30530594  0.19745570  0.34942889  1  0  0.276533  0  0.924474  0  0  0.267076  0  0.984687  0  0  0.272628  0  0.981002  0  0.432783  0  0.270575  0.262863  0  0.987756  0
H  H17  1  0.80530420  0.80254176  0.15057030  1  0  0.276472  0  0.924611  0  0  0.267021  0  0.984796  0  0  0.272571  0  0.981115  0  0.432754  0  0.270555  0.262809  0  0.987863  0
H  H18  1  0.69469058  0.30254070  0.84942930  1  0  0.276513  0  0.924549  0  0  0.267045  0  0.984778  0  0  0.272598  0  0.98109  0  0.432758  0  0.270545  0.262831  0  0.987846  0
H  H19  1  0.19468744  0.69745676  0.65057272  1  0  0.276576  0  0.92441  0  0  0.267067  0  0.984685  0  0  0.272622  0  0.980988  0  0.432797  0  0.27055  0.262846  0  0.987762  0
H  H20  1  0.69468408  0.80254953  0.65056909  1  0  0.27652  0  0.924514  0  0  0.267068  0  0.984737  0  0  0.272621  0  0.981049  0  0.43285  0  0.270551  0.262855  0  0.987805  0
H  H21  1  0.19469070  0.19745881  0.84942970  1  0  0.2765  0  0.924555  0  0  0.267032  0  0.984774  0  0  0.272585  0  0.981086  0  0.432761  0  0.27057  0.262819  0  0.987841  0
H  H22  1  0.30531244  0.69745987  0.15056950  1  0  0.276507  0  0.924514  0  0  0.267043  0  0.984734  0  0  0.272597  0  0.981043  0  0.432782  0  0.270531  0.26283  0  0.987803  0
H  H23  1  0.80531070  0.30255003  0.34943171  1  0  0.276503  0  0.924605  0  0  0.267077  0  0.98476  0  0  0.272628  0  0.981078  0  0.432835  0  0.270613  0.262864  0  0.987828  0
H  H24  1  0.24635863  0.77173597  0.39247050  1  0  0.064579  0  0.954453  0  0  0.082122  0  1.020834  0  0  0.082031  0  1.021771  0  0.08722  0  0.095021  0.08207  0  1.020301  0
H  H25  1  0.74636340  0.22826460  0.10752789  1  0  0.064558  0  0.954457  0  0  0.082108  0  1.020832  0  0  0.082019  0  1.021769  0  0.08725  0  0.095019  0.082025  0  1.020328  0
H  H26  1  0.75365578  0.72826100  0.89247090  1  0  0.064547  0  0.954566  0  0  0.082101  0  1.020928  0  0  0.082014  0  1.021868  0  0.087253  0  0.095017  0.082039  0  1.0204  0
H  H27  1  0.25363312  0.27174268  0.60752870  1  0  0.064511  0  0.954494  0  0  0.082031  0  1.020917  0  0  0.081943  0  1.021853  0  0.087262  0  0.094983  0.081961  0  1.020401  0
H  H28  1  0.75362488  0.22826927  0.60752507  1  0  0.064527  0  0.95442  0  0  0.08204  0  1.020853  0  0  0.081952  0  1.021788  0  0.087238  0  0.094956  0.081998  0  1.02031  0
H  H29  1  0.25362987  0.77173441  0.89247251  1  0  0.064556  0  0.954393  0  0  0.082071  0  1.020818  0  0  0.081981  0  1.021752  0  0.087243  0  0.094969  0.08202  0  1.020285  0
H  H30  1  0.24636514  0.27173335  0.10752749  1  0  0.064513  0  0.954408  0  0  0.082049  0  1.020827  0  0  0.081962  0  1.021763  0  0.087245  0  0.094974  0.081991  0  1.020301  0
H  H31  1  0.74636827  0.72826411  0.39247614  1  0  0.06453  0  0.954465  0  0  0.082054  0  1.020875  0  0  0.081968  0  1.021812  0  0.087277  0  0.094961  0.081997  0  1.020345  0
H  H32  1  0.08139529  0.98712140  0.40707882  1  0  0.067513  0  0.923962  0  0  0.086645  0  0.986673  0  0  0.086642  0  0.987367  0  0.060198  0  0.101928  0.086528  0  0.986345  0
H  H33  1  0.58139030  0.01287917  0.09292038  1  0  0.067478  0  0.923947  0  0  0.086615  0  0.986663  0  0  0.086614  0  0.987356  0  0.060161  0  0.101934  0.086482  0  0.986356  0
H  H34  1  0.91861261  0.51286623  0.90707842  1  0  0.067554  0  0.923944  0  0  0.086673  0  0.986694  0  0  0.086684  0  0.987378  0  0.060134  0  0.101939  0.086527  0  0.986394  0
H  H35  1  0.41859971  0.48712345  0.59292158  1  0  0.067465  0  0.923964  0  0  0.086592  0  0.986685  0  0  0.086591  0  0.987379  0  0.060243  0  0.101943  0.08646  0  0.986371  0
H  H36  1  0.91859960  0.01288072  0.59291796  1  0  0.067522  0  0.923945  0  0  0.086664  0  0.986645  0  0  0.086663  0  0.987338  0  0.060254  0  0.101976  0.086528  0  0.986346  0
H  H37  1  0.41860459  0.98711984  0.90708083  1  0  0.067482  0  0.923949  0  0  0.08661  0  0.986673  0  0  0.086607  0  0.987365  0  0.060242  0  0.101951  0.086483  0  0.986363  0
H  H38  1  0.08140505  0.48713278  0.09291474  1  0  0.06745  0  0.923961  0  0  0.086586  0  0.986704  0  0  0.086585  0  0.987397  0  0.060611  0  0.101895  0.086448  0  0.986406  0
H  H39  1  0.58139193  0.51288023  0.40708285  1  0  0.067513  0  0.923876  0  0  0.086637  0  0.986626  0  0  0.086636  0  0.987321  0  0.060181  0  0.101957  0.08649  0  0.986337  0
H  H40  1  0.12433806  0.86317651  0.50172178  1  0  0.085167  0  0.995892  0  0  0.095796  0  1.060264  0  0  0.097392  0  1.061653  0  0.07312  0  0.095321  0.094474  0  1.059679  0
H  H41  1  0.62434608  0.13681006  0.99827943  1  0  0.085104  0  0.995945  0  0  0.095716  0  1.060374  0  0  0.097308  0  1.061759  0  0.073136  0  0.095261  0.094396  0  1.059792  0
H  H42  1  0.87566334  0.63682201  0.00172057  1  0  0.085139  0  0.995902  0  0  0.095767  0  1.060291  0  0  0.097359  0  1.061677  0  0.072967  0  0.095293  0.094447  0  1.059706  0
H  H43  1  0.37564881  0.36318167  0.49828064  1  0  0.085133  0  0.996003  0  0  0.095822  0  1.060307  0  0  0.097415  0  1.061691  0  0.073122  0  0.095308  0.0945  0  1.059725  0
H  H44  1  0.87565358  0.13680695  0.49827782  1  0  0.085033  0  0.995835  0  0  0.095662  0  1.060244  0  0  0.097254  0  1.06163  0  0.073115  0  0.095238  0.094346  0  1.059666  0
H  H45  1  0.37566670  0.86318584  0.00172258  1  0  0.085083  0  0.995729  0  0  0.095708  0  1.060118  0  0  0.0973  0  1.061503  0  0.073075  0  0.09528  0.094393  0  1.059538  0
H  H46  1  0.12435270  0.36319100  0.99827782  1  0  0.08504  0  0.995696  0  0  0.095626  0  1.060159  0  0  0.097218  0  1.061545  0  0.073086  0  0.095227  0.094311  0  1.059581  0
H  H47  1  0.62433307  0.63681734  0.50172339  1  0  0.085109  0  0.995767  0  0  0.095724  0  1.06017  0  0  0.097316  0  1.061558  0  0.073043  0  0.09528  0.094411  0  1.059591  0
H  H48  1  0.67443161  0.09458723  0.41327520  1  0  0.076997  0  0.988024  0  0  0.086158  0  1.058027  0  0  0.089515  0  1.055432  0  0.020529  0  0.090649  0.083647  0  1.060154  0
H  H49  1  0.17443661  0.90541645  0.08672439  1  0  0.077029  0  0.988224  0  0  0.086237  0  1.058155  0  0  0.089597  0  1.055554  0  0.020601  0  0.090623  0.083725  0  1.060282  0
H  H50  1  0.32557141  0.40542317  0.91327520  1  0  0.076983  0  0.988035  0  0  0.086135  0  1.058059  0  0  0.089494  0  1.055464  0  0.020757  0  0.090606  0.083625  0  1.060186  0
H  H51  1  0.82556317  0.59458985  0.58672721  1  0  0.076995  0  0.98804  0  0  0.086164  0  1.058027  0  0  0.089523  0  1.05543  0  0.020573  0  0.0906  0.083651  0  1.060156  0
H  H52  1  0.32556328  0.90540712  0.58672238  1  0  0.077062  0  0.988258  0  0  0.086274  0  1.058157  0  0  0.089634  0  1.055559  0  0.020004  0  0.090662  0.083762  0  1.060284  0
H  H53  1  0.82556479  0.09459189  0.91327883  1  0  0.077034  0  0.988117  0  0  0.086226  0  1.058087  0  0  0.089586  0  1.055482  0  0.02056  0  0.090666  0.083715  0  1.060214  0
H  H54  1  0.67444625  0.59457896  0.08672077  1  0  0.07707  0  0.988299  0  0  0.086255  0  1.058238  0  0  0.089615  0  1.055642  0  0.020021  0  0.090661  0.083744  0  1.060363  0
H  H55  1  0.17443010  0.40541072  0.41327963  1  0  0.077039  0  0.988254  0  0  0.086216  0  1.05825  0  0  0.089592  0  1.055609  0  0.020116  0  0.090669  0.083706  0  1.060376  0
C  C56  1  0.25139207  0.94062418  0.40028918  1  0  0.04066  0  3.664862  0  0  -0.022221  0  3.921117  0  0  -0.017758  0  3.93318  0  0.236687  0  -0.073179  -0.025069  0  3.912581  0
C  C57  1  0.75139033  0.05937172  0.09971082  1  0  0.040797  0  3.664921  0  0  -0.022096  0  3.921234  0  0  -0.017637  0  3.933302  0  0.236463  0  -0.073186  -0.024915  0  3.912699  0
C  C58  1  0.74862072  0.55937434  0.90028918  1  0  0.040726  0  3.664981  0  0  -0.022177  0  3.921272  0  0  -0.017733  0  3.933347  0  0.236618  0  -0.07316  -0.024996  0  3.912736  0
C  C59  1  0.24860457  0.44062623  0.59971203  1  0  0.040913  0  3.664908  0  0  -0.021989  0  3.92112  0  0  -0.017531  0  3.933188  0  0.23647  0  -0.073163  -0.024813  0  3.912586  0
C  C60  1  0.74859957  0.05937639  0.59970841  1  0  0.040774  0  3.664687  0  0  -0.022065  0  3.921078  0  0  -0.017605  0  3.933144  0  0.236539  0  -0.073131  -0.024912  0  3.912539  0
C  C61  1  0.24860294  0.94062729  0.90028998  1  0  0.040837  0  3.664594  0  0  -0.022029  0  3.920838  0  0  -0.017561  0  3.932887  0  0.236669  0  -0.073089  -0.024877  0  3.9123  0
C  C62  1  0.25140345  0.44062623  0.09970881  1  0  0.041022  0  3.664517  0  0  -0.021908  0  3.92089  0  0  -0.017452  0  3.932959  0  0.236138  0  -0.073071  -0.024743  0  3.912354  0
C  C63  1  0.75139195  0.55937279  0.40029119  1  0  0.040923  0  3.664891  0  0  -0.021959  0  3.921182  0  0  -0.017509  0  3.933268  0  0.236737  0  -0.073044  -0.024787  0  3.912645  0
C  C64  1  0.28975352  0.92374749  0.50070643  1  0  -0.119568  0  3.768216  0  0  -0.137721  0  4.01318  0  0  -0.140032  0  4.035493  0  -0.072639  0  -0.095661  -0.136071  0  3.998279  0
C  C65  1  0.78975503  0.07624530  0.99928954  1  0  -0.11936  0  3.768272  0  0  -0.137523  0  4.013303  0  0  -0.13983  0  4.035608  0  -0.072792  0  -0.095543  -0.135874  0  3.998401  0
C  C66  1  0.71025114  0.57624014  0.00070603  1  0  -0.119426  0  3.76829  0  0  -0.1376  0  4.01325  0  0  -0.139899  0  4.035554  0  -0.072747  0  -0.095633  -0.135951  0  3.998349  0
C  C67  1  0.21024962  0.42375265  0.49929196  1  0  -0.119479  0  3.768093  0  0  -0.137731  0  4.01303  0  0  -0.140039  0  4.035334  0  -0.072663  0  -0.095672  -0.13608  0  3.99813  0
C  C68  1  0.71023487  0.07624063  0.49928914  1  0  -0.119452  0  3.76813  0  0  -0.137578  0  4.013143  0  0  -0.139885  0  4.035449  0  -0.072808  0  -0.095532  -0.135937  0  3.998249  0
C  C69  1  0.21023173  0.92375682  0.00070643  1  0  -0.119442  0  3.768057  0  0  -0.137565  0  4.01299  0  0  -0.139872  0  4.0353  0  -0.072388  0  -0.095571  -0.135925  0  3.998094  0
C  C70  1  0.28977628  0.42375887  0.99928793  1  0  -0.119389  0  3.768214  0  0  -0.137472  0  4.013125  0  0  -0.13978  0  4.035432  0  -0.072144  0  -0.095517  -0.135831  0  3.99823  0
C  C71  1  0.78976479  0.57624792  0.50070845  1  0  -0.119461  0  3.768097  0  0  -0.137604  0  4.01304  0  0  -0.139913  0  4.03535  0  -0.072728  0  -0.095555  -0.135968  0  3.998148  0
C  C72  1  0.38249396  0.97669829  0.45103025  1  0  0.051665  0  3.741012  0  0  0.073906  0  3.976859  0  0  0.073251  0  4.000473  0  -0.021675  0  -0.017883  0.074329  0  3.960669  0
C  C73  1  0.88246620  0.02330072  0.04897136  1  0  0.051582  0  3.740786  0  0  0.073791  0  3.976748  0  0  0.073138  0  4.000361  0  -0.021107  0  -0.017896  0.074216  0  3.960544  0
C  C74  1  0.61751557  0.52329089  0.95103025  1  0  0.051548  0  3.741269  0  0  0.073833  0  3.977092  0  0  0.073181  0  4.000709  0  -0.021414  0  -0.017917  0.074258  0  3.960891  0
C  C75  1  0.11751406  0.47669723  0.54897257  1  0  0.051517  0  3.740995  0  0  0.073898  0  3.976684  0  0  0.073246  0  4.000294  0  -0.021501  0  -0.017907  0.074322  0  3.960484  0
C  C76  1  0.61751882  0.02329761  0.54897136  1  0  0.051729  0  3.740432  0  0  0.073847  0  3.976513  0  0  0.073197  0  4.000123  0  -0.021213  0  -0.017898  0.07427  0  3.960324  0
C  C77  1  0.11749617  0.97670918  0.95102944  1  0  0.051565  0  3.741119  0  0  0.073843  0  3.976919  0  0  0.073187  0  4.000528  0  -0.021774  0  -0.017917  0.074266  0  3.960731  0
C  C78  1  0.38248908  0.47670345  0.04897177  1  0  0.051459  0  3.74057  0  0  0.073708  0  3.976452  0  0  0.073059  0  4.000066  0  -0.021547  0  -0.017968  0.074131  0  3.960257  0
C  C79  1  0.88249222  0.52329867  0.45102783  1  0  0.051541  0  3.740787  0  0  0.073843  0  3.9766  0  0  0.073191  0  4.000215  0  -0.021309  0  -0.017921  0.074266  0  3.960405  0
C  C80  1  0.59528876  0.05341277  0.45117242  1  0  -0.118927  0  3.758588  0  0  -0.136906  0  4.005873  0  0  -0.13922  0  4.025816  0  -0.039403  0  -0.099605  -0.135164  0  3.992286  0
C  C81  1  0.09529213  0.94657379  0.04883040  1  0  -0.119198  0  3.758276  0  0  -0.137232  0  4.005606  0  0  -0.139557  0  4.025571  0  -0.039573  0  -0.099716  -0.135486  0  3.992018  0
C  C82  1  0.40472402  0.44658984  0.95117282  1  0  -0.118946  0  3.758902  0  0  -0.13696  0  4.006172  0  0  -0.139274  0  4.026111  0  -0.039919  0  -0.099562  -0.135219  0  3.992587  0
C  C83  1  0.90471740  0.55342472  0.54882919  1  0  -0.119091  0  3.758492  0  0  -0.13713  0  4.005761  0  0  -0.139449  0  4.025713  0  -0.039458  0  -0.099632  -0.135387  0  3.992176  0
C  C84  1  0.40469963  0.94656602  0.54883000  1  0  -0.119192  0  3.758212  0  0  -0.137172  0  4.005567  0  0  -0.139489  0  4.025507  0  -0.03886  0  -0.099663  -0.135429  0  3.991979  0
C  C85  1  0.90470114  0.05341744  0.95117322  1  0  -0.118965  0  3.758797  0  0  -0.137001  0  4.0061  0  0  -0.139318  0  4.026055  0  -0.039494  0  -0.099597  -0.135259  0  3.992512  0
C  C86  1  0.59531153  0.55342784  0.04882879  1  0  -0.119116  0  3.758308  0  0  -0.137104  0  4.005596  0  0  -0.13941  0  4.025506  0  -0.038838  0  -0.099608  -0.13536  0  3.99201  0
C  C87  1  0.09530189  0.44657429  0.45117242  1  0  -0.118969  0  3.75834  0  0  -0.13701  0  4.00566  0  0  -0.139319  0  4.025605  0  -0.038911  0  -0.099586  -0.135268  0  3.992075  0
S  S88  1  0.30483105  0.05745540  0.20405494  1  0  -0.880335  0  2.151645  0  0  -0.764652  0  2.602945  0  0  -0.792924  0  2.57436  0  -0.965531  0  -0.423867  -0.74409  0  2.622887  0
S  S89  1  0.80483094  0.94254517  0.29594587  1  0  -0.880308  0  2.151649  0  0  -0.764625  0  2.602939  0  0  -0.792898  0  2.574354  0  -0.965565  0  -0.423864  -0.744065  0  2.622883  0
S  S90  1  0.69516547  0.44254410  0.70405534  1  0  -0.880298  0  2.151641  0  0  -0.764608  0  2.602929  0  0  -0.792881  0  2.574346  0  -0.965529  0  -0.423871  -0.744051  0  2.622876  0
S  S91  1  0.19516558  0.55745646  0.79594627  1  0  -0.880319  0  2.151632  0  0  -0.764632  0  2.602931  0  0  -0.792906  0  2.574349  0  -0.965541  0  -0.423868  -0.744073  0  2.622877  0
S  S92  1  0.69516547  0.94254361  0.79594506  1  0  -0.880279  0  2.151597  0  0  -0.764601  0  2.602903  0  0  -0.792873  0  2.574318  0  -0.965521  0  -0.423876  -0.744039  0  2.622845  0
S  S93  1  0.19516558  0.05745540  0.70405534  1  0  -0.880279  0  2.151636  0  0  -0.764572  0  2.602909  0  0  -0.792847  0  2.574327  0  -0.965519  0  -0.42385  -0.74401  0  2.622843  0
S  S94  1  0.30483105  0.55745491  0.29594506  1  0  -0.880311  0  2.151649  0  0  -0.764625  0  2.602964  0  0  -0.792901  0  2.57438  0  -0.965545  0  -0.423851  -0.744063  0  2.622906  0
S  S95  1  0.80483257  0.44254410  0.20405574  1  0  -0.880274  0  2.151565  0  0  -0.764595  0  2.602871  0  0  -0.792866  0  2.574285  0  -0.965487  0  -0.423867  -0.744032  0  2.622806  0
N  N96  1  0.32580723  0.03882883  0.35013734  1  0  -0.59451  0  3.160296  0  0  -0.531422  0  3.399677  0  0  -0.549992  0  3.399897  0  -1.175604  0  -0.629643  -0.518439  0  3.399693  0
N  N97  1  0.82580386  0.96116707  0.14986508  1  0  -0.594513  0  3.160315  0  0  -0.531391  0  3.399668  0  0  -0.549957  0  3.399885  0  -1.175534  0  -0.629608  -0.518403  0  3.399669  0
N  N98  1  0.67419580  0.46116601  0.85013694  1  0  -0.594542  0  3.160355  0  0  -0.531426  0  3.399754  0  0  -0.549993  0  3.399979  0  -1.175627  0  -0.629626  -0.518438  0  3.399754  0
N  N99  1  0.17418941  0.53882989  0.64986467  1  0  -0.594528  0  3.160301  0  0  -0.53137  0  3.399613  0  0  -0.549937  0  3.399828  0  -1.175542  0  -0.629553  -0.518377  0  3.399627  0
N  N100  1  0.67418929  0.96117174  0.64986266  1  0  -0.594448  0  3.160177  0  0  -0.53141  0  3.399624  0  0  -0.549978  0  3.39984  0  -1.175621  0  -0.629652  -0.518426  0  3.399638  0
N  N101  1  0.17418941  0.03883505  0.85013855  1  0  -0.594539  0  3.160369  0  0  -0.531422  0  3.399729  0  0  -0.549993  0  3.399946  0  -1.175633  0  -0.629717  -0.518437  0  3.399743  0
N  N102  1  0.32581048  0.53883144  0.14986387  1  0  -0.594552  0  3.160158  0  0  -0.531421  0  3.399546  0  0  -0.549989  0  3.399762  0  -1.175733  0  -0.629559  -0.518435  0  3.399555  0
N  N103  1  0.82580711  0.46117068  0.35014056  1  0  -0.594593  0  3.160475  0  0  -0.531546  0  3.399943  0  0  -0.55011  0  3.400165  0  -1.175868  0  -0.629825  -0.518557  0  3.399948  0
