# generated using pymatgen
data_Mn3P2H16C19(NO4)3
_symmetry_space_group_name_H-M   'P 1'
_cell_length_a   8.68434259
_cell_length_b   10.21916175
_cell_length_c   13.92002109
_cell_angle_alpha   105.98484245
_cell_angle_beta   97.71079124
_cell_angle_gamma   100.83815266
_symmetry_Int_Tables_number   1
_chemical_formula_structural   Mn3P2H16C19(NO4)3
_chemical_formula_sum   'Mn6 P4 H32 C38 N6 O24'
_cell_volume   1143.56142623
_cell_formula_units_Z   2
loop_
 _symmetry_equiv_pos_site_id
 _symmetry_equiv_pos_as_xyz
  1  'x, y, z'
loop_
 _atom_site_type_symbol
 _atom_site_label
 _atom_site_symmetry_multiplicity
 _atom_site_fract_x
 _atom_site_fract_y
 _atom_site_fract_z
 _atom_site_occupancy
 _atom_site_pbe_bader_charge
 _atom_site_pbe_bader_spin_density
 _atom_site_pbe_cm5_charge
 _atom_site_pbe_ddec_charge
 _atom_site_pbe_ddec_spin_density
 _atom_site_pbe_ddec_sum_bond_order
 _atom_site_pbe_magmom
Mn  Mn0  1  0.50444349  0.25081425  0.48978316  1  1.536183  4.554506  0.622979  1.111248  4.663857  2.223647  4.484
Mn  Mn1  1  0.49555865  0.74917952  0.51021586  1  1.536153  4.55449  0.622967  1.111269  4.663845  2.223681  4.484
Mn  Mn2  1  0.09994377  0.21817276  0.60393306  1  1.499243  4.585542  0.624349  1.009116  4.692119  2.200884  4.495
Mn  Mn3  1  0.90005925  0.78181998  0.39606366  1  1.499279  4.585549  0.624328  1.009036  4.692128  2.20091  4.495
Mn  Mn4  1  0.89929896  0.27617411  0.39673375  1  1.501253  4.587187  0.625296  1.006748  4.697834  2.208831  4.501
Mn  Mn5  1  0.10070575  0.72382489  0.60326799  1  1.501357  4.587162  0.62531  1.006786  4.697829  2.208762  4.501
P  P6  1  0.73914294  0.54211171  0.48826183  1  3.247893  0.02047  0.355436  1.238455  0.034733  5.360779  0.021
P  P7  1  0.26086092  0.45788412  0.51174135  1  3.247993  0.020469  0.355457  1.238507  0.03473  5.360754  0.021
P  P8  1  0.73648345  0.03645316  0.48652836  1  3.280959  0.019362  0.350822  1.232633  0.033647  5.376516  0.019
P  P9  1  0.26352162  0.96353855  0.51346616  1  3.280967  0.019362  0.350865  1.232684  0.033647  5.376545  0.019
H  H10  1  0.92792208  0.49053995  0.66764237  1  0.664383  0.001434  0.302  0.353485  0.000314  0.986053  0.002
H  H11  1  0.07207714  0.50945591  0.33235755  1  0.664396  0.001434  0.302019  0.353552  0.000314  0.985951  0.002
H  H12  1  0.91772705  0.98916164  0.66810790  1  0.6525  0.001461  0.302068  0.351641  0.000405  0.988545  0.002
H  H13  1  0.08228062  0.01083111  0.33188778  1  0.651862  0.001464  0.302051  0.35157  0.000405  0.988645  0.002
H  H14  1  0.68438642  0.54622758  0.65820248  1  0.142716  0.001241  0.125583  0.136559  -0.000149  0.996331  0.001
H  H15  1  0.31561480  0.45377140  0.34180113  1  0.142511  0.001241  0.125565  0.136526  -0.00015  0.996299  0.001
H  H16  1  0.67526816  0.05270198  0.65635204  1  0.137596  0.001285  0.12525  0.132621  -1.5e-05  1.003363  0.001
H  H17  1  0.32473926  0.94728553  0.34364253  1  0.137779  0.001285  0.125359  0.132749  -1.5e-05  1.003331  0.001
H  H18  1  0.45709776  0.29856282  0.70227033  1  0.184138  0.001065  0.123483  0.104173  0.000153  1.070366  0.001
H  H19  1  0.54290192  0.70145199  0.29772349  1  0.18459  0.001064  0.123464  0.104136  0.000153  1.070419  0.001
H  H20  1  0.63945039  0.42841535  0.86544099  1  0.104385  0.000632  0.110799  0.12231  0.000246  1.010745  0.0
H  H21  1  0.36054927  0.57160367  0.13455226  1  0.104097  0.000632  0.110791  0.122387  0.000246  1.010758  0.0
H  H22  1  0.22049830  0.46122575  0.00043805  1  0.106443  0.000514  0.103207  0.102764  0.000286  1.06812  0.0
H  H23  1  0.77950121  0.53877118  0.99955924  1  0.106406  0.000514  0.103179  0.102724  0.000286  1.068135  0.0
H  H24  1  0.05663417  0.32466023  0.83092919  1  0.109239  0.000862  0.116283  0.087494  8.3e-05  1.036901  0.0
H  H25  1  0.94336358  0.67533880  0.16906839  1  0.109236  0.000862  0.116283  0.087506  8.4e-05  1.036918  0.0
H  H26  1  0.63605125  0.33841518  0.25100022  1  0.077096  0.00188  0.126373  0.097368  0.000666  0.980829  0.001
H  H27  1  0.36394989  0.66159638  0.74900454  1  0.077282  0.001879  0.126309  0.097337  0.000666  0.980737  0.001
H  H28  1  0.47522775  0.23266497  0.07688519  1  0.065557  0.000663  0.107296  0.112888  0.000369  1.013705  0.0
H  H29  1  0.52476876  0.76734237  0.92312191  1  0.065591  0.000663  0.107304  0.112882  0.000369  1.013813  0.0
H  H30  1  0.64758104  0.85800871  0.06577147  1  0.107264  0.000581  0.104985  0.107185  0.000266  1.033965  0.0
H  H31  1  0.35241548  0.14199867  0.93423132  1  0.107479  0.000581  0.10495  0.107097  0.000266  1.034178  0.0
H  H32  1  0.80493652  0.98220081  0.23825925  1  0.102056  0.001992  0.126054  0.096938  0.001122  0.996156  0.001
H  H33  1  0.19506987  0.01780870  0.76174049  1  0.102145  0.001992  0.126066  0.096994  0.001122  0.996182  0.001
H  H34  1  0.98016012  0.40154413  0.12052915  1  0.083104  0.000184  0.109667  0.080815  -0.000137  0.995721  0.0
H  H35  1  0.01982367  0.59845483  0.87947587  1  0.084612  0.000184  0.109658  0.080757  -0.000137  0.995695  0.0
H  H36  1  0.08512415  0.20449274  0.14585735  1  0.102705  0.000363  0.105093  0.116545  -4.4e-05  1.035771  0.0
H  H37  1  0.91487413  0.79551253  0.85414588  1  0.102708  0.000363  0.105101  0.116632  -4.4e-05  1.035734  0.0
H  H38  1  0.82692705  0.95975865  0.84067607  1  0.119407  0.000613  0.104878  0.115058  0.000139  1.043588  0.0
H  H39  1  0.17307270  0.04024346  0.15932878  1  0.119348  0.000613  0.104857  0.115027  0.000139  1.043593  0.0
H  H40  1  0.73000738  0.16629238  0.83030696  1  0.071035  0.000346  0.110087  0.080438  6.4e-05  0.996333  0.0
H  H41  1  0.26998687  0.83370660  0.16969678  1  0.071024  0.000346  0.110077  0.080469  6.4e-05  0.996268  0.0
C  C42  1  0.77761550  0.60553932  0.63027176  1  0.031592  0.007683  -0.015913  -0.226088  0.00486  3.937573  0.003
C  C43  1  0.22238661  0.39445863  0.36972955  1  0.031846  0.007683  -0.015878  -0.225905  0.00486  3.937244  0.003
C  C44  1  0.77897585  0.75971239  0.65938577  1  1.570061  0.028028  0.217358  0.580963  0.027234  4.189692  0.023
C  C45  1  0.22102974  0.24028557  0.34061440  1  1.570077  0.028023  0.217361  0.580893  0.02723  4.189929  0.023
C  C46  1  0.77233560  0.10677854  0.62797493  1  0.007596  0.007338  -0.016035  -0.230775  0.004667  3.957655  0.003
C  C47  1  0.22767151  0.89321212  0.37202027  1  0.00763  0.007336  -0.016077  -0.230912  0.004668  3.957658  0.003
C  C48  1  0.78002733  0.26181075  0.65282792  1  1.570825  0.026118  0.22082  0.584485  0.025347  4.186195  0.021
C  C49  1  0.21996555  0.73817885  0.34716730  1  1.570084  0.026134  0.220808  0.584622  0.025352  4.18612  0.021
C  C50  1  0.40903034  0.33591001  0.77007939  1  0.479248  0.01095  0.050135  0.094387  0.008567  3.931123  0.007
C  C51  1  0.59096877  0.66410265  0.22991968  1  0.47883  0.010949  0.050141  0.094518  0.008566  3.930946  0.007
C  C52  1  0.51115464  0.41024927  0.86286838  1  -0.054728  0.001197  -0.081623  -0.167497  0.00033  3.917559  0.0
C  C53  1  0.48884538  0.58975818  0.13712682  1  -0.054349  0.001198  -0.08168  -0.167744  0.000331  3.917794  0.0
C  C54  1  0.44791663  0.45889716  0.95009234  1  -0.034695  0.0095  0.007879  0.093088  0.007319  3.982874  0.005
C  C55  1  0.55208285  0.54110397  0.04990510  1  -0.071792  0.00955  0.007916  0.093116  0.007317  3.983104  0.005
C  C56  1  0.28029654  0.42547039  0.93777485  1  0.057248  0.000514  -0.084053  -0.177257  -1.2e-05  3.954244  0.0
C  C57  1  0.71970149  0.57452970  0.06222154  1  0.057247  0.000515  -0.084029  -0.177195  -1.1e-05  3.954299  0.0
C  C58  1  0.18636981  0.35038812  0.84248988  1  0.408659  0.010521  0.048856  0.101913  0.007803  3.933224  0.007
C  C59  1  0.81363171  0.64961195  0.15750823  1  0.408644  0.01052  0.048855  0.101884  0.007802  3.93327  0.007
C  C60  1  0.63717006  0.23266786  0.20627949  1  0.526562  0.009524  0.063207  0.114662  0.007446  3.925059  0.006
C  C61  1  0.36283022  0.76734053  0.79372742  1  0.526608  0.009524  0.063319  0.114842  0.007446  3.924967  0.006
C  C62  1  0.54576768  0.17138117  0.10841290  1  -0.003907  0.000854  -0.075357  -0.159276  0.000142  3.917817  0.0
C  C63  1  0.45422651  0.82862619  0.89159185  1  -0.003877  0.000853  -0.075415  -0.159443  0.000141  3.917999  0.0
C  C64  1  0.54656372  0.03416772  0.05266098  1  -0.006771  0.007287  0.015041  0.10115  0.005613  3.965296  0.004
C  C65  1  0.45342959  0.96584067  0.94734606  1  -0.042645  0.007317  0.015014  0.101124  0.005614  3.965313  0.004
C  C66  1  0.64051568  0.96497431  0.10222258  1  0.028768  0.000685  -0.078686  -0.167747  2.7e-05  3.934935  0.0
C  C67  1  0.35948052  0.03503619  0.89778370  1  0.02833  0.000685  -0.078658  -0.167577  2.6e-05  3.935122  0.0
C  C68  1  0.72966319  0.03399061  0.19978175  1  0.45597  0.009511  0.060138  0.113306  0.007276  3.921938  0.006
C  C69  1  0.27033710  0.96601782  0.80022085  1  0.455923  0.009513  0.060133  0.113189  0.007278  3.921964  0.006
C  C70  1  0.94939171  0.30197748  0.05903754  1  0.456986  0.000342  0.037814  0.090837  0.000128  4.000348  0.0
C  C71  1  0.05059526  0.69802463  0.94096696  1  0.456015  0.000342  0.037815  0.090978  0.000128  4.000329  0.0
C  C72  1  0.01001179  0.19013102  0.07290578  1  -0.019644  0.000212  -0.08841  -0.178724  -6.3e-05  3.932897  0.0
C  C73  1  0.98998332  0.80987111  0.92709725  1  -0.019873  0.000212  -0.088447  -0.178958  -6.3e-05  3.932906  0.0
C  C74  1  0.96941017  0.06123272  0.99451737  1  0.00795  0.000248  0.004758  0.091942  0.000186  3.977945  0.0
C  C75  1  0.03059042  0.93877254  0.00548820  1  -0.026723  0.00025  0.004798  0.092024  0.000186  3.977916  0.0
C  C76  1  0.86600149  0.05444655  0.90563885  1  -0.086589  0.000457  -0.086707  -0.168475  0.000163  3.921227  0.0
C  C77  1  0.13399421  0.94555347  0.09436523  1  -0.086514  0.000457  -0.086724  -0.168511  0.000163  3.921313  0.0
C  C78  1  0.81128891  0.17206098  0.89919894  1  0.511684  0.000371  0.037137  0.090408  0.00014  4.002828  0.0
C  C79  1  0.18870301  0.82793799  0.10080532  1  0.511809  0.000371  0.037086  0.090334  0.00014  4.002723  0.0
N  N80  1  0.24860331  0.30687718  0.75881698  1  -1.290379  0.054237  -0.322552  -0.26438  0.034994  3.506585  0.014
N  N81  1  0.75139558  0.69312607  0.24117798  1  -1.290254  0.054231  -0.322533  -0.264365  0.034993  3.506525  0.014
N  N82  1  0.73033889  0.16655428  0.25139808  1  -1.267075  0.052922  -0.312633  -0.2454  0.033851  3.501037  0.014
N  N83  1  0.26966052  0.83345520  0.74860467  1  -1.267137  0.052927  -0.312633  -0.245439  0.033849  3.50096  0.014
N  N84  1  0.85168364  0.29556882  0.97342785  1  -1.219859  0.000116  -0.326455  -0.284359  3.4e-05  3.336372  0.0
N  N85  1  0.14830191  0.70442805  0.02657617  1  -1.220545  0.000116  -0.326363  -0.284297  3.4e-05  3.336275  0.0
O  O86  1  0.59178098  0.58158268  0.44313863  1  -1.469358  0.076163  -0.355408  -0.744936  0.052794  2.324743  0.034
O  O87  1  0.40822200  0.41841423  0.55686182  1  -1.469346  0.076156  -0.355397  -0.74493  0.052793  2.324779  0.034
O  O88  1  0.89591483  0.62143042  0.46715821  1  -1.470204  0.120914  -0.355552  -0.750006  0.087614  2.377037  0.055
O  O89  1  0.10408904  0.37856542  0.53284425  1  -1.470277  0.120906  -0.355541  -0.75008  0.087623  2.377139  0.055
O  O90  1  0.72568211  0.38206156  0.45498686  1  -1.472857  0.125162  -0.345131  -0.742172  0.091604  2.354346  0.055
O  O91  1  0.27432203  0.61793532  0.54501656  1  -1.472781  0.125169  -0.345194  -0.742252  0.09161  2.354294  0.055
O  O92  1  0.93423044  0.59121112  0.66627181  1  -1.178477  0.056166  -0.37608  -0.471364  0.03996  2.466244  0.027
O  O93  1  0.06577110  0.40878472  0.33372974  1  -1.178458  0.056166  -0.376123  -0.471472  0.039962  2.466125  0.027
O  O94  1  0.64744879  0.79684271  0.65512145  1  -1.20687  0.059917  -0.313836  -0.558926  0.039922  2.278368  0.021
O  O95  1  0.35255505  0.20315736  0.34487829  1  -1.206987  0.059918  -0.313807  -0.55887  0.039921  2.278604  0.021
O  O96  1  0.91701390  0.84378968  0.68095653  1  -1.191917  0.055743  -0.287471  -0.532559  0.039769  2.326408  0.034
O  O97  1  0.08298821  0.15620829  0.31904263  1  -1.191856  0.055741  -0.287484  -0.532513  0.039768  2.326388  0.034
O  O98  1  0.59132393  0.07462606  0.43690178  1  -1.466702  0.080809  -0.356283  -0.74083  0.05569  2.322358  0.036
O  O99  1  0.40868403  0.92536775  0.56309271  1  -1.466687  0.080799  -0.356322  -0.740853  0.055691  2.322264  0.036
O  O100  1  0.72334704  0.87720414  0.45924071  1  -1.467191  0.11616  -0.343459  -0.735105  0.084783  2.326078  0.052
O  O101  1  0.27665687  0.12278757  0.54075371  1  -1.467131  0.116165  -0.343542  -0.735203  0.084785  2.326186  0.052
O  O102  1  0.89543225  0.11349716  0.46577376  1  -1.469756  0.122806  -0.355566  -0.753268  0.089809  2.368793  0.057
O  O103  1  0.10457370  0.88649350  0.53422134  1  -1.469814  0.12281  -0.355522  -0.753272  0.089813  2.368936  0.057
O  O104  1  0.92586794  0.08975053  0.66657668  1  -1.172548  0.054802  -0.3758  -0.478858  0.03957  2.505784  0.028
O  O105  1  0.07413973  0.91024223  0.33341828  1  -1.171921  0.054797  -0.37585  -0.478838  0.039568  2.50582  0.028
O  O106  1  0.65143133  0.30116364  0.63866883  1  -1.217847  0.0559  -0.305518  -0.554399  0.037843  2.361862  0.021
O  O107  1  0.34857146  0.69881963  0.36133023  1  -1.217265  0.055893  -0.305478  -0.554516  0.037846  2.361805  0.021
O  O108  1  0.91966307  0.34372729  0.67980334  1  -1.187224  0.05464  -0.286567  -0.521098  0.038621  2.308357  0.033
O  O109  1  0.08033907  0.65626650  0.32019353  1  -1.187332  0.054646  -0.286544  -0.521124  0.038622  2.308505  0.033
