# generated using pymatgen
data_Zn2H8C23S5(NO5)2
_symmetry_space_group_name_H-M   'P 1'
_cell_length_a   11.41018178
_cell_length_b   12.69416193
_cell_length_c   23.76898047
_cell_angle_alpha   90.04300574
_cell_angle_beta   89.77132305
_cell_angle_gamma   90.32849424
_symmetry_Int_Tables_number   1
_chemical_formula_structural   Zn2H8C23S5(NO5)2
_chemical_formula_sum   'Zn4 H16 C46 S10 N4 O20'
_cell_volume   3442.67827767
_cell_formula_units_Z   2
loop_
 _symmetry_equiv_pos_site_id
 _symmetry_equiv_pos_as_xyz
  1  'x, y, z'
loop_
 _atom_site_type_symbol
 _atom_site_label
 _atom_site_symmetry_multiplicity
 _atom_site_fract_x
 _atom_site_fract_y
 _atom_site_fract_z
 _atom_site_occupancy
 _atom_site_pbe_bader_charge
 _atom_site_pbe_bader_spin_density
 _atom_site_pbe_cm5_charge
 _atom_site_pbe_ddec_charge
 _atom_site_pbe_ddec_spin_density
 _atom_site_pbe_ddec_sum_bond_order
 _atom_site_pbe_magmom
Zn  Zn0  1  0.61913771  0.50509836  0.49933418  1  1.280786  0  0.664387  0.834579  0  2.423205  0
Zn  Zn1  1  0.37601538  0.50373634  0.49604841  1  1.308628  0  0.668449  0.837131  0  2.435882  0
Zn  Zn2  1  0.38093025  0.50269725  0.96459664  1  1.279916  0  0.667554  0.83755  0  2.43582  0
Zn  Zn3  1  0.62379752  0.50447718  0.96063176  1  1.302739  0  0.664246  0.834587  0  2.421802  0
H  H4  1  0.82581630  0.44276052  0.42287277  1  0.141174  0  0.14229  0.138687  0  0.958766  0
H  H5  1  0.16760439  0.56699514  0.57742986  1  0.192016  0  0.140207  0.146341  0  0.998513  0
H  H6  1  0.68241659  0.14870383  0.50619223  1  0.114335  0  0.114109  0.139607  0  0.979472  0
H  H7  1  0.31188161  0.85952616  0.49916282  1  0.129774  0  0.117922  0.145613  0  0.971505  0
H  H8  1  0.62678115  0.35634211  0.83616388  1  0.102787  0  0.100975  0.116434  0  1.025681  0
H  H9  1  0.74388067  0.22553729  0.78452454  1  0.068688  0  0.103696  0.098573  0  0.99094  0
H  H10  1  0.63005851  0.35300428  0.62613233  1  0.062021  0  0.102675  0.116087  0  1.020726  0
H  H11  1  0.74635110  0.22429557  0.67943037  1  0.057819  0  0.10467  0.101177  0  0.986574  0
H  H12  1  0.32924513  0.52642117  0.30753700  1  0.113774  0  0.113702  0.138465  0  0.984682  0
H  H13  1  0.68731146  0.45116407  0.15202162  1  0.118448  0  0.112071  0.135426  0  0.986849  0
H  H14  1  0.16766342  0.41799063  0.03448503  1  0.179594  0  0.146012  0.139014  0  0.94544  0
H  H15  1  0.83820110  0.58739488  0.88775910  1  0.181649  0  0.149093  0.142787  0  0.937907  0
H  H16  1  0.32336209  0.14445264  0.96005413  1  0.080632  0  0.115841  0.141453  0  0.976773  0
H  H17  1  0.69645631  0.86161956  0.96099741  1  0.10131  0  0.113974  0.139979  0  0.980817  0
H  H18  1  0.45343189  0.72629672  0.64768826  1  0.604689  0  0.340696  0.375464  0  0.862701  0
H  H19  1  0.48331499  0.71086610  0.82109713  1  0.586238  0  0.333981  0.370916  0  0.875652  0
C  C20  1  0.49662310  0.70843183  0.49736345  1  1.537037  0  0.203232  0.595153  0  4.225786  0
C  C21  1  0.49154452  0.50646456  0.60782864  1  1.561984  0  0.211948  0.585123  0  4.210717  0
C  C22  1  0.49666785  0.29977753  0.50206432  1  1.583038  0  0.204644  0.598677  0  4.216715  0
C  C23  1  0.50885948  0.49494216  0.38804439  1  1.574592  0  0.207194  0.604882  0  4.210624  0
C  C24  1  0.51113479  0.70778190  0.96600852  1  1.51675  0  0.203654  0.596777  0  4.218546  0
C  C25  1  0.49308916  0.51345791  0.85248866  1  1.58388  0  0.210166  0.581796  0  4.219907  0
C  C26  1  0.50557904  0.29897085  0.95527764  1  1.604921  0  0.20571  0.600505  0  4.214596  0
C  C27  1  0.50271665  0.48840657  0.07200905  1  1.524049  0  0.206985  0.604247  0  4.208003  0
C  C28  1  0.86748348  0.47223683  0.46098120  1  0.605043  0  0.064102  0.074698  0  3.885255  0
C  C29  1  0.12781962  0.53653434  0.53886575  1  0.597059  0  0.072265  0.092035  0  3.827229  0
C  C30  1  0.00691486  0.52552843  0.52688294  1  -0.221197  0  -0.0058  -0.074436  0  4.05136  0
C  C31  1  0.98822656  0.48265892  0.47279324  1  -0.185617  0  -0.011109  -0.081101  0  4.090292  0
C  C32  1  0.59322416  0.11829442  0.50454610  1  0.001255  0  -0.097644  -0.147916  0  3.990888  0
C  C33  1  0.40108975  0.88996986  0.49996752  1  0.046888  0  -0.092762  -0.139101  0  3.976834  0
C  C34  1  0.49682646  0.18374791  0.50297982  1  -0.164038  0  -0.026055  -0.108402  0  3.981944  0
C  C35  1  0.49745930  0.82444196  0.49962834  1  -0.141417  0  -0.027644  -0.109745  0  3.98136  0
C  C36  1  0.43577613  0.99687222  0.50118934  1  -0.193383  0  -0.026282  -0.011031  0  4.072791  0
C  C37  1  0.55869786  0.01132806  0.50293271  1  -0.1438  0  -0.027106  -0.010968  0  4.07642  0
C  C38  1  0.48990625  0.50868270  0.78922888  1  -0.014519  0  -0.006086  -0.083601  0  3.927635  0
C  C39  1  0.56024970  0.43261315  0.76081023  1  0.062564  0  0.000274  0.065695  0  3.955013  0
C  C40  1  0.41477543  0.57423534  0.75968844  1  -0.038236  0  -0.014916  -0.104131  0  3.997444  0
C  C41  1  0.62770273  0.35686273  0.79033143  1  0.016748  0  -0.089192  -0.125978  0  3.951629  0
C  C42  1  0.69332368  0.28373733  0.76134190  1  -0.069871  0  -0.088569  -0.076278  0  4.032096  0
C  C43  1  0.48716449  0.50292355  0.67104829  1  0.056504  0  -0.004283  -0.079575  0  3.920644  0
C  C44  1  0.41074320  0.56890307  0.69981988  1  -0.022889  0  -0.01238  -0.102324  0  3.983419  0
C  C45  1  0.56067087  0.43118716  0.70050294  1  -0.102794  0  0.001575  0.068153  0  3.951117  0
C  C46  1  0.62985295  0.35499008  0.67195629  1  0.003513  0  -0.088205  -0.125977  0  3.954922  0
C  C47  1  0.69460841  0.28298148  0.70187338  1  -0.038499  0  -0.088151  -0.078635  0  4.033562  0
C  C48  1  0.41571462  0.50782307  0.29111278  1  -0.033175  0  -0.094918  -0.143347  0  3.988241  0
C  C49  1  0.60050682  0.46815933  0.16858726  1  0.024087  0  -0.095505  -0.144132  0  3.984173  0
C  C50  1  0.51027554  0.49084773  0.32604193  1  -0.104511  0  -0.024993  -0.104838  0  3.974449  0
C  C51  1  0.50562251  0.48628161  0.13395557  1  -0.10461  0  -0.02577  -0.107509  0  3.978942  0
C  C52  1  0.56808142  0.47540081  0.22589755  1  -0.177213  0  -0.025995  -0.007224  0  4.064775  0
C  C53  1  0.44826517  0.49908316  0.23400476  1  -0.151285  0  -0.025996  -0.008146  0  4.07808  0
C  C54  1  0.12956727  0.45935317  0.99890566  1  0.535979  0  0.063943  0.073531  0  3.895649  0
C  C55  1  0.87616802  0.54558861  0.92322786  1  0.544847  0  0.069964  0.083229  0  3.878047  0
C  C56  1  0.99613140  0.53194855  0.93601046  1  -0.168701  0  -0.007843  -0.086402  0  4.068749  0
C  C57  1  0.00995878  0.47240588  0.98574874  1  -0.174346  0  -0.010986  -0.081017  0  4.089006  0
C  C58  1  0.41282287  0.11561017  0.95861818  1  0.058923  0  -0.094127  -0.141391  0  3.984374  0
C  C59  1  0.60698519  0.89061333  0.96070818  1  0.028222  0  -0.098344  -0.151627  0  3.99211  0
C  C60  1  0.50825391  0.18293238  0.95568117  1  -0.168842  0  -0.026206  -0.109178  0  3.978391  0
C  C61  1  0.51085838  0.82375616  0.96334759  1  -0.097764  0  -0.026709  -0.10985  0  3.980793  0
C  C62  1  0.57158038  0.99692394  0.95805285  1  -0.210327  0  -0.026315  -0.007308  0  4.07111  0
C  C63  1  0.44848433  0.00932564  0.95953013  1  -0.162587  0  -0.025298  -0.011695  0  4.074218  0
C  C64  1  0.32437459  0.63378790  0.66669909  1  1.546882  0  0.23715  0.593906  0  4.102976  0
C  C65  1  0.33953050  0.65206355  0.79098973  1  1.481554  0  0.225678  0.578022  0  4.1207  0
S  S66  1  0.87436416  0.54843123  0.55853427  1  0.720857  0  0.279604  0.331787  0  2.768597  0
S  S67  1  0.12070855  0.45942391  0.44129984  1  0.688916  0  0.25877  0.297908  0  2.77975  0
S  S68  1  0.36407864  0.11600594  0.50005641  1  0.246461  0  0.069314  0.105949  0  2.743982  0
S  S69  1  0.63050432  0.89211405  0.50146915  1  0.235762  0  0.060639  0.092296  0  2.746238  0
S  S70  1  0.63930441  0.46416848  0.28957081  1  0.222527  0  0.060436  0.087722  0  2.737529  0
S  S71  1  0.37675591  0.51194446  0.17070935  1  0.243755  0  0.064535  0.097044  0  2.757306  0
S  S72  1  0.13107463  0.56567005  0.90955487  1  0.779791  0  0.298729  0.372379  0  2.81557  0
S  S73  1  0.87498636  0.43874687  0.01210356  1  0.700858  0  0.265637  0.310782  0  2.792763  0
S  S74  1  0.64196267  0.11750165  0.95395349  1  0.2288  0  0.061755  0.091476  0  2.740439  0
S  S75  1  0.37758405  0.88928611  0.96258450  1  0.266866  0  0.077542  0.120991  0  2.753051  0
N  N76  1  0.79957509  0.50451971  0.50298678  1  -1.142511  0  -0.310681  -0.250086  0  3.417169  0
N  N77  1  0.19551521  0.50423456  0.49674687  1  -1.169514  0  -0.307095  -0.242954  0  3.396577  0
N  N78  1  0.20066655  0.50521844  0.96187857  1  -1.16936  0  -0.309182  -0.251849  0  3.412981  0
N  N79  1  0.80478524  0.50021562  0.96027483  1  -1.176422  0  -0.308639  -0.245398  0  3.411345  0
O  O80  1  0.59562738  0.66336391  0.49045538  1  -1.159287  0  -0.328757  -0.553034  0  2.32241  0
O  O81  1  0.39749616  0.66281454  0.50266064  1  -1.157799  0  -0.319624  -0.537326  0  2.319375  0
O  O82  1  0.39561164  0.49071689  0.58232274  1  -1.153285  0  -0.304075  -0.523759  0  2.320916  0
O  O83  1  0.59081402  0.52635691  0.58562050  1  -1.164565  0  -0.318482  -0.55461  0  2.325516  0
O  O84  1  0.39916785  0.34388061  0.49114588  1  -1.158294  0  -0.324258  -0.549032  0  2.325482  0
O  O85  1  0.59375180  0.34667500  0.51213063  1  -1.164322  0  -0.323464  -0.548216  0  2.303009  0
O  O86  1  0.60617128  0.48086445  0.41344247  1  -1.167008  0  -0.324219  -0.554518  0  2.298645  0
O  O87  1  0.40988615  0.51272911  0.41113697  1  -1.161541  0  -0.321678  -0.546503  0  2.310338  0
O  O88  1  0.41184503  0.66170043  0.96170807  1  -1.155304  0  -0.322728  -0.550468  0  2.34198  0
O  O89  1  0.61022759  0.66296939  0.97198926  1  -1.149901  0  -0.32654  -0.542335  0  2.291013  0
O  O90  1  0.59173855  0.53309908  0.87512791  1  -1.167523  0  -0.318145  -0.555697  0  2.306814  0
O  O91  1  0.39653666  0.49690340  0.87770487  1  -1.143771  0  -0.308489  -0.530172  0  2.326384  0
O  O92  1  0.60264489  0.34673226  0.94513071  1  -1.170966  0  -0.327675  -0.561241  0  2.330391  0
O  O93  1  0.40741351  0.34240713  0.96533221  1  -1.158156  0  -0.319366  -0.537145  0  2.294457  0
O  O94  1  0.40226015  0.50370756  0.04985814  1  -1.157418  0  -0.324658  -0.548451  0  2.316214  0
O  O95  1  0.59923221  0.47581162  0.04559776  1  -1.168603  0  -0.323952  -0.553089  0  2.304811  0
O  O96  1  0.36895753  0.72172161  0.64131989  1  -1.087402  0  -0.33004  -0.464713  0  2.204079  0
O  O97  1  0.22138494  0.61138928  0.66143853  1  -1.110362  0  -0.269158  -0.439843  0  2.09268  0
O  O98  1  0.39901154  0.72392269  0.82311195  1  -1.074591  0  -0.336171  -0.472478  0  2.226232  0
O  O99  1  0.23337220  0.65528095  0.78848105  1  -1.060405  0  -0.279728  -0.448852  0  2.089162  0
