# generated using pymatgen
data_Zn2H41C67N7O12
_symmetry_space_group_name_H-M   'P 1'
_cell_length_a   14.62907256
_cell_length_b   16.03555468
_cell_length_c   23.70391830
_cell_angle_alpha   90.51846144
_cell_angle_beta   90.35895382
_cell_angle_gamma   90.27261504
_symmetry_Int_Tables_number   1
_chemical_formula_structural   Zn2H41C67N7O12
_chemical_formula_sum   'Zn2 H41 C67 N7 O12'
_cell_volume   5560.18939194
_cell_formula_units_Z   1
loop_
 _symmetry_equiv_pos_site_id
 _symmetry_equiv_pos_as_xyz
  1  'x, y, z'
loop_
 _atom_site_type_symbol
 _atom_site_label
 _atom_site_symmetry_multiplicity
 _atom_site_fract_x
 _atom_site_fract_y
 _atom_site_fract_z
 _atom_site_occupancy
 _atom_site_pbe_bader_charge
 _atom_site_pbe_bader_spin_density
 _atom_site_pbe_cm5_charge
 _atom_site_pbe_ddec_charge
 _atom_site_pbe_ddec_spin_density
 _atom_site_pbe_ddec_sum_bond_order
 _atom_site_pbe_magmom
Zn  Zn0  1  0.40361460  0.49736054  0.50104624  1  1.322857  0  0.684052  0.891274  0  2.426321  0
Zn  Zn1  1  0.59590154  0.50058788  0.50224483  1  1.311244  0  0.689294  0.894023  0  2.425962  0
H  H2  1  0.57044839  0.29971495  0.94738322  1  0.163121  0  0.121032  0.127633  0  0.973486  0
H  H3  1  0.35532454  0.93243596  0.51113277  1  0.084085  0  0.122035  0.106137  0  0.931888  0
H  H4  1  0.43245237  0.06958664  0.42128858  1  0.039983  0  0.0979  0.09956  0  0.97143  0
H  H5  1  0.55266029  0.06778088  0.41652188  1  0.016879  0  0.09829  0.099967  0  0.971559  0
H  H6  1  0.42906693  0.92359998  0.42388697  1  0.074222  0  0.099966  0.101375  0  0.973095  0
H  H7  1  0.54909131  0.92160667  0.41843430  1  0.054169  0  0.102633  0.106769  0  0.967731  0
H  H8  1  0.06692397  0.37421196  0.46544809  1  0.074065  0  0.108186  0.088347  0  0.956324  0
H  H9  1  0.91804019  0.37918775  0.45316094  1  0.035659  0  0.103907  0.075978  0  0.98022  0
H  H10  1  0.57178499  0.30085379  0.05416255  1  0.119341  0  0.119438  0.124736  0  0.975445  0
H  H11  1  0.91600065  0.49441235  0.58487065  1  0.083251  0  0.109275  0.114199  0  0.960184  0
H  H12  1  0.07315848  0.52067910  0.58216772  1  0.058266  0  0.108157  0.112029  0  0.958073  0
H  H13  1  0.35343933  0.49764596  0.67804968  1  0.085217  0  0.10698  0.11003  0  0.995898  0
H  H14  1  0.92803198  0.39624664  0.55118842  1  0.057496  0  0.10491  0.107515  0  0.965395  0
H  H15  1  0.08596274  0.41445702  0.56329194  1  0.057017  0  0.107752  0.11151  0  0.962069  0
H  H16  1  0.91310803  0.61896742  0.45084346  1  0.054795  0  0.108757  0.117293  0  0.976326  0
H  H17  1  0.07035034  0.60820562  0.43795778  1  0.0732  0  0.101  0.100738  0  1.00732  0
H  H18  1  0.92596311  0.62492573  0.52489969  1  0.030947  0  0.108386  0.113057  0  0.955628  0
H  H19  1  0.08369146  0.63320894  0.51021742  1  0.027815  0  0.108522  0.113656  0  0.95822  0
H  H20  1  0.42199848  0.69721148  0.05450250  1  0.114342  0  0.119839  0.125122  0  0.974859  0
H  H21  1  0.42160928  0.69599452  0.94764651  1  0.123663  0  0.12226  0.128868  0  0.972158  0
H  H22  1  0.61057926  0.58926889  0.21683533  1  0.060022  0  0.119119  0.13449  0  0.969785  0
H  H23  1  0.38580412  0.41874451  0.32222933  1  0.111947  0  0.112643  0.119865  0  0.995465  0
H  H24  1  0.64650289  0.49746647  0.68127631  1  0.08503  0  0.107186  0.110214  0  0.994509  0
H  H25  1  0.38671965  0.41428241  0.21640905  1  0.082557  0  0.11238  0.119751  0  0.979204  0
H  H26  1  0.35086711  0.49646144  0.78402618  1  0.073376  0  0.108671  0.115063  0  0.981886  0
H  H27  1  0.80806113  0.36000111  0.39070983  1  0.057991  0  0.100437  0.098887  0  1.00062  0
H  H28  1  0.73428708  0.38891486  0.29871520  1  0.082104  0  0.105943  0.103746  0  0.985052  0
H  H29  1  0.78685808  0.50910247  0.24123513  1  0.081382  0  0.100236  0.093028  0  0.998631  0
H  H30  1  0.91149565  0.60159498  0.27793715  1  0.050436  0  0.104105  0.099021  0  0.986309  0
H  H31  1  0.98600641  0.57223883  0.36855768  1  0.026669  0  0.095846  0.08947  0  1.036226  0
H  H32  1  0.17779334  0.55059922  0.39825672  1  0.085934  0  0.101291  0.09964  0  1.026906  0
H  H33  1  0.24360281  0.54328033  0.30423529  1  0.04942  0  0.105941  0.103895  0  0.986291  0
H  H34  1  0.20510474  0.42522088  0.23897003  1  0.055087  0  0.100266  0.093497  0  1.001787  0
H  H35  1  0.64495560  0.49859867  0.78726446  1  0.071491  0  0.108887  0.115  0  0.98171  0
H  H36  1  0.10201548  0.31130392  0.27199803  1  0.058586  0  0.103307  0.098698  0  0.989808  0
H  H37  1  0.03518982  0.31808087  0.36726055  1  0.046856  0  0.101287  0.100274  0  0.992015  0
H  H38  1  0.42782857  0.07342304  0.58047402  1  0.073456  0  0.107901  0.118523  0  0.964257  0
H  H39  1  0.59412897  0.07146267  0.57361890  1  0.092107  0  0.107616  0.118092  0  0.96458  0
H  H40  1  0.65063667  0.07336187  0.50787367  1  0.050627  0  0.102058  0.107926  0  0.970405  0
H  H41  1  0.35667225  0.07627296  0.51994982  1  0.036465  0  0.102657  0.109146  0  0.96937  0
H  H42  1  0.64448897  0.92960330  0.49853604  1  0.097994  0  0.124118  0.109755  0  0.927585  0
C  C43  1  0.50080093  0.33742747  0.49863348  1  1.66423  0  0.215403  0.672345  0  4.242174  0
C  C44  1  0.46906042  0.57388316  0.12294411  1  1.289754  0  0.242907  0.435118  0  4.098615  0
C  C45  1  0.56226879  0.55074455  0.23983030  1  0.16397  0  -0.066523  -0.180557  0  3.908904  0
C  C46  1  0.49698075  0.50174672  0.39215406  1  1.564986  0  0.215151  0.587457  0  4.198131  0
C  C47  1  0.56289450  0.55208034  0.29913846  1  -0.0059  0  0.019431  0.061857  0  4.03608  0
C  C48  1  0.49867838  0.50349729  0.32880953  1  0.039866  0  0.004608  -0.042327  0  3.889206  0
C  C49  1  0.43542303  0.45487307  0.29849685  1  0.114976  0  -0.073139  -0.075092  0  3.966227  0
C  C50  1  0.43556778  0.45294627  0.23981218  1  -0.089941  0  -0.07508  -0.141199  0  3.96033  0
C  C51  1  0.49916292  0.50116498  0.21083019  1  0.277084  0  0.092877  0.196527  0  4.035528  0
C  C52  1  0.41532620  0.49657493  0.76120571  1  -0.013589  0  -0.083504  -0.153798  0  3.983976  0
C  C53  1  0.41668296  0.49717541  0.70252643  1  -0.039007  0  -0.076307  -0.069364  0  3.961198  0
C  C54  1  0.55029451  0.35496355  0.97127781  1  -0.058906  0  -0.060848  -0.069502  0  3.925164  0
C  C55  1  0.50004051  0.49717869  0.67377498  1  0.010427  0  -0.01032  -0.024152  0  3.942093  0
C  C56  1  0.58232268  0.49731818  0.70430671  1  0.091645  0  -0.0755  -0.069363  0  3.960041  0
C  C57  1  0.58141323  0.49789626  0.76300382  1  -0.067842  0  -0.083375  -0.152081  0  3.979137  0
C  C58  1  0.49879058  0.65999751  0.50246014  1  1.721147  0  0.222423  0.67547  0  4.228551  0
C  C59  1  0.49783863  0.49715586  0.79096161  1  0.352548  0  0.089661  0.193143  0  4.014664  0
C  C60  1  0.42016316  0.05014883  0.53701618  1  -0.034759  0  -0.142628  -0.224388  0  3.808794  0
C  C61  1  0.59083869  0.04844705  0.52990593  1  -0.018518  0  -0.143307  -0.224596  0  3.81012  0
C  C62  1  0.59210630  0.95122458  0.52839597  1  0.030848  0  -0.046019  -0.041033  0  3.850829  0
C  C63  1  0.41524969  0.95300654  0.53604996  1  0.115607  0  -0.046191  -0.038817  0  3.852055  0
C  C64  1  0.49773035  0.75039411  0.50313523  1  0.018937  0  -0.036906  -0.152883  0  3.952544  0
C  C65  1  0.55096739  0.35562918  0.03053012  1  0.00147  0  -0.060296  -0.065183  0  3.929971  0
C  C66  1  0.50228162  0.08085190  0.50192741  1  0.141498  0  0.001855  0.185356  0  3.912174  0
C  C67  1  0.49958668  0.91644917  0.50410302  1  0.117148  0  0.017286  0.13371  0  3.866501  0
C  C68  1  0.49247421  0.94852616  0.44262595  1  -0.10355  0  -0.149097  -0.192479  0  3.855449  0
C  C69  1  0.49455884  0.04492820  0.44121523  1  0.027475  0  -0.152113  -0.191648  0  3.850023  0
C  C70  1  0.49802455  0.82607323  0.50409797  1  -0.302999  0  -0.040291  -0.089774  0  4.077078  0
C  C71  1  0.50319245  0.17134812  0.50050480  1  -0.486773  0  -0.036865  -0.067497  0  4.047733  0
C  C72  1  0.50089691  0.49727491  0.61055784  1  1.541802  0  0.218124  0.597666  0  4.166296  0
C  C73  1  0.50254563  0.24705404  0.49908703  1  0.193046  0  -0.054857  -0.1955  0  3.988636  0
C  C74  1  0.94446352  0.44164419  0.44322037  1  0.025528  0  -0.063777  -0.08495  0  3.758893  0
C  C75  1  0.05257853  0.43565278  0.44707355  1  -0.029958  0  -0.062575  -0.082767  0  3.753212  0
C  C76  1  0.52517324  0.42662659  0.06042085  1  0.028846  0  -0.006388  -0.067798  0  3.996558  0
C  C77  1  0.94791914  0.46227446  0.54903285  1  -0.081126  0  -0.144447  -0.189906  0  3.862279  0
C  C78  1  0.05265729  0.47283137  0.55107695  1  -0.009502  0  -0.142715  -0.185759  0  3.848185  0
C  C79  1  0.91145072  0.49884637  0.49299627  1  0.141752  0  0.016634  0.086274  0  3.882549  0
C  C80  1  0.08742519  0.50011870  0.49209568  1  0.187633  0  0.015227  0.081908  0  3.880588  0
C  C81  1  0.05114533  0.58910219  0.48054658  1  -0.037315  0  -0.146286  -0.1878  0  3.844094  0
C  C82  1  0.94627626  0.58959743  0.48714430  1  0.033296  0  -0.144602  -0.184632  0  3.832933  0
C  C83  1  0.18637215  0.49994815  0.49541590  1  0.791813  0  0.244245  0.299105  0  3.885243  0
C  C84  1  0.81252779  0.49880408  0.49468986  1  0.848081  0  0.249374  0.307117  0  3.865352  0
C  C85  1  0.46797827  0.57117993  0.87917268  1  1.37524  0  0.245066  0.429286  0  4.097967  0
C  C86  1  0.52478955  0.42361065  0.87899921  1  1.377677  0  0.24534  0.432421  0  4.100707  0
C  C87  1  0.49732476  0.49897556  0.03125274  1  0.032941  0  0.004223  0.032428  0  4.001912  0
C  C88  1  0.52398876  0.42540689  0.94167318  1  -0.059571  0  -0.000358  -0.052809  0  3.975032  0
C  C89  1  0.49682837  0.49830903  0.97111513  1  -0.011071  0  0.004931  0.029611  0  3.997173  0
C  C90  1  0.46901288  0.57052754  0.94182009  1  -0.103438  0  0.000113  -0.051136  0  3.974994  0
C  C91  1  0.40181433  0.91955837  0.59245278  1  0.826462  0  0.166128  0.239531  0  3.975466  0
C  C92  1  0.61812413  0.91715374  0.58301848  1  0.850566  0  0.167415  0.242794  0  3.972436  0
C  C93  1  0.90244995  0.46377717  0.38673070  1  -0.025934  0  -0.021657  0.062126  0  3.980932  0
C  C94  1  0.83133241  0.41300269  0.36586468  1  -0.086789  0  -0.092953  -0.138915  0  3.994392  0
C  C95  1  0.78963560  0.42907762  0.31399255  1  -0.136598  0  -0.088664  -0.071157  0  4.020664  0
C  C96  1  0.81887828  0.49650977  0.28192788  1  0.007213  0  -0.089633  -0.082869  0  4.026862  0
C  C97  1  0.88882521  0.54821700  0.30241230  1  0.035924  0  -0.08787  -0.068364  0  4.019977  0
C  C98  1  0.46984132  0.57195246  0.06050848  1  0.035304  0  -0.006236  -0.065222  0  3.995137  0
C  C99  1  0.93011795  0.53205831  0.35430306  1  -0.045753  0  -0.092599  -0.127523  0  3.984909  0
C  C100  1  0.09953080  0.43540883  0.39006619  1  -0.072398  0  -0.015235  0.070928  0  3.972461  0
C  C101  1  0.15905576  0.49778103  0.37135427  1  -0.016712  0  -0.094623  -0.145382  0  3.99852  0
C  C102  1  0.19707961  0.49402233  0.31747570  1  -0.090217  0  -0.087262  -0.067087  0  4.019714  0
C  C103  1  0.17615783  0.42763276  0.28124541  1  0.005855  0  -0.09256  -0.091904  0  4.033365  0
C  C104  1  0.11825026  0.36402293  0.29970486  1  -0.046684  0  -0.090871  -0.078679  0  4.036314  0
C  C105  1  0.08082115  0.36791806  0.35354075  1  -0.035278  0  -0.091884  -0.129446  0  3.987214  0
C  C106  1  0.62808290  0.60614915  0.32628326  1  0.865146  0  0.176482  0.247732  0  4.026331  0
C  C107  1  0.44285835  0.64206646  0.03075174  1  -0.006021  0  -0.05944  -0.064853  0  3.928577  0
C  C108  1  0.44251638  0.64141783  0.97150033  1  -0.02032  0  -0.059837  -0.0694  0  3.924953  0
C  C109  1  0.52753417  0.42630471  0.12287695  1  1.297059  0  0.24342  0.436575  0  4.099214  0
N  N110  1  0.49691856  0.49729537  0.85187006  1  -1.185117  0  -0.228672  -0.209333  0  3.570605  0
N  N111  1  0.49895828  0.50052055  0.15006887  1  -1.18806  0  -0.231431  -0.212988  0  3.559225  0
N  N112  1  0.26501323  0.49866179  0.50119732  1  -1.147278  0  -0.287606  -0.300936  0  3.125382  0
N  N113  1  0.73366743  0.49912257  0.49821298  1  -1.141793  0  -0.284979  -0.296781  0  3.130507  0
N  N114  1  0.38641234  0.89546053  0.63767738  1  -1.123516  0  -0.320414  -0.364742  0  2.689189  0
N  N115  1  0.64347266  0.89259358  0.62649153  1  -1.115527  0  -0.322448  -0.367826  0  2.686479  0
N  N116  1  0.68289288  0.65393529  0.34266382  1  -1.124283  0  -0.325382  -0.374035  0  2.686296  0
O  O117  1  0.42402856  0.37094535  0.50920380  1  -1.140039  0  -0.315927  -0.545305  0  2.247306  0
O  O118  1  0.54818221  0.36186460  0.85180836  1  -1.089422  0  -0.271987  -0.427348  0  2.064973  0
O  O119  1  0.55279825  0.36609510  0.15053934  1  -1.097714  0  -0.279379  -0.437566  0  2.064208  0
O  O120  1  0.44404060  0.63464841  0.15064993  1  -1.096526  0  -0.277015  -0.433857  0  2.064371  0
O  O121  1  0.57586923  0.37422059  0.48780934  1  -1.151076  0  -0.318417  -0.554191  0  2.251644  0
O  O122  1  0.42134246  0.48212928  0.41472082  1  -1.153305  0  -0.31313  -0.542234  0  2.296231  0
O  O123  1  0.57158919  0.51917554  0.41720870  1  -1.150062  0  -0.300505  -0.532545  0  2.345872  0
O  O124  1  0.42362622  0.62366811  0.48996923  1  -1.148883  0  -0.319354  -0.556896  0  2.249337  0
O  O125  1  0.57485793  0.62624414  0.51422918  1  -1.135209  0  -0.308157  -0.533359  0  2.242899  0
O  O126  1  0.42515381  0.51138425  0.58567025  1  -1.162423  0  -0.31818  -0.553856  0  2.322509  0
O  O127  1  0.57709592  0.48308601  0.58656475  1  -1.160508  0  -0.319595  -0.554772  0  2.308514  0
O  O128  1  0.44381365  0.63216402  0.85207611  1  -1.088765  0  -0.264569  -0.416122  0  2.063471  0
