# generated using pymatgen
data_Zn4H12C24S4N4O13
_symmetry_space_group_name_H-M   'P 1'
_cell_length_a   19.68625142
_cell_length_b   19.68399871
_cell_length_c   33.40163405
_cell_angle_alpha   79.05769320
_cell_angle_beta   79.05641889
_cell_angle_gamma   63.84046170
_symmetry_Int_Tables_number   1
_chemical_formula_structural   Zn4H12C24S4N4O13
_chemical_formula_sum   'Zn16 H48 C96 S16 N16 O52'
_cell_volume   11323.21302558
_cell_formula_units_Z   4
loop_
 _symmetry_equiv_pos_site_id
 _symmetry_equiv_pos_as_xyz
  1  'x, y, z'
loop_
 _atom_site_type_symbol
 _atom_site_label
 _atom_site_symmetry_multiplicity
 _atom_site_fract_x
 _atom_site_fract_y
 _atom_site_fract_z
 _atom_site_occupancy
 _atom_site_pbe_bader_charge
 _atom_site_pbe_bader_spin_density
 _atom_site_pbe_cm5_charge
 _atom_site_pbe_ddec_charge
 _atom_site_pbe_ddec_spin_density
 _atom_site_pbe_ddec_sum_bond_order
 _atom_site_pbe_magmom
Zn  Zn0  1  0.05480202  0.40024337  0.47806502  1  1.326846  0  0.676  0.97869  0  2.352627  0
Zn  Zn1  1  0.98512159  0.48347859  0.56039128  1  1.299525  0  0.664091  0.949371  0  2.39044  0
Zn  Zn2  1  0.05864000  0.56006315  0.48284771  1  1.310804  0  0.665062  0.945745  0  2.408944  0
Zn  Zn3  1  0.90187015  0.55495182  0.47938387  1  1.30953  0  0.665672  0.946754  0  2.409568  0
Zn  Zn4  1  0.69520572  0.34959173  0.27211281  1  1.323842  0  0.674218  0.975903  0  2.353891  0
Zn  Zn5  1  0.68788331  0.19015193  0.26607361  1  1.313042  0  0.673478  0.971945  0  2.357551  0
Zn  Zn6  1  0.76759776  0.26671960  0.19078251  1  1.299698  0  0.664244  0.944472  0  2.40795  0
Zn  Zn7  1  0.84709200  0.19417732  0.27148808  1  1.311041  0  0.664698  0.942911  0  2.404238  0
Zn  Zn8  1  0.26679728  0.76550055  0.68932581  1  1.309288  0  0.674299  0.97042  0  2.360254  0
Zn  Zn9  1  0.34895013  0.69649697  0.77225651  1  1.316069  0  0.668284  0.961443  0  2.376201  0
Zn  Zn10  1  0.19385573  0.84794287  0.77157809  1  1.317243  0  0.669349  0.957269  0  2.396208  0
Zn  Zn11  1  0.19183361  0.68987864  0.76750226  1  1.306583  0  0.664158  0.943863  0  2.412104  0
Zn  Zn12  1  0.56066675  0.06059036  0.98406519  1  1.312249  0  0.672999  0.970885  0  2.361008  0
Zn  Zn13  1  0.40110595  0.05471546  0.97762213  1  1.321637  0  0.673396  0.969272  0  2.359658  0
Zn  Zn14  1  0.55572278  0.90221401  0.97867960  1  1.30842  0  0.667881  0.954769  0  2.397577  0
Zn  Zn15  1  0.48275598  0.98270450  0.05970948  1  1.313872  0  0.668793  0.953694  0  2.393537  0
H  H16  1  0.75153837  0.44953459  0.34771922  1  0.079876  0  0.10564  0.121607  0  1.0034  0
H  H17  1  0.00140620  0.30316645  0.39947182  1  0.064785  0  0.105785  0.121764  0  1.003624  0
H  H18  1  0.19788160  0.70287745  0.60145089  1  0.066457  0  0.104834  0.120244  0  1.006147  0
H  H19  1  0.04777770  0.55155525  0.64922420  1  0.085154  0  0.10146  0.115489  0  1.011704  0
H  H20  1  0.46332151  0.24061928  0.34147815  1  0.10704  0  0.119938  0.14491  0  0.969243  0
H  H21  1  0.48033343  0.70117026  0.60185202  1  0.130881  0  0.120534  0.145803  0  0.968258  0
H  H22  1  0.20448777  0.97913263  0.60177149  1  0.121468  0  0.120626  0.145917  0  0.969251  0
H  H23  1  0.94762038  0.96986277  0.34698786  1  0.111376  0  0.118193  0.14266  0  0.972959  0
H  H24  1  0.65087978  0.14639188  0.04955583  1  0.081814  0  0.104494  0.120283  0  1.005616  0
H  H25  1  0.60364123  0.09889202  0.20041220  1  0.083852  0  0.104817  0.120728  0  1.005569  0
H  H26  1  0.54687562  0.77021017  0.14801675  1  0.114257  0  0.120272  0.145129  0  0.969466  0
H  H27  1  0.16266244  0.14355911  0.04064518  1  0.128253  0  0.120304  0.145043  0  0.969613  0
H  H28  1  0.30032346  0.99913994  0.90217202  1  0.069624  0  0.104361  0.120233  0  1.00581  0
H  H29  1  0.44758172  0.74985793  0.84981555  1  0.045645  0  0.102789  0.117312  0  1.008761  0
H  H30  1  0.30193394  0.28003562  0.90196044  1  0.113136  0  0.120152  0.145345  0  0.970675  0
H  H31  1  0.78606747  0.01052755  0.90807335  1  0.14074  0  0.120712  0.145675  0  0.968492  0
H  H32  1  0.79112882  0.53836583  0.42002034  1  0.487514  0  0.292917  0.30347  0  0.998761  0
H  H33  1  0.72387085  0.54145539  0.39210386  1  0.417619  0  0.304906  0.298191  0  0.947324  0
H  H34  1  0.95388738  0.20634178  0.33511219  1  0.488574  0  0.291779  0.301707  0  1.000909  0
H  H35  1  0.01685172  0.19899307  0.36734751  1  0.410102  0  0.304993  0.298902  0  0.947461  0
H  H36  1  0.14551809  0.64253526  0.52074623  1  0.494299  0  0.294926  0.306175  0  0.998382  0
H  H37  1  0.19913647  0.68483407  0.53286011  1  0.424465  0  0.306835  0.300136  0  0.946681  0
H  H38  1  0.11112421  0.60089868  0.72958733  1  0.483492  0  0.292612  0.303035  0  0.999569  0
H  H39  1  0.06881487  0.54802666  0.71748083  1  0.423954  0  0.301612  0.294031  0  0.952946  0
H  H40  1  0.72726513  0.23152847  0.10575521  1  0.482293  0  0.294072  0.305015  0  0.99995  0
H  H41  1  0.70934850  0.22510935  0.05789100  1  0.445602  0  0.305844  0.299503  0  0.947441  0
H  H42  1  0.51658069  0.02415770  0.14459479  1  0.484074  0  0.29522  0.306535  0  0.99612  0
H  H43  1  0.52505727  0.04069103  0.19231351  1  0.43969  0  0.30646  0.30059  0  0.94618  0
H  H44  1  0.20922741  0.95831190  0.83119545  1  0.494233  0  0.296751  0.309372  0  0.992777  0
H  H45  1  0.20589505  0.02588063  0.85940366  1  0.425512  0  0.307015  0.300808  0  0.947288  0
H  H46  1  0.54296374  0.79517786  0.91626826  1  0.486792  0  0.295272  0.307388  0  0.993515  0
H  H47  1  0.55075406  0.73253087  0.88356281  1  0.412164  0  0.305078  0.298809  0  0.949609  0
H  H48  1  0.31105993  0.55811243  0.39473514  1  0.444995  0  0.312447  0.307057  0  0.93525  0
H  H49  1  0.23130137  0.55323905  0.42591499  1  0.504628  0  0.304117  0.315682  0  0.962997  0
H  H50  1  0.76847024  0.52229851  0.68540799  1  0.451516  0  0.311777  0.30549  0  0.937893  0
H  H51  1  0.83684053  0.51765511  0.64300950  1  0.473595  0  0.303696  0.315734  0  0.964377  0
H  H52  1  0.04551306  0.26719381  0.68575338  1  0.459313  0  0.310149  0.304018  0  0.939226  0
H  H53  1  0.02115644  0.33536586  0.64307153  1  0.488681  0  0.302051  0.312914  0  0.968749  0
H  H54  1  0.74260501  0.80264148  0.38583094  1  0.442157  0  0.314838  0.310063  0  0.932932  0
H  H55  1  0.79542101  0.72467861  0.41891930  1  0.493155  0  0.306193  0.318469  0  0.960421  0
H  H56  1  0.72822530  0.48231153  0.06501111  1  0.449506  0  0.313012  0.307518  0  0.935543  0
H  H57  1  0.73492692  0.41362829  0.10739086  1  0.488344  0  0.304901  0.316988  0  0.961956  0
H  H58  1  0.14445343  0.08531461  0.22694335  1  0.436727  0  0.313912  0.30864  0  0.934039  0
H  H59  1  0.04623063  0.11655744  0.23960338  1  0.48378  0  0.305651  0.317973  0  0.960537  0
H  H60  1  0.51669979  0.43699057  0.85485753  1  0.46761  0  0.314249  0.309551  0  0.935436  0
H  H61  1  0.45629288  0.52366223  0.83012115  1  0.500885  0  0.306745  0.320823  0  0.958034  0
H  H62  1  0.92663714  0.70184254  0.84419789  1  0.418858  0  0.313638  0.3085  0  0.935032  0
H  H63  1  0.01553142  0.69856442  0.82212061  1  0.488106  0  0.305464  0.317663  0  0.960224  0
C  C64  1  0.05935539  0.31567481  0.56260721  1  1.491827  0  0.206166  0.616731  0  4.216147  0
C  C65  1  0.07013573  0.57088225  0.56911966  1  1.485524  0  0.224214  0.615101  0  4.13532  0
C  C66  1  0.18502375  0.43905034  0.43935667  1  1.524017  0  0.205857  0.615573  0  4.219322  0
C  C67  1  0.93669792  0.68502635  0.43857386  1  1.529872  0  0.204199  0.612985  0  4.22178  0
C  C68  1  0.92870187  0.43265028  0.43011682  1  1.507822  0  0.224632  0.613875  0  4.137445  0
C  C69  1  0.81668123  0.56239952  0.56295704  1  1.487184  0  0.204696  0.614624  0  4.218389  0
C  C70  1  0.56517211  0.31228091  0.31121007  1  1.571694  0  0.218287  0.611946  0  4.212996  0
C  C71  1  0.68208486  0.18046031  0.17933571  1  1.519546  0  0.224827  0.614664  0  4.139913  0
C  C72  1  0.68849338  0.43404093  0.18768301  1  1.501993  0  0.205656  0.615491  0  4.219755  0
C  C73  1  0.93565959  0.18709793  0.18923613  1  1.511036  0  0.204583  0.613906  0  4.218503  0
C  C74  1  0.82207026  0.31775747  0.31932575  1  1.51635  0  0.224335  0.613952  0  4.137465  0
C  C75  1  0.81009087  0.06558108  0.31115504  1  1.591118  0  0.216386  0.60946  0  4.219647  0
C  C76  1  0.43445042  0.68692202  0.68874021  1  1.564112  0  0.21747  0.61082  0  4.218321  0
C  C77  1  0.31787076  0.82221702  0.81954997  1  1.52024  0  0.223868  0.613173  0  4.14009  0
C  C78  1  0.18960875  0.93342502  0.68857416  1  1.626486  0  0.217283  0.610717  0  4.216269  0
C  C79  1  0.06546072  0.80967261  0.81207402  1  1.520981  0  0.204567  0.611877  0  4.222627  0
C  C80  1  0.17927484  0.67980777  0.68148648  1  1.509738  0  0.224648  0.614387  0  4.138027  0
C  C81  1  0.31350868  0.56582761  0.81237820  1  1.51767  0  0.2045  0.615044  0  4.218828  0
C  C82  1  0.43927945  0.18357603  0.93828360  1  1.57395  0  0.218383  0.612252  0  4.215858  0
C  C83  1  0.43150041  0.92821568  0.93096641  1  1.510843  0  0.22436  0.613952  0  4.139027  0
C  C84  1  0.68382277  0.93923763  0.93820916  1  1.5566  0  0.217049  0.610347  0  4.21852  0
C  C85  1  0.56249487  0.81558585  0.06132047  1  1.58702  0  0.217633  0.610245  0  4.216762  0
C  C86  1  0.56909605  0.06816849  0.07067676  1  1.507909  0  0.224424  0.614038  0  4.142336  0
C  C87  1  0.31569479  0.06216790  0.06121044  1  1.560511  0  0.21768  0.611776  0  4.218526  0
C  C88  1  0.89992154  0.40644635  0.40081279  1  -0.020346  0  -0.027052  -0.132293  0  3.9545  0
C  C89  1  0.85259750  0.34576593  0.34682064  1  0.000312  0  -0.027291  -0.134996  0  3.958464  0
C  C90  1  0.82752416  0.45049880  0.38600824  1  0.4291  0  0.091879  0.274372  0  4.093272  0
C  C91  1  0.92560850  0.30237610  0.36098912  1  0.39363  0  0.091675  0.276448  0  4.089428  0
C  C92  1  0.80650877  0.41783838  0.35946292  1  0.00164  0  -0.101374  -0.206355  0  3.966304  0
C  C93  1  0.94634816  0.33475455  0.38781586  1  0.06537  0  -0.100506  -0.20616  0  3.964066  0
C  C94  1  0.09768143  0.60147981  0.59676484  1  -0.006831  0  -0.028399  -0.135724  0  3.954119  0
C  C95  1  0.14856592  0.65227347  0.65386242  1  -0.025179  0  -0.026896  -0.133053  0  3.960032  0
C  C96  1  0.14024050  0.64607209  0.58195953  1  0.426734  0  0.094062  0.279023  0  4.096433  0
C  C97  1  0.10438933  0.60932479  0.66867539  1  0.420854  0  0.089645  0.273728  0  4.093021  0
C  C98  1  0.16473059  0.66935141  0.61150615  1  0.049794  0  -0.101144  -0.206387  0  3.964175  0
C  C99  1  0.08109423  0.58492463  0.63917127  1  0.006196  0  -0.102773  -0.207326  0  3.974525  0
C  C100  1  0.30367248  0.45563613  0.40230363  1  0.510672  0  0.103202  0.277535  0  4.129908  0
C  C101  1  0.44592128  0.29757347  0.34933627  1  0.010971  0  -0.087114  -0.130186  0  3.959928  0
C  C102  1  0.25913467  0.41404809  0.41527870  1  -0.108568  0  -0.04949  -0.263535  0  3.960637  0
C  C103  1  0.49040546  0.33772345  0.33637735  1  -0.152892  0  -0.025071  -0.117256  0  3.97957  0
C  C104  1  0.37787306  0.34008816  0.37326659  1  -0.115418  0  -0.022051  0.007189  0  4.1058  0
C  C105  1  0.37186235  0.41205237  0.37809774  1  -0.174725  0  -0.031152  -0.125128  0  4.045678  0
C  C106  1  0.72808867  0.57649142  0.63038030  1  0.549101  0  0.102715  0.276511  0  4.134099  0
C  C107  1  0.52515314  0.67213157  0.62178792  1  0.056219  0  -0.087443  -0.13156  0  3.960268  0
C  C108  1  0.74291632  0.58750855  0.58735331  1  -0.13478  0  -0.049038  -0.260767  0  3.961915  0
C  C109  1  0.50967111  0.66175065  0.66410166  1  -0.21107  0  -0.025  -0.115253  0  3.982978  0
C  C110  1  0.60445006  0.64094740  0.60928243  1  -0.128504  0  -0.021482  0.008989  0  4.103439  0
C  C111  1  0.64794138  0.60749878  0.64243788  1  -0.178042  0  -0.031316  -0.124495  0  4.046219  0
C  C112  1  0.07318306  0.22674279  0.62999218  1  0.514053  0  0.100612  0.275681  0  4.128271  0
C  C113  1  0.17474073  0.02402277  0.62162582  1  0.004258  0  -0.086714  -0.130466  0  3.961207  0
C  C114  1  0.08352866  0.24168721  0.58694576  1  -0.115218  0  -0.048112  -0.261894  0  3.958219  0
C  C115  1  0.16456388  0.00859736  0.66394221  1  -0.139651  0  -0.024756  -0.115324  0  3.981559  0
C  C116  1  0.14182333  0.10326410  0.60901798  1  -0.150437  0  -0.022146  0.005914  0  4.105002  0
C  C117  1  0.10711317  0.14670635  0.64213080  1  -0.16564  0  -0.031016  -0.123465  0  4.045493  0
C  C118  1  0.84158256  0.80046454  0.39852457  1  0.51292  0  0.104899  0.281329  0  4.12922  0
C  C119  1  0.90324466  0.94941931  0.35202330  1  -0.056124  0  -0.089023  -0.133631  0  3.964414  0
C  C120  1  0.91180699  0.75897653  0.41444034  1  -0.115473  0  -0.049343  -0.261805  0  3.958805  0
C  C121  1  0.83439038  0.99081174  0.33620184  1  -0.06418  0  -0.02432  -0.114745  0  3.981996  0
C  C122  1  0.90647458  0.87996945  0.37458774  1  -0.133262  0  -0.02222  0.008758  0  4.105314  0
C  C123  1  0.83969912  0.86995640  0.37557498  1  -0.172994  0  -0.030302  -0.125679  0  4.042978  0
C  C124  1  0.65580532  0.15132148  0.15031307  1  -0.050363  0  -0.027258  -0.134202  0  3.957317  0
C  C125  1  0.59816831  0.09446079  0.09966151  1  -0.03996  0  -0.027758  -0.136024  0  3.963237  0
C  C126  1  0.67120032  0.16531800  0.10669629  1  0.43838  0  0.093092  0.278615  0  4.094351  0
C  C127  1  0.58421492  0.07899449  0.14328044  1  0.436166  0  0.093091  0.278245  0  4.094998  0
C  C128  1  0.64089887  0.13643342  0.08292095  1  0.011134  0  -0.102363  -0.208596  0  3.967163  0
C  C129  1  0.61353485  0.10892010  0.16704721  1  0.01048  0  -0.101676  -0.208022  0  3.966926  0
C  C130  1  0.67367577  0.52223492  0.12006840  1  0.523189  0  0.103183  0.277549  0  4.13096  0
C  C131  1  0.57626579  0.72521995  0.12820862  1  0.005887  0  -0.086388  -0.128897  0  3.958838  0
C  C132  1  0.66247107  0.50769272  0.16314426  1  -0.082454  0  -0.048743  -0.262829  0  3.959891  0
C  C133  1  0.58731574  0.74042775  0.08589654  1  -0.139305  0  -0.024593  -0.116413  0  3.982494  0
C  C134  1  0.60775025  0.64601022  0.14087847  1  -0.144307  0  -0.021987  0.006503  0  4.104737  0
C  C135  1  0.64194518  0.60232559  0.10782637  1  -0.171941  0  -0.029951  -0.123581  0  4.043888  0
C  C136  1  0.08107377  0.12229283  0.17863362  1  0.495434  0  0.104252  0.279546  0  4.127844  0
C  C137  1  0.17000323  0.12642557  0.07302351  1  0.053998  0  -0.087587  -0.13087  0  3.959808  0
C  C138  1  0.00907601  0.16206859  0.16451832  1  -0.101977  0  -0.048695  -0.261013  0  3.956327  0
C  C139  1  0.24115612  0.08713475  0.08647628  1  -0.182052  0  -0.02434  -0.116152  0  3.982562  0
C  C140  1  0.11146472  0.13978877  0.10635258  1  -0.194965  0  -0.021573  0.008196  0  4.103721  0
C  C141  1  0.13932797  0.11013627  0.14464599  1  -0.183048  0  -0.030354  -0.124289  0  4.042166  0
C  C142  1  0.34405133  0.85108963  0.84870013  1  0.024902  0  -0.027165  -0.134112  0  3.958418  0
C  C143  1  0.40402703  0.89806340  0.90308670  1  0.034781  0  -0.027652  -0.134026  0  3.959725  0
C  C144  1  0.29948022  0.92328592  0.86372570  1  0.392322  0  0.093614  0.278175  0  4.101582  0
C  C145  1  0.44777733  0.82506798  0.88886578  1  0.417204  0  0.091562  0.276187  0  4.097813  0
C  C146  1  0.33209296  0.94426677  0.89032413  1  0.029522  0  -0.102239  -0.209437  0  3.967433  0
C  C147  1  0.41581912  0.80474233  0.86164439  1  0.021062  0  -0.102234  -0.206998  0  3.968843  0
C  C148  1  0.40752193  0.45064518  0.85318079  1  0.503303  0  0.104405  0.28057  0  4.13338  0
C  C149  1  0.34638623  0.30031274  0.89733118  1  0.061748  0  -0.088263  -0.13356  0  3.962119  0
C  C150  1  0.33759077  0.49237077  0.83702184  1  -0.129886  0  -0.04939  -0.262216  0  3.96017  0
C  C151  1  0.41498536  0.25856103  0.91336810  1  -0.18665  0  -0.024507  -0.114541  0  3.978571  0
C  C152  1  0.34338443  0.37003195  0.87520203  1  -0.163855  0  -0.022292  0.009106  0  4.104373  0
C  C153  1  0.40986461  0.38016931  0.87497172  1  -0.124876  0  -0.030901  -0.125506  0  4.043772  0
C  C154  1  0.94714721  0.79309290  0.84961853  1  0.514366  0  0.103957  0.278478  0  4.131873  0
C  C155  1  0.80337896  0.95349546  0.90035255  1  0.007135  0  -0.086988  -0.130274  0  3.960728  0
C  C156  1  0.99219156  0.83417414  0.83689916  1  -0.107572  0  -0.048342  -0.260376  0  3.959088  0
C  C157  1  0.75848139  0.91379623  0.91311640  1  -0.14979  0  -0.024192  -0.115524  0  3.984311  0
C  C158  1  0.87188978  0.91017602  0.87703614  1  -0.145047  0  -0.021656  0.007741  0  4.104965  0
C  C159  1  0.87791113  0.83798660  0.87262687  1  -0.179337  0  -0.030415  -0.124608  0  4.043963  0
S  S160  1  0.30045323  0.32393048  0.39840648  1  0.244247  0  0.054685  0.095843  0  2.749326  0
S  S161  1  0.44997686  0.42726405  0.35328911  1  0.241653  0  0.069192  0.116091  0  2.759084  0
S  S162  1  0.66069476  0.63522065  0.56262249  1  0.245573  0  0.051626  0.091281  0  2.755741  0
S  S163  1  0.59122249  0.61443840  0.68895895  1  0.234789  0  0.064209  0.109165  0  2.766655  0
S  S164  1  0.13317241  0.15948275  0.56227654  1  0.255492  0  0.056975  0.099224  0  2.749443  0
S  S165  1  0.11468378  0.09011048  0.68871523  1  0.230188  0  0.066822  0.112159  0  2.763002  0
S  S166  1  0.97313062  0.80460030  0.40174748  1  0.231023  0  0.04862  0.087497  0  2.752092  0
S  S167  1  0.77302012  0.94592124  0.34879024  1  0.235563  0  0.072429  0.120198  0  2.757681  0
S  S168  1  0.61357827  0.59012969  0.18764643  1  0.250663  0  0.055424  0.097283  0  2.751401  0
S  S169  1  0.63562007  0.65870438  0.06121458  1  0.240157  0  0.06931  0.116042  0  2.760633  0
S  S170  1  0.01327885  0.18312838  0.11106153  1  0.279757  0  0.050967  0.090239  0  2.75281  0
S  S171  1  0.23744271  0.06576780  0.13962698  1  0.267496  0  0.068599  0.11564  0  2.76255  0
S  S172  1  0.27649372  0.44648235  0.84872516  1  0.253789  0  0.047335  0.085696  0  2.754579  0
S  S173  1  0.47603166  0.30387537  0.90188316  1  0.248808  0  0.069084  0.115477  0  2.76235  0
S  S174  1  0.95077383  0.92478923  0.85316812  1  0.248428  0  0.054141  0.094878  0  2.751399  0
S  S175  1  0.79926819  0.82350707  0.89710703  1  0.25958  0  0.066913  0.112907  0  2.764076  0
N  N176  1  0.77944559  0.52312363  0.39561956  1  -1.221268  0  -0.60758  -0.632426  0  3.33079  0
N  N177  1  0.97642004  0.23243061  0.34869222  1  -1.243684  0  -0.608044  -0.634173  0  3.331724  0
N  N178  1  0.15601882  0.66827049  0.54095678  1  -1.248362  0  -0.602666  -0.627433  0  3.345372  0
N  N179  1  0.08221551  0.59334131  0.70989371  1  -1.256323  0  -0.609161  -0.634013  0  3.330821  0
N  N180  1  0.71542717  0.20313881  0.08761643  1  -1.238174  0  -0.605772  -0.631347  0  3.341476  0
N  N181  1  0.54612760  0.03505191  0.16244750  1  -1.234891  0  -0.604704  -0.630998  0  3.339402  0
N  N182  1  0.22694029  0.97079681  0.85433598  1  -1.24411  0  -0.603135  -0.629615  0  3.346269  0
N  N183  1  0.51721911  0.77415190  0.90146775  1  -1.246617  0  -0.604939  -0.631774  0  3.340334  0
N  N184  1  0.28561698  0.52606493  0.41247905  1  -1.263756  0  -0.584196  -0.593784  0  3.328336  0
N  N185  1  0.78239772  0.54351113  0.65661191  1  -1.236267  0  -0.583856  -0.59275  0  3.331394  0
N  N186  1  0.03404154  0.28073740  0.65625260  1  -1.28237  0  -0.587292  -0.596768  0  3.32721  0
N  N187  1  0.78314104  0.77881038  0.40513181  1  -1.236765  0  -0.580988  -0.591702  0  3.331666  0
N  N188  1  0.70763121  0.46786026  0.09386882  1  -1.279695  0  -0.58402  -0.594006  0  3.329376  0
N  N189  1  0.09322912  0.09694985  0.21867503  1  -1.238256  0  -0.582858  -0.592979  0  3.327667  0
N  N190  1  0.46338218  0.47517681  0.84960798  1  -1.284509  0  -0.581713  -0.594647  0  3.334642  0
N  N191  1  0.96770306  0.72042018  0.84222642  1  -1.226343  0  -0.58214  -0.59201  0  3.330976  0
O  O192  1  0.00032525  0.49887419  0.50045752  1  -1.218712  0  -0.572524  -1.01662  0  2.54847  0
O  O193  1  0.07487794  0.31701931  0.52351413  1  -1.154634  0  -0.325192  -0.552831  0  2.33463  0
O  O194  1  0.03446099  0.52964418  0.58558482  1  -1.179373  0  -0.323914  -0.558508  0  2.34521  0
O  O195  1  0.15679241  0.50655464  0.45067120  1  -1.178434  0  -0.324172  -0.558548  0  2.332715  0
O  O196  1  0.02410125  0.37475374  0.58240415  1  -1.175662  0  -0.324445  -0.56163  0  2.326164  0
O  O197  1  0.15286051  0.39297792  0.44752577  1  -1.185313  0  -0.327016  -0.555462  0  2.334861  0
O  O198  1  0.08388531  0.58731320  0.53011857  1  -1.155771  0  -0.313462  -0.549701  0  2.367779  0
O  O199  1  0.00408556  0.65582112  0.44932906  1  -1.18417  0  -0.331167  -0.558195  0  2.344396  0
O  O200  1  0.88525947  0.49791737  0.44282127  1  -1.181007  0  -0.315225  -0.552994  0  2.372138  0
O  O201  1  0.88927231  0.65370265  0.44742158  1  -1.176403  0  -0.321801  -0.555474  0  2.329349  0
O  O202  1  0.99454863  0.38900492  0.44120784  1  -1.172286  0  -0.316696  -0.5502  0  2.338824  0
O  O203  1  0.87609375  0.52719330  0.58240844  1  -1.184327  0  -0.322425  -0.55847  0  2.323827  0
O  O204  1  0.81736327  0.57679335  0.52381415  1  -1.153174  0  -0.329812  -0.555713  0  2.346543  0
O  O205  1  0.74853155  0.25015901  0.25062474  1  -1.2144  0  -0.571405  -1.020511  0  2.539827  0
O  O206  1  0.59618559  0.35921645  0.30299317  1  -1.157448  0  -0.320414  -0.549671  0  2.328854  0
O  O207  1  0.66397726  0.16569606  0.21781190  1  -1.166918  0  -0.31982  -0.553847  0  2.344439  0
O  O208  1  0.72499693  0.37479475  0.16812501  1  -1.174196  0  -0.323127  -0.55767  0  2.330863  0
O  O209  1  0.59219826  0.24576133  0.30000670  1  -1.17223  0  -0.318196  -0.542064  0  2.308959  0
O  O210  1  0.67384097  0.43295984  0.22683339  1  -1.163542  0  -0.32723  -0.555515  0  2.335903  0
O  O211  1  0.72134090  0.21920505  0.16417076  1  -1.182906  0  -0.314027  -0.55072  0  2.372007  0
O  O212  1  0.87647329  0.22497673  0.17031762  1  -1.179732  0  -0.330199  -0.557016  0  2.3444  0
O  O213  1  0.86391522  0.25090938  0.30816285  1  -1.183047  0  -0.31577  -0.553263  0  2.372252  0
O  O214  1  0.93512240  0.16962564  0.22860979  1  -1.161102  0  -0.322217  -0.556549  0  2.326855  0
O  O215  1  0.75600776  0.36120914  0.30843504  1  -1.179238  0  -0.317767  -0.551084  0  2.340572  0
O  O216  1  0.74387907  0.09327257  0.29937146  1  -1.178499  0  -0.319673  -0.548816  0  2.329345  0
O  O217  1  0.85738271  0.09602978  0.30350314  1  -1.178771  0  -0.320812  -0.543201  0  2.319332  0
O  O218  1  0.25129967  0.74998072  0.74961567  1  -1.216061  0  -0.571944  -1.020199  0  2.543846  0
O  O219  1  0.37643641  0.72313455  0.66911236  1  -1.169684  0  -0.317219  -0.54022  0  2.309541  0
O  O220  1  0.36276626  0.75728484  0.80748446  1  -1.184184  0  -0.322407  -0.556739  0  2.346058  0
O  O221  1  0.17313843  0.93364549  0.72754640  1  -1.181705  0  -0.322241  -0.549473  0  2.341419  0
O  O222  1  0.43438106  0.67021210  0.72772173  1  -1.150813  0  -0.323779  -0.553939  0  2.338422  0
O  O223  1  0.22498491  0.87519944  0.66904457  1  -1.180379  0  -0.317391  -0.542225  0  2.30898  0
O  O224  1  0.25151568  0.86419432  0.80793837  1  -1.180621  0  -0.3129  -0.54897  0  2.368527  0
O  O225  1  0.09643873  0.85684291  0.80293334  1  -1.17871  0  -0.328603  -0.553914  0  2.343622  0
O  O226  1  0.16516241  0.66366571  0.72048396  1  -1.170335  0  -0.314208  -0.550805  0  2.374175  0
O  O227  1  0.09423141  0.74215682  0.80079178  1  -1.180541  0  -0.321638  -0.555499  0  2.328598  0
O  O228  1  0.21829144  0.71769197  0.66497349  1  -1.179419  0  -0.319515  -0.553515  0  2.342756  0
O  O229  1  0.36015568  0.59804931  0.80456475  1  -1.181886  0  -0.321692  -0.558431  0  2.322083  0
O  O230  1  0.24751973  0.59344056  0.80002441  1  -1.183055  0  -0.332035  -0.558475  0  2.346884  0
O  O231  1  0.49961571  0.00093468  0.99977535  1  -1.224928  0  -0.571661  -1.025147  0  2.538239  0
O  O232  1  0.50605357  0.15566291  0.94943396  1  -1.173759  0  -0.321321  -0.550958  0  2.334461  0
O  O233  1  0.38826201  0.99465430  0.94154589  1  -1.179723  0  -0.320695  -0.555311  0  2.344388  0
O  O234  1  0.65242952  0.89260864  0.94555323  1  -1.158443  0  -0.323695  -0.550924  0  2.342109  0
O  O235  1  0.39177322  0.15345010  0.94648655  1  -1.163602  0  -0.317383  -0.541583  0  2.309509  0
O  O236  1  0.65722853  0.00480356  0.95045228  1  -1.172232  0  -0.316468  -0.540245  0  2.308563  0
O  O237  1  0.49760097  0.88576573  0.94284079  1  -1.180303  0  -0.313402  -0.549504  0  2.371299  0
O  O238  1  0.58149980  0.81598540  0.02243764  1  -1.170264  0  -0.322199  -0.549502  0  2.338818  0
O  O239  1  0.52954134  0.02973241  0.08594480  1  -1.187295  0  -0.314017  -0.550739  0  2.372809  0
O  O240  1  0.52415579  0.87363575  0.08077387  1  -1.171277  0  -0.317948  -0.539392  0  2.312389  0
O  O241  1  0.58474163  0.08520786  0.03215330  1  -1.169236  0  -0.320662  -0.554621  0  2.345812  0
O  O242  1  0.31569895  0.07841622  0.02233274  1  -1.148497  0  -0.316441  -0.541598  0  2.309253  0
O  O243  1  0.37401516  0.02595093  0.08081078  1  -1.17401  0  -0.323456  -0.55106  0  2.342011  0
