# generated using pymatgen
data_CdH18C22(SN2)2
_symmetry_space_group_name_H-M   'P 1'
_cell_length_a   7.83503618
_cell_length_b   12.51945976
_cell_length_c   12.51923650
_cell_angle_alpha   95.77957351
_cell_angle_beta   101.30180998
_cell_angle_gamma   101.30156070
_symmetry_Int_Tables_number   1
_chemical_formula_structural   CdH18C22(SN2)2
_chemical_formula_sum   'Cd2 H36 C44 S4 N8'
_cell_volume   1168.43214436
_cell_formula_units_Z   2
loop_
 _symmetry_equiv_pos_site_id
 _symmetry_equiv_pos_as_xyz
  1  'x, y, z'
loop_
 _atom_site_type_symbol
 _atom_site_label
 _atom_site_symmetry_multiplicity
 _atom_site_fract_x
 _atom_site_fract_y
 _atom_site_fract_z
 _atom_site_occupancy
 _atom_site_hle17_bader_spin_density
 _atom_site_hle17_ddec_charge
 _atom_site_hle17_ddec_spin_density
 _atom_site_hle17_ddec_sum_bond_order
 _atom_site_hle17_magmom
 _atom_site_hse06_10hf_bader_spin_density
 _atom_site_hse06_10hf_ddec_charge
 _atom_site_hse06_10hf_ddec_spin_density
 _atom_site_hse06_10hf_ddec_sum_bond_order
 _atom_site_hse06_10hf_magmom
 _atom_site_hse06_bader_spin_density
 _atom_site_hse06_ddec_charge
 _atom_site_hse06_ddec_spin_density
 _atom_site_hse06_ddec_sum_bond_order
 _atom_site_hse06_magmom
 _atom_site_pbe_bader_spin_density
 _atom_site_pbe_cm5_charge
 _atom_site_pbe_ddec_charge
 _atom_site_pbe_ddec_spin_density
 _atom_site_pbe_ddec_sum_bond_order
 _atom_site_pbe_magmom
Cd  Cd0  1  0.74999805  0.88165371  0.11834483  1  0  0.955197  0  1.970849  0  0  0.775471  0  2.431513  0  0  0.820952  0  2.39548  0  0  0.724071  0.743899  0  2.455592  0
Cd  Cd1  1  0.25000596  0.11835015  0.88166027  1  0  0.955199  0  1.970928  0  0  0.77546  0  2.431625  0  0  0.820943  0  2.39559  0  0  0.72404  0.743889  0  2.455706  0
H  H2  1  0.35170136  0.77215578  0.06724413  1  0  0.071218  0  0.96798  0  0  0.073369  0  1.04582  0  0  0.075419  0  1.043668  0  0  0.104461  0.071863  0  1.047303  0
H  H3  1  0.14829802  0.93274929  0.22784052  1  0  0.071238  0  0.967958  0  0  0.07338  0  1.045804  0  0  0.075433  0  1.043645  0  0  0.104458  0.071875  0  1.047288  0
H  H4  1  0.64830365  0.22784723  0.93276023  1  0  0.071181  0  0.967934  0  0  0.073381  0  1.045716  0  0  0.075435  0  1.043561  0  0  0.104461  0.071877  0  1.047202  0
H  H5  1  0.85169150  0.06725037  0.77215522  1  0  0.071221  0  0.968023  0  0  0.073402  0  1.045824  0  0  0.075455  0  1.043668  0  0  0.104475  0.071898  0  1.047308  0
H  H6  1  0.00941496  0.52742805  0.23866106  1  0  0.092282  0  0.94027  0  0  0.107915  0  0.991505  0  0  0.110557  0  0.990756  0  0  0.101957  0.106003  0  0.992111  0
H  H7  1  0.49059015  0.76133289  0.47257296  1  0  0.092215  0  0.940093  0  0  0.107825  0  0.991368  0  0  0.110474  0  0.990611  0  0  0.101915  0.105916  0  0.991973  0
H  H8  1  0.99058366  0.47257156  0.76133583  1  0  0.092245  0  0.940266  0  0  0.107854  0  0.991526  0  0  0.110505  0  0.990767  0  0  0.101935  0.105944  0  0.992132  0
H  H9  1  0.50941584  0.23866940  0.52743626  1  0  0.092217  0  0.940246  0  0  0.107845  0  0.991497  0  0  0.110496  0  0.990737  0  0  0.101938  0.105935  0  0.992103  0
H  H10  1  0.90327023  0.69356737  0.19325663  1  0  0.096994  0  0.988733  0  0  0.106877  0  1.05269  0  0  0.109347  0  1.051967  0  0  0.095189  0.105085  0  1.053357  0
H  H11  1  0.59673835  0.80673569  0.30643451  1  0  0.097059  0  0.988742  0  0  0.106962  0  1.05265  0  0  0.109431  0  1.051924  0  0  0.095238  0.105171  0  1.053317  0
H  H12  1  0.09673159  0.30643395  0.80674400  1  0  0.096999  0  0.988736  0  0  0.106881  0  1.052709  0  0  0.10935  0  1.051985  0  0  0.095186  0.105087  0  1.053379  0
H  H13  1  0.40325900  0.19326086  0.69357237  1  0  0.097028  0  0.988696  0  0  0.106898  0  1.052656  0  0  0.109367  0  1.05193  0  0  0.095232  0.105107  0  1.053321  0
H  H14  1  0.12211897  0.60104898  0.05421227  1  0  0.100163  0  0.967527  0  0  0.109525  0  1.030531  0  0  0.112197  0  1.030834  0  0  0.097367  0.107624  0  1.030439  0
H  H15  1  0.37787905  0.94578597  0.39895259  1  0  0.100192  0  0.967454  0  0  0.109521  0  1.030506  0  0  0.11218  0  1.030849  0  0  0.097346  0.107621  0  1.030415  0
H  H16  1  0.87788170  0.39895969  0.94578559  1  0  0.100193  0  0.967461  0  0  0.109525  0  1.030508  0  0  0.112186  0  1.030851  0  0  0.097332  0.107624  0  1.030417  0
H  H17  1  0.62211813  0.05422013  0.60103983  1  0  0.100115  0  0.967506  0  0  0.109462  0  1.030548  0  0  0.112121  0  1.03089  0  0  0.097297  0.107563  0  1.030458  0
H  H18  1  0.22038845  0.42696449  0.09846927  1  0  0.091306  0  0.965296  0  0  0.098747  0  1.035667  0  0  0.101935  0  1.032875  0  0  0.096301  0.096437  0  1.037653  0
H  H19  1  0.27961583  0.90153351  0.57303901  1  0  0.091313  0  0.965242  0  0  0.098798  0  1.035591  0  0  0.101991  0  1.032783  0  0  0.09631  0.096487  0  1.037576  0
H  H20  1  0.77961061  0.57304338  0.90152913  1  0  0.091298  0  0.965255  0  0  0.098788  0  1.035599  0  0  0.101976  0  1.032803  0  0  0.096282  0.096472  0  1.037587  0
H  H21  1  0.72038960  0.09846678  0.42695401  1  0  0.091315  0  0.965342  0  0  0.098792  0  1.035686  0  0  0.101984  0  1.032887  0  0  0.096291  0.096476  0  1.037674  0
H  H22  1  0.47031482  0.33491431  0.15436304  1  0  0.107657  0  0.957969  0  0  0.117954  0  1.02301  0  0  0.120135  0  1.022953  0  0  0.103539  0.116301  0  1.023249  0
H  H23  1  0.02968337  0.84563744  0.66509213  1  0  0.107656  0  0.957902  0  0  0.11802  0  1.022863  0  0  0.120224  0  1.022778  0  0  0.103573  0.116361  0  1.023106  0
H  H24  1  0.52967301  0.66508788  0.84563508  1  0  0.107665  0  0.957952  0  0  0.117982  0  1.022954  0  0  0.120163  0  1.022897  0  0  0.103552  0.116342  0  1.023179  0
H  H25  1  0.97033290  0.15435717  0.33490821  1  0  0.107611  0  0.957955  0  0  0.117978  0  1.022908  0  0  0.120222  0  1.022777  0  0  0.103537  0.11632  0  1.023153  0
H  H26  1  0.71032544  0.24613452  0.21643234  1  0  0.11349  0  0.969554  0  0  0.132442  0  1.033718  0  0  0.13325  0  1.034511  0  0  0.088676  0.13179  0  1.033227  0
H  H27  1  0.78966151  0.78356776  0.75387328  1  0  0.113493  0  0.969503  0  0  0.132462  0  1.033648  0  0  0.133262  0  1.034449  0  0  0.088672  0.131808  0  1.033157  0
H  H28  1  0.28966148  0.75386515  0.78356307  1  0  0.113472  0  0.969636  0  0  0.132433  0  1.033771  0  0  0.133214  0  1.034594  0  0  0.088678  0.131779  0  1.033281  0
H  H29  1  0.21034815  0.21643034  0.24613368  1  0  0.113485  0  0.969567  0  0  0.132417  0  1.033752  0  0  0.133215  0  1.034554  0  0  0.088645  0.131764  0  1.033262  0
H  H30  1  0.89459331  0.33349054  0.31359273  1  0  0.106571  0  0.942083  0  0  0.129452  0  0.998856  0  0  0.130613  0  0.998858  0  0  0.090683  0.128633  0  0.998826  0
H  H31  1  0.60539420  0.68640884  0.66650884  1  0  0.10653  0  0.942075  0  0  0.129426  0  0.99883  0  0  0.130588  0  0.998829  0  0  0.090684  0.128608  0  0.9988  0
H  H32  1  0.10539101  0.66650916  0.68640316  1  0  0.106501  0  0.942088  0  0  0.129369  0  0.998871  0  0  0.13053  0  0.998869  0  0  0.090665  0.128551  0  0.998842  0
H  H33  1  0.39461380  0.31359162  0.33349251  1  0  0.106496  0  0.942061  0  0  0.129393  0  0.998809  0  0  0.130554  0  0.998807  0  0  0.090677  0.128574  0  0.99878  0
H  H34  1  0.90838883  0.30305893  0.17495574  1  0  0.105229  0  0.969283  0  0  0.123669  0  1.038319  0  0  0.124057  0  1.039171  0  0  0.083526  0.123333  0  1.037757  0
H  H35  1  0.59161213  0.82504661  0.69693885  1  0  0.105315  0  0.969252  0  0  0.123702  0  1.038342  0  0  0.124092  0  1.039192  0  0  0.083547  0.123366  0  1.03778  0
H  H36  1  0.09160947  0.69693991  0.82504345  1  0  0.105318  0  0.969265  0  0  0.123707  0  1.038347  0  0  0.1241  0  1.039191  0  0  0.083556  0.123372  0  1.037785  0
H  H37  1  0.40839257  0.17495560  0.30306621  1  0  0.105278  0  0.969261  0  0  0.123668  0  1.038339  0  0  0.124058  0  1.039185  0  0  0.083557  0.123333  0  1.037779  0
C  C38  1  0.62423289  0.61091120  0.14798997  1  0  0.195774  0  3.769782  0  0  0.192001  0  4.006039  0  0  0.19774  0  4.029205  0  0  0.103507  0.188199  0  3.990393  0
C  C39  1  0.87576672  0.85201049  0.38908751  1  0  0.195889  0  3.769597  0  0  0.191982  0  4.005958  0  0  0.197721  0  4.029121  0  0  0.103514  0.188181  0  3.990312  0
C  C40  1  0.37576631  0.38909021  0.85201432  1  0  0.19586  0  3.769654  0  0  0.19205  0  4.005918  0  0  0.197791  0  4.02908  0  0  0.103543  0.188249  0  3.990269  0
C  C41  1  0.12422648  0.14798497  0.61090597  1  0  0.19604  0  3.769352  0  0  0.192091  0  4.005823  0  0  0.19783  0  4.028986  0  0  0.103498  0.188288  0  3.990173  0
C  C42  1  0.39220310  0.69693892  0.08855326  1  0  0.143004  0  3.718994  0  0  0.108625  0  3.975688  0  0  0.118564  0  3.991887  0  0  0.048254  0.102291  0  3.964433  0
C  C43  1  0.10780071  0.91144211  0.30306232  1  0  0.142938  0  3.719083  0  0  0.108596  0  3.975709  0  0  0.118537  0  3.991902  0  0  0.048267  0.10226  0  3.964458  0
C  C44  1  0.60780124  0.30306566  0.91144714  1  0  0.142886  0  3.719126  0  0  0.10847  0  3.975759  0  0  0.118407  0  3.991958  0  0  0.048178  0.102134  0  3.964512  0
C  C45  1  0.89219591  0.08855923  0.69693764  1  0  0.142876  0  3.71907  0  0  0.108514  0  3.975675  0  0  0.118453  0  3.99187  0  0  0.04823  0.102176  0  3.964422  0
C  C46  1  0.50082829  0.50790681  0.13965725  1  0  0.023421  0  3.79737  0  0  0.04364  0  4.023327  0  0  0.040418  0  4.048335  0  0  -0.00608  0.045535  0  4.006537  0
C  C47  1  0.99917430  0.86034198  0.49209671  1  0  0.023283  0  3.797343  0  0  0.043678  0  4.02315  0  0  0.040454  0  4.048163  0  0  -0.006157  0.045572  0  4.006358  0
C  C48  1  0.49917346  0.49209769  0.86033882  1  0  0.023377  0  3.797199  0  0  0.04369  0  4.023056  0  0  0.040467  0  4.048061  0  0  -0.00615  0.045583  0  4.006268  0
C  C49  1  0.00082020  0.13965347  0.50789693  1  0  0.023168  0  3.79718  0  0  0.043507  0  4.023135  0  0  0.040281  0  4.048161  0  0  -0.006143  0.045404  0  4.006337  0
C  C50  1  0.86662285  0.52234237  0.21072064  1  0  -0.105584  0  3.733296  0  0  -0.123667  0  3.97435  0  0  -0.125299  0  3.995566  0  0  -0.087535  -0.122288  0  3.959796  0
C  C51  1  0.63338565  0.78928089  0.47765888  1  0  -0.105441  0  3.733222  0  0  -0.12351  0  3.974263  0  0  -0.125147  0  3.995474  0  0  -0.087427  -0.122131  0  3.959708  0
C  C52  1  0.13337828  0.47766052  0.78927682  1  0  -0.105408  0  3.733158  0  0  -0.123431  0  3.974208  0  0  -0.125069  0  3.995425  0  0  -0.087413  -0.122054  0  3.959652  0
C  C53  1  0.36662325  0.21072213  0.52234678  1  0  -0.105436  0  3.733204  0  0  -0.123504  0  3.974248  0  0  -0.12514  0  3.995459  0  0  -0.08744  -0.122127  0  3.959695  0
C  C54  1  0.80855004  0.61541387  0.18481034  1  0  -0.145677  0  3.753166  0  0  -0.166396  0  4.008613  0  0  -0.170692  0  4.029804  0  0  -0.0967  -0.163544  0  3.994274  0
C  C55  1  0.69145909  0.81517947  0.38458121  1  0  -0.145787  0  3.753077  0  0  -0.166496  0  4.008577  0  0  -0.170788  0  4.029762  0  0  -0.096803  -0.163646  0  3.99424  0
C  C56  1  0.19145278  0.38458655  0.81518715  1  0  -0.145835  0  3.75308  0  0  -0.166572  0  4.008552  0  0  -0.170866  0  4.029741  0  0  -0.096792  -0.163721  0  3.99421  0
C  C57  1  0.30854165  0.18481203  0.61542171  1  0  -0.145798  0  3.752956  0  0  -0.166473  0  4.008472  0  0  -0.170766  0  4.029658  0  0  -0.096795  -0.163621  0  3.994133  0
C  C58  1  0.47389444  0.06093592  0.11868445  1  0  0.320319  0  3.973805  0  0  0.300186  0  4.271987  0  0  0.321367  0  4.286486  0  0  0.156558  0.285757  0  4.261904  0
C  C59  1  0.02610791  0.88133277  0.93905931  1  0  0.320357  0  3.973579  0  0  0.300205  0  4.271806  0  0  0.32139  0  4.286306  0  0  0.156562  0.285773  0  4.261721  0
C  C60  1  0.52609580  0.93905909  0.88132460  1  0  0.320385  0  3.973555  0  0  0.300233  0  4.271772  0  0  0.321419  0  4.286275  0  0  0.156638  0.285802  0  4.261684  0
C  C61  1  0.97387608  0.11866625  0.06094287  1  0  0.32033  0  3.974192  0  0  0.30018  0  4.272386  0  0  0.32136  0  4.28688  0  0  0.156497  0.285751  0  4.262308  0
C  C62  1  0.74636519  0.41905206  0.20084520  1  0  0.149012  0  3.772067  0  0  0.176797  0  4.006059  0  0  0.176104  0  4.032164  0  0  -0.004975  0.177094  0  3.988307  0
C  C63  1  0.75363943  0.79915183  0.58094570  1  0  0.148776  0  3.772139  0  0  0.176587  0  4.00611  0  0  0.175888  0  4.032232  0  0  -0.005052  0.176885  0  3.988355  0
C  C64  1  0.25363043  0.58095013  0.79915551  1  0  0.149041  0  3.772026  0  0  0.176752  0  4.006111  0  0  0.176053  0  4.032229  0  0  -0.004947  0.177049  0  3.98836  0
C  C65  1  0.24637003  0.20084197  0.41905291  1  0  0.148824  0  3.772103  0  0  0.176606  0  4.006109  0  0  0.175904  0  4.032242  0  0  -0.005012  0.176904  0  3.988356  0
C  C66  1  0.26230996  0.59937248  0.08079029  1  0  -0.132623  0  3.761779  0  0  -0.143208  0  4.013941  0  0  -0.151244  0  4.035875  0  0  -0.093632  -0.13806  0  3.999143  0
C  C67  1  0.23769121  0.91921144  0.40063229  1  0  -0.132606  0  3.762047  0  0  -0.143189  0  4.014237  0  0  -0.151232  0  4.036164  0  0  -0.093648  -0.138042  0  3.999441  0
C  C68  1  0.73768728  0.40063045  0.91920749  1  0  -0.13253  0  3.762182  0  0  -0.143096  0  4.014345  0  0  -0.151142  0  4.03628  0  0  -0.093599  -0.13795  0  3.999547  0
C  C69  1  0.76230807  0.08078662  0.59936936  1  0  -0.132484  0  3.761988  0  0  -0.143084  0  4.014168  0  0  -0.151127  0  4.036097  0  0  -0.0936  -0.137938  0  3.99937  0
C  C70  1  0.31642114  0.50484961  0.10551919  1  0  -0.043741  0  3.703221  0  0  -0.068116  0  3.949564  0  0  -0.064466  0  3.966526  0  0  -0.065752  -0.070218  0  3.937963  0
C  C71  1  0.18358240  0.89447618  0.49515284  1  0  -0.043798  0  3.703391  0  0  -0.068256  0  3.949674  0  0  -0.064602  0  3.966635  0  0  -0.065759  -0.070355  0  3.93807  0
C  C72  1  0.68358221  0.49515576  0.89447955  1  0  -0.043783  0  3.703399  0  0  -0.068235  0  3.949704  0  0  -0.064582  0  3.966666  0  0  -0.065691  -0.07033  0  3.938096  0
C  C73  1  0.81641147  0.10551775  0.50484620  1  0  -0.043763  0  3.703268  0  0  -0.068191  0  3.949588  0  0  -0.064542  0  3.966549  0  0  -0.065733  -0.070284  0  3.937977  0
C  C74  1  0.56585808  0.41341366  0.16507176  1  0  -0.164427  0  3.696246  0  0  -0.192763  0  3.937023  0  0  -0.196432  0  3.960158  0  0  -0.089449  -0.190049  0  3.921421  0
C  C75  1  0.93415056  0.83492905  0.58659256  1  0  -0.164212  0  3.696045  0  0  -0.192662  0  3.936797  0  0  -0.196351  0  3.959923  0  0  -0.089404  -0.189942  0  3.921193  0
C  C76  1  0.43414017  0.58658835  0.83492208  1  0  -0.164472  0  3.696191  0  0  -0.192822  0  3.937002  0  0  -0.196489  0  3.960135  0  0  -0.089474  -0.190119  0  3.921391  0
C  C77  1  0.06586013  0.16506803  0.41340567  1  0  -0.164267  0  3.696305  0  0  -0.192678  0  3.937089  0  0  -0.196397  0  3.960197  0  0  -0.089444  -0.189961  0  3.921488  0
C  C78  1  0.81738792  0.31993785  0.22809344  1  0  -0.338452  0  3.727218  0  0  -0.416034  0  3.956328  0  0  -0.417828  0  3.966735  0  0  -0.243623  -0.414504  0  3.949125  0
C  C79  1  0.68260376  0.77190790  0.68006153  1  0  -0.338417  0  3.727031  0  0  -0.41598  0  3.956134  0  0  -0.417766  0  3.96654  0  0  -0.243603  -0.414451  0  3.948932  0
C  C80  1  0.18260092  0.68006344  0.77190154  1  0  -0.33841  0  3.727103  0  0  -0.415949  0  3.95632  0  0  -0.417719  0  3.966738  0  0  -0.243615  -0.414419  0  3.949114  0
C  C81  1  0.31740294  0.22809254  0.31993886  1  0  -0.338316  0  3.727006  0  0  -0.415847  0  3.956148  0  0  -0.417629  0  3.966555  0  0  -0.243576  -0.414317  0  3.948945  0
S  S82  1  0.53583215  0.99161655  0.21761098  1  0  -0.360914  0  2.184582  0  0  -0.326436  0  2.520708  0  0  -0.342209  0  2.511755  0  0  -0.134094  -0.31532  0  2.526583  0
S  S83  1  0.96417618  0.78240191  0.00837184  1  0  -0.360825  0  2.184564  0  0  -0.326348  0  2.520704  0  0  -0.342124  0  2.511748  0  0  -0.134085  -0.315232  0  2.526579  0
S  S84  1  0.46417009  0.00837922  0.78239965  1  0  -0.360865  0  2.184695  0  0  -0.326376  0  2.520829  0  0  -0.342149  0  2.511877  0  0  -0.134097  -0.315262  0  2.526704  0
S  S85  1  0.03583725  0.21760261  0.99162891  1  0  -0.360909  0  2.18435  0  0  -0.326414  0  2.520475  0  0  -0.342189  0  2.51152  0  0  -0.134072  -0.315294  0  2.526351  0
N  N86  1  0.43226366  0.11442075  0.04945070  1  0  -0.52616  0  2.870958  0  0  -0.469747  0  3.142318  0  0  -0.491302  0  3.152198  0  0  -0.384986  -0.455096  0  3.135422  0
N  N87  1  0.06773635  0.95056826  0.88556954  1  0  -0.526265  0  2.87074  0  0  -0.469827  0  3.14206  0  0  -0.491381  0  3.151928  0  0  -0.385021  -0.455172  0  3.135156  0
N  N88  1  0.56772941  0.88556436  0.95055873  1  0  -0.526288  0  2.870647  0  0  -0.46986  0  3.141979  0  0  -0.491413  0  3.151843  0  0  -0.385094  -0.455205  0  3.135075  0
N  N89  1  0.93226105  0.04944200  0.11442483  1  0  -0.526114  0  2.871546  0  0  -0.469701  0  3.142889  0  0  -0.491254  0  3.152764  0  0  -0.384942  -0.45505  0  3.135996  0
N  N90  1  0.56629921  0.70332974  0.12093010  1  0  -0.376482  0  3.236519  0  0  -0.302595  0  3.496143  0  0  -0.322731  0  3.514789  0  0  -0.325197  -0.288845  0  3.482952  0
N  N91  1  0.93370219  0.87906389  0.29666749  1  0  -0.376488  0  3.236516  0  0  -0.302576  0  3.496146  0  0  -0.322712  0  3.514793  0  0  -0.325167  -0.288826  0  3.482957  0
N  N92  1  0.43369649  0.29666910  0.87906796  1  0  -0.376449  0  3.23643  0  0  -0.302534  0  3.496028  0  0  -0.322672  0  3.51468  0  0  -0.325164  -0.288777  0  3.48282  0
N  N93  1  0.06630109  0.12093075  0.70332961  1  0  -0.376486  0  3.236272  0  0  -0.302566  0  3.495941  0  0  -0.322699  0  3.514582  0  0  -0.325148  -0.288824  0  3.482774  0
