# generated using pymatgen
data_ZnH15C19N2O7
_symmetry_space_group_name_H-M   'P 1'
_cell_length_a   15.84987441
_cell_length_b   17.42330671
_cell_length_c   18.42051716
_cell_angle_alpha   91.40873314
_cell_angle_beta   89.99923929
_cell_angle_gamma   90.00480184
_symmetry_Int_Tables_number   1
_chemical_formula_structural   ZnH15C19N2O7
_chemical_formula_sum   'Zn8 H120 C152 N16 O56'
_cell_volume   5085.42133804
_cell_formula_units_Z   8
loop_
 _symmetry_equiv_pos_site_id
 _symmetry_equiv_pos_as_xyz
  1  'x, y, z'
loop_
 _atom_site_type_symbol
 _atom_site_label
 _atom_site_symmetry_multiplicity
 _atom_site_fract_x
 _atom_site_fract_y
 _atom_site_fract_z
 _atom_site_occupancy
 _atom_site_pbe_bader_charge
 _atom_site_pbe_bader_spin_density
 _atom_site_pbe_cm5_charge
 _atom_site_pbe_ddec_charge
 _atom_site_pbe_ddec_spin_density
 _atom_site_pbe_ddec_sum_bond_order
 _atom_site_pbe_magmom
Zn  Zn0  1  0.43973429  0.67555003  0.16189152  1  1.304404  0  0.704905  0.844696  0  2.353154  0
Zn  Zn1  1  0.93977846  0.82458751  0.83821218  1  1.304631  0  0.70489  0.844217  0  2.352645  0
Zn  Zn2  1  0.56033641  0.32463613  0.83811651  1  1.30419  0  0.704376  0.844751  0  2.348767  0
Zn  Zn3  1  0.06031936  0.17527034  0.16186564  1  1.304132  0  0.704628  0.844282  0  2.350934  0
Zn  Zn4  1  0.46933068  0.16845660  0.39156149  1  1.28987  0  0.694568  0.849971  0  2.334951  0
Zn  Zn5  1  0.96942242  0.33136495  0.60827931  1  1.290336  0  0.694268  0.850046  0  2.333667  0
Zn  Zn6  1  0.53068513  0.83155073  0.60821293  1  1.288888  0  0.694605  0.850209  0  2.333807  0
Zn  Zn7  1  0.03060285  0.66871781  0.39168136  1  1.290396  0  0.694195  0.850174  0  2.33275  0
H  H8  1  0.12651012  0.19954157  0.76799014  1  0.511541  0  0.301361  0.269797  0  1.018176  0
H  H9  1  0.62625709  0.30021426  0.23217028  1  0.506327  0  0.301591  0.269809  0  1.018586  0
H  H10  1  0.87380095  0.80047471  0.23205375  1  0.510385  0  0.301365  0.270392  0  1.018403  0
H  H11  1  0.37361107  0.69971541  0.76796342  1  0.507969  0  0.301458  0.270142  0  1.017544  0
H  H12  1  0.35425233  0.87400550  0.53660163  1  0.521593  0  0.298906  0.268992  0  1.025251  0
H  H13  1  0.85424204  0.62622346  0.46325337  1  0.517948  0  0.299309  0.269512  0  1.024879  0
H  H14  1  0.64573257  0.12608176  0.46328260  1  0.5198  0  0.299107  0.26928  0  1.025645  0
H  H15  1  0.14581414  0.37373927  0.53666772  1  0.518068  0  0.299184  0.269327  0  1.025752  0
H  H16  1  0.28485343  0.25015759  0.25427116  1  0.120724  0  0.119658  0.137512  0  0.983216  0
H  H17  1  0.78484880  0.24965502  0.74557234  1  0.120945  0  0.1198  0.137498  0  0.983461  0
H  H18  1  0.71523746  0.74990685  0.74573037  1  0.11977  0  0.119758  0.137534  0  0.983464  0
H  H19  1  0.21529318  0.75029806  0.25443920  1  0.119189  0  0.119636  0.137335  0  0.983376  0
H  H20  1  0.92379463  0.09491409  0.07754335  1  0.143577  0  0.127218  0.112154  0  0.987411  0
H  H21  1  0.42369908  0.40488341  0.92238154  1  0.142242  0  0.127202  0.112018  0  0.987224  0
H  H22  1  0.07631203  0.90493144  0.92230674  1  0.141936  0  0.127176  0.112078  0  0.987642  0
H  H23  1  0.57607382  0.59506228  0.07770746  1  0.143627  0  0.127214  0.112109  0  0.986954  0
H  H24  1  0.90262952  0.05420566  0.94715480  1  0.118813  0  0.111156  0.118404  0  1.010438  0
H  H25  1  0.40234144  0.44555378  0.05277170  1  0.123683  0  0.111503  0.118855  0  1.009928  0
H  H26  1  0.09763928  0.94570415  0.05266740  1  0.122665  0  0.11131  0.118448  0  1.010479  0
H  H27  1  0.59729075  0.55431844  0.94733412  1  0.123204  0  0.111378  0.118758  0  1.009474  0
H  H28  1  0.00533652  0.10039116  0.85365040  1  0.09942  0  0.107401  0.10498  0  1.026107  0
H  H29  1  0.50485274  0.39928711  0.14636642  1  0.099457  0  0.107285  0.104615  0  1.026784  0
H  H30  1  0.99504206  0.89954002  0.14628519  1  0.100019  0  0.107467  0.105231  0  1.026487  0
H  H31  1  0.49478955  0.60064313  0.85376946  1  0.100135  0  0.10767  0.105407  0  1.026212  0
H  H32  1  0.13417175  0.25732297  0.87651894  1  0.061205  0  0.127468  0.115747  0  0.936229  0
H  H33  1  0.63366560  0.24239567  0.12367242  1  0.114193  0  0.127456  0.116064  0  0.936001  0
H  H34  1  0.86612354  0.74269620  0.12354456  1  0.061626  0  0.127391  0.115872  0  0.935958  0
H  H35  1  0.36603410  0.75753975  0.87647878  1  0.114727  0  0.127449  0.116139  0  0.936157  0
H  H36  1  0.20828519  0.18805346  0.90542390  1  0.076638  0  0.12092  0.1035  0  0.947391  0
H  H37  1  0.70790539  0.31153221  0.09470701  1  0.082895  0  0.120937  0.103417  0  0.947036  0
H  H38  1  0.79195648  0.81193645  0.09465686  1  0.080859  0  0.120956  0.10349  0  0.947096  0
H  H39  1  0.29179557  0.68834862  0.90539086  1  0.078997  0  0.120875  0.103485  0  0.947413  0
H  H40  1  0.14609648  0.11137602  0.68109603  1  0.035249  0  0.105588  0.094059  0  0.973521  0
H  H41  1  0.64601994  0.38846025  0.31909350  1  0.03258  0  0.105559  0.094144  0  0.973197  0
H  H42  1  0.85400764  0.88859437  0.31898375  1  0.033873  0  0.10568  0.093952  0  0.973554  0
H  H43  1  0.35390501  0.61145164  0.68104578  1  0.033723  0  0.105603  0.094087  0  0.972996  0
H  H44  1  0.22060259  0.45042458  0.13211587  1  0.133324  0  0.116792  0.127726  0  0.985809  0
H  H45  1  0.72085761  0.04951126  0.86801786  1  0.134085  0  0.116815  0.127609  0  0.985959  0
H  H46  1  0.77924223  0.54964918  0.86801234  1  0.134251  0  0.11681  0.127751  0  0.985889  0
H  H47  1  0.27931403  0.95053269  0.13212599  1  0.134007  0  0.116929  0.127885  0  0.985466  0
H  H48  1  0.44274274  0.45113175  0.26733342  1  0.119226  0  0.113478  0.11719  0  1.012726  0
H  H49  1  0.94293486  0.04881921  0.73275465  1  0.122001  0  0.113651  0.117644  0  1.011944  0
H  H50  1  0.55715445  0.54904707  0.73278193  1  0.118226  0  0.113536  0.117133  0  1.012231  0
H  H51  1  0.05728283  0.95115246  0.26743700  1  0.119955  0  0.113548  0.117311  0  1.012485  0
H  H52  1  0.37471679  0.03384423  0.44617294  1  0.130859  0  0.119151  0.091613  0  1.03088  0
H  H53  1  0.87491558  0.46618821  0.55365979  1  0.131374  0  0.11915  0.091826  0  1.030154  0
H  H54  1  0.62522898  0.96614260  0.55374434  1  0.131513  0  0.119142  0.091671  0  1.030775  0
H  H55  1  0.12522137  0.53387382  0.44624070  1  0.131831  0  0.119162  0.091763  0  1.030027  0
H  H56  1  0.43175799  0.84435911  0.29820541  1  0.11117  0  0.112593  0.121983  0  1.008038  0
H  H57  1  0.93198871  0.65563282  0.70169010  1  0.111378  0  0.112743  0.121719  0  1.007886  0
H  H58  1  0.56800545  0.15564658  0.70164008  1  0.111523  0  0.112545  0.121499  0  1.00843  0
H  H59  1  0.06808956  0.34442122  0.29824550  1  0.112147  0  0.112673  0.121907  0  1.007795  0
H  H60  1  0.14104935  0.21452939  0.02797327  1  0.0986  0  0.125286  0.100798  0  0.988664  0
H  H61  1  0.64089664  0.28531666  0.97213757  1  0.098392  0  0.125369  0.10053  0  0.988972  0
H  H62  1  0.85901945  0.78550468  0.97208078  1  0.100183  0  0.125334  0.100794  0  0.988249  0
H  H63  1  0.35884470  0.71464061  0.02803637  1  0.098618  0  0.125379  0.100811  0  0.988809  0
H  H64  1  0.71058791  0.26455286  0.45787110  1  0.104807  0  0.117651  0.126775  0  0.985189  0
H  H65  1  0.21073395  0.23487829  0.54199861  1  0.10438  0  0.117894  0.126915  0  0.985045  0
H  H66  1  0.28933957  0.73551617  0.54212726  1  0.105893  0  0.117666  0.126818  0  0.985198  0
H  H67  1  0.78926356  0.76500224  0.45783597  1  0.106283  0  0.117813  0.127081  0  0.984846  0
H  H68  1  0.96328050  0.26690359  0.37330873  1  0.111216  0  0.113528  0.119968  0  1.00965  0
H  H69  1  0.46335577  0.23265942  0.62681546  1  0.111077  0  0.113503  0.120203  0  1.009537  0
H  H70  1  0.03669745  0.73319315  0.62682271  1  0.111941  0  0.113541  0.120035  0  1.009927  0
H  H71  1  0.53666760  0.76720964  0.37302429  1  0.112022  0  0.113598  0.120172  0  1.009451  0
H  H72  1  0.75851233  0.18960378  0.23648261  1  0.109706  0  0.114334  0.120398  0  0.996388  0
H  H73  1  0.25843363  0.30986669  0.76342342  1  0.116435  0  0.11432  0.120591  0  0.996313  0
H  H74  1  0.24156342  0.81047331  0.76353494  1  0.108753  0  0.114447  0.120348  0  0.996124  0
H  H75  1  0.74162002  0.68992316  0.23643738  1  0.112335  0  0.114394  0.120457  0  0.996305  0
H  H76  1  0.27921399  0.87200913  0.39209407  1  0.115219  0  0.119287  0.105683  0  0.965585  0
H  H77  1  0.77954607  0.62824026  0.60785576  1  0.111863  0  0.119426  0.105957  0  0.964776  0
H  H78  1  0.72056207  0.12810630  0.60783475  1  0.11331  0  0.119334  0.105777  0  0.965504  0
H  H79  1  0.22053472  0.37176959  0.39210112  1  0.112175  0  0.119352  0.105808  0  0.965508  0
H  H80  1  0.36911749  0.82078417  0.42182613  1  0.124995  0  0.124689  0.113363  0  0.94139  0
H  H81  1  0.86951781  0.67927500  0.57798602  1  0.092019  0  0.124956  0.113787  0  0.941615  0
H  H82  1  0.63062892  0.17922323  0.57801723  1  0.087352  0  0.124793  0.113443  0  0.941601  0
H  H83  1  0.13051503  0.32077728  0.42192620  1  0.089164  0  0.124763  0.11369  0  0.941609  0
H  H84  1  0.25547040  0.08877871  0.57714640  1  0.047703  0  0.094261  0.095249  0  1.007562  0
H  H85  1  0.75562189  0.41112284  0.42292164  1  0.045105  0  0.09425  0.094899  0  1.007278  0
H  H86  1  0.74447600  0.91119791  0.42287326  1  0.047641  0  0.094266  0.095244  0  1.007447  0
H  H87  1  0.24440085  0.58880845  0.57711927  1  0.046455  0  0.094295  0.095071  0  1.006805  0
H  H88  1  0.35366614  0.04639300  0.59857838  1  -0.000602  0  0.089533  0.088206  0  0.986871  0
H  H89  1  0.85379428  0.45349069  0.40133767  1  -0.002626  0  0.089141  0.087571  0  0.987064  0
H  H90  1  0.64629225  0.95355708  0.40132886  1  -0.001316  0  0.089451  0.088123  0  0.987097  0
H  H91  1  0.14621016  0.54641527  0.59863862  1  -0.002278  0  0.089136  0.087632  0  0.987113  0
H  H92  1  0.28163685  0.92409146  0.62552374  1  0.022609  0  0.097325  0.072111  0  1.009763  0
H  H93  1  0.78180967  0.57582802  0.37441287  1  0.025286  0  0.097401  0.072594  0  1.008672  0
H  H94  1  0.71830324  0.07586846  0.37445428  1  0.022326  0  0.097284  0.07188  0  1.009909  0
H  H95  1  0.21818973  0.42408594  0.62554079  1  0.024716  0  0.097284  0.072425  0  1.009012  0
H  H96  1  0.12701433  0.90847433  0.60658721  1  0.066497  0  0.093187  0.094791  0  0.992041  0
H  H97  1  0.62722469  0.59156176  0.39338206  1  0.067159  0  0.093125  0.094728  0  0.991481  0
H  H98  1  0.87284689  0.09156776  0.39345182  1  0.066727  0  0.093201  0.094725  0  0.991767  0
H  H99  1  0.37275577  0.40836962  0.60673648  1  0.067241  0  0.093208  0.094599  0  0.991675  0
H  H100  1  0.11862297  0.00547729  0.58203076  1  0.064407  0  0.102664  0.110085  0  0.962838  0
H  H101  1  0.61872646  0.49459815  0.41809141  1  0.06396  0  0.102398  0.110135  0  0.962576  0
H  H102  1  0.88132847  0.99458900  0.41808915  1  0.063465  0  0.10261  0.110392  0  0.962348  0
H  H103  1  0.38131835  0.50532921  0.58202433  1  0.066238  0  0.102342  0.109694  0  0.962326  0
H  H104  1  0.30187091  0.12599511  0.70271068  1  0.039342  0  0.086428  0.080207  0  1.034866  0
H  H105  1  0.80181012  0.37376760  0.29735328  1  0.036338  0  0.086281  0.080318  0  1.034157  0
H  H106  1  0.69821113  0.87393151  0.29725684  1  0.038441  0  0.086286  0.080209  0  1.034472  0
H  H107  1  0.19808328  0.62613726  0.70266586  1  0.037471  0  0.08637  0.080371  0  1.033895  0
H  H108  1  0.30786051  0.02838542  0.72669316  1  0.009539  0  0.092045  0.088791  0  0.986134  0
H  H109  1  0.80782568  0.47135015  0.27327217  1  0.012323  0  0.092045  0.088487  0  0.986201  0
H  H110  1  0.69225435  0.97154233  0.27326570  1  0.011345  0  0.091999  0.088569  0  0.986305  0
H  H111  1  0.19208160  0.52854379  0.72673588  1  0.011396  0  0.091979  0.088503  0  0.986297  0
H  H112  1  0.53014813  0.07270915  0.27008382  1  0.124251  0  0.121927  0.096827  0  0.995021  0
H  H113  1  0.03013366  0.42721241  0.72987583  1  0.124679  0  0.122063  0.096702  0  0.99457  0
H  H114  1  0.46976294  0.92726044  0.72982168  1  0.125905  0  0.122088  0.096662  0  0.99518  0
H  H115  1  0.96999635  0.57285191  0.27001984  1  0.121579  0  0.122061  0.096827  0  0.994364  0
H  H116  1  0.51668499  0.93479604  0.22586257  1  0.12703  0  0.120742  0.131914  0  0.966683  0
H  H117  1  0.01677436  0.56512398  0.77407123  1  0.127236  0  0.121027  0.132182  0  0.966368  0
H  H118  1  0.48310368  0.06518783  0.77397864  1  0.12931  0  0.121018  0.132048  0  0.966478  0
H  H119  1  0.98336006  0.43493977  0.22583473  1  0.125501  0  0.120821  0.131929  0  0.966606  0
H  H120  1  0.07461659  0.98830547  0.71071645  1  0.05445  0  0.097611  0.103672  0  0.974939  0
H  H121  1  0.57456859  0.51156657  0.28943994  1  0.054064  0  0.097895  0.103986  0  0.974968  0
H  H122  1  0.92543012  0.01170860  0.28941371  1  0.054745  0  0.097743  0.103896  0  0.974727  0
H  H123  1  0.42528316  0.48831723  0.71073834  1  0.022905  0  0.098003  0.104281  0  0.974764  0
H  H124  1  0.17269438  0.94738428  0.73262446  1  0.044555  0  0.090007  0.089092  0  1.009864  0
H  H125  1  0.67264630  0.55244464  0.26738642  1  0.043137  0  0.090243  0.08956  0  1.009127  0
H  H126  1  0.82733214  0.05257000  0.26743433  1  0.045306  0  0.090071  0.089355  0  1.009537  0
H  H127  1  0.32714867  0.44746658  0.73267684  1  0.043642  0  0.090086  0.089356  0  1.009086  0
C  C128  1  0.16804768  0.30593205  0.16226835  1  1.536294  0  0.211393  0.545712  0  4.232342  0
C  C129  1  0.66815427  0.19401843  0.83769708  1  1.537519  0  0.211547  0.545406  0  4.233794  0
C  C130  1  0.83198263  0.69416165  0.83771699  1  1.535135  0  0.211393  0.545957  0  4.233267  0
C  C131  1  0.33212715  0.80619081  0.16240321  1  1.526426  0  0.212354  0.546836  0  4.232979  0
C  C132  1  0.24406385  0.34676676  0.19115234  1  -0.035397  0  -0.010072  -0.028687  0  3.98191  0
C  C133  1  0.74417149  0.15316814  0.80885141  1  -0.020889  0  -0.010191  -0.028271  0  3.982203  0
C  C134  1  0.75592672  0.65333508  0.80892058  1  -0.035244  0  -0.010546  -0.028952  0  3.982775  0
C  C135  1  0.25607523  0.84689706  0.19129888  1  -0.024898  0  -0.010532  -0.0293  0  3.983923  0
C  C136  1  0.29787348  0.30889726  0.23897729  1  0.034304  0  -0.059425  -0.081625  0  3.872131  0
C  C137  1  0.79792991  0.19095849  0.76092682  1  0.024131  0  -0.05947  -0.081597  0  3.872492  0
C  C138  1  0.70213980  0.69120110  0.76106733  1  0.03363  0  -0.059207  -0.081147  0  3.872316  0
C  C139  1  0.20226318  0.80902451  0.23913804  1  0.029633  0  -0.058959  -0.081009  0  3.871828  0
C  C140  1  0.92684112  0.20841332  0.23862376  1  1.541703  0  0.20678  0.555167  0  4.20838  0
C  C141  1  0.42665450  0.29109705  0.76149844  1  1.54622  0  0.207685  0.557081  0  4.207599  0
C  C142  1  0.07327878  0.79157604  0.76148684  1  1.543901  0  0.206612  0.554534  0  4.209891  0
C  C143  1  0.57334553  0.70884323  0.23837438  1  1.543034  0  0.206806  0.554951  0  4.209135  0
C  C144  1  0.86979366  0.30334762  0.49324537  1  1.55984  0  0.203959  0.543014  0  4.231929  0
C  C145  1  0.36996983  0.19610072  0.50675715  1  1.556638  0  0.203884  0.54236  0  4.231653  0
C  C146  1  0.13004801  0.69686952  0.50675845  1  1.565016  0  0.204059  0.543869  0  4.230456  0
C  C147  1  0.63008698  0.80376888  0.49305058  1  1.557145  0  0.203686  0.54225  0  4.232518  0
C  C148  1  0.83962153  0.27050507  0.42211849  1  -0.026647  0  -0.009749  -0.027017  0  3.978228  0
C  C149  1  0.33974086  0.22894975  0.57786785  1  -0.088526  0  -0.00942  -0.025639  0  3.975135  0
C  C150  1  0.16030406  0.72959843  0.57790995  1  -0.027099  0  -0.009688  -0.027171  0  3.977123  0
C  C151  1  0.66028315  0.77091181  0.42194079  1  -0.083513  0  -0.009526  -0.025597  0  3.975944  0
C  C152  1  0.96682325  0.11244383  0.03492967  1  0.473483  0  0.053246  0.087262  0  3.916793  0
C  C153  1  0.46667808  0.38735524  0.96502834  1  0.472184  0  0.053575  0.088025  0  3.916858  0
C  C154  1  0.03334713  0.88743106  0.96497916  1  0.472651  0  0.053554  0.087965  0  3.916475  0
C  C155  1  0.53309040  0.61261343  0.03507257  1  0.471258  0  0.054245  0.089232  0  3.915339  0
C  C156  1  0.95565789  0.09094031  0.96238906  1  -0.015635  0  -0.076701  -0.112783  0  3.971448  0
C  C157  1  0.45539215  0.40883250  0.03756469  1  -0.020378  0  -0.077334  -0.113983  0  3.970891  0
C  C158  1  0.04459514  0.90896039  0.03750025  1  -0.022225  0  -0.077201  -0.112924  0  3.970792  0
C  C159  1  0.54430629  0.59110460  0.96254583  1  -0.06765  0  -0.077383  -0.113777  0  3.971024  0
C  C160  1  0.01285982  0.11655125  0.91079553  1  -0.075938  0  -0.061083  -0.069786  0  3.913749  0
C  C161  1  0.51250055  0.38317822  0.08921945  1  -0.078193  0  -0.060923  -0.069178  0  3.913246  0
C  C162  1  0.98743990  0.88337822  0.08914871  1  -0.076043  0  -0.060811  -0.070262  0  3.913419  0
C  C163  1  0.48719221  0.61677843  0.91091267  1  -0.02305  0  -0.061643  -0.070865  0  3.914517  0
C  C164  1  0.08047893  0.16288438  0.93286515  1  0.016539  0  0.006581  0.064648  0  3.934345  0
C  C165  1  0.58015570  0.33686609  0.06720059  1  0.018393  0  0.006562  0.064937  0  3.933934  0
C  C166  1  0.91974192  0.83710545  0.06714449  1  0.017501  0  0.006596  0.064851  0  3.933989  0
C  C167  1  0.41955284  0.66309803  0.93294147  1  0.017525  0  0.006647  0.064901  0  3.933749  0
C  C168  1  0.14512695  0.19533901  0.88158515  1  0.377141  0  -0.041286  -0.047302  0  3.946737  0
C  C169  1  0.64472573  0.30435757  0.11854044  1  0.317336  0  -0.041527  -0.047719  0  3.945037  0
C  C170  1  0.85513365  0.80467383  0.11846898  1  0.372968  0  -0.041382  -0.047341  0  3.946068  0
C  C171  1  0.35498407  0.69557669  0.88158956  1  0.318726  0  -0.041502  -0.047831  0  3.94588  0
C  C172  1  0.17272040  0.09150659  0.79323587  1  1.402632  0  0.250488  0.47973  0  4.070988  0
C  C173  1  0.67249550  0.40822689  0.20687746  1  1.397457  0  0.250354  0.479397  0  4.072809  0
C  C174  1  0.82741023  0.90845516  0.20682418  1  1.40372  0  0.250162  0.479856  0  4.072032  0
C  C175  1  0.32724963  0.59173090  0.79324492  1  1.401333  0  0.249536  0.4777  0  4.073771  0
C  C176  1  0.18020168  0.06839212  0.71279826  1  0.0143  0  -0.078745  -0.09514  0  3.862482  0
C  C177  1  0.68011907  0.43141035  0.28732719  1  0.015966  0  -0.07865  -0.094358  0  3.859305  0
C  C178  1  0.81989298  0.93156102  0.28726593  1  0.015856  0  -0.078615  -0.094679  0  3.861605  0
C  C179  1  0.31976108  0.56850896  0.71278619  1  0.015545  0  -0.078839  -0.093934  0  3.858356  0
C  C180  1  0.35500795  0.53728436  0.17188091  1  1.55792  0  0.209808  0.546532  0  4.217156  0
C  C181  1  0.85532553  0.96284004  0.82832466  1  1.557939  0  0.209604  0.546643  0  4.216014  0
C  C182  1  0.64478767  0.46300019  0.82831984  1  1.558513  0  0.209622  0.54625  0  4.217295  0
C  C183  1  0.14481771  0.03708792  0.17180141  1  1.55993  0  0.209277  0.546281  0  4.217796  0
C  C184  1  0.26190751  0.42157473  0.17008413  1  -0.078396  0  -0.062228  -0.094354  0  3.905794  0
C  C185  1  0.76207827  0.07840263  0.83000429  1  -0.077015  0  -0.061963  -0.093945  0  3.906824  0
C  C186  1  0.73800483  0.57857080  0.83003971  1  -0.079592  0  -0.06227  -0.094258  0  3.907075  0
C  C187  1  0.23811292  0.92162754  0.17013979  1  -0.07961  0  -0.062353  -0.094216  0  3.906853  0
C  C188  1  0.38710544  0.42182073  0.24577063  1  0.017577  0  -0.058456  -0.081704  0  3.90089  0
C  C189  1  0.88728548  0.07815506  0.75425999  1  0.009139  0  -0.058321  -0.081472  0  3.898861  0
C  C190  1  0.61278229  0.57838506  0.75433446  1  0.014388  0  -0.058282  -0.080834  0  3.899964  0
C  C191  1  0.11291644  0.92183951  0.24587950  1  -0.042888  0  -0.058401  -0.081558  0  3.901763  0
C  C192  1  0.33374944  0.45887182  0.19716750  1  0.016573  0  -0.011907  -0.033165  0  3.984565  0
C  C193  1  0.83396114  0.04117683  0.80294744  1  0.021014  0  -0.011711  -0.033333  0  3.984642  0
C  C194  1  0.66610422  0.54135870  0.80298211  1  0.024916  0  -0.011886  -0.034005  0  3.986042  0
C  C195  1  0.16622122  0.95880626  0.19719722  1  0.016815  0  -0.011904  -0.033583  0  3.987023  0
C  C196  1  0.39587076  0.93134431  0.37887882  1  0.027899  0  0.004591  0.061135  0  3.929738  0
C  C197  1  0.89608610  0.56867251  0.62098388  1  0.087099  0  0.004874  0.060991  0  3.930289  0
C  C198  1  0.60396145  0.06866657  0.62098851  1  0.088365  0  0.004854  0.061037  0  3.930872  0
C  C199  1  0.10403697  0.43139756  0.37892005  1  0.046206  0  0.004601  0.061489  0  3.929633  0
C  C200  1  0.40608265  0.00856789  0.39873193  1  0.479332  0  0.050916  0.045304  0  3.893881  0
C  C201  1  0.90626378  0.49143235  0.60112840  1  0.481897  0  0.050524  0.044611  0  3.894256  0
C  C202  1  0.59381518  0.99142981  0.60115790  1  0.482576  0  0.050532  0.044826  0  3.894321  0
C  C203  1  0.09387632  0.50864403  0.39876536  1  0.480081  0  0.050629  0.044528  0  3.8941  0
C  C204  1  0.43698362  0.90443129  0.31598188  1  -0.066428  0  -0.058342  -0.081106  0  3.912564  0
C  C205  1  0.93718523  0.59555707  0.68390560  1  -0.124513  0  -0.058573  -0.080715  0  3.912357  0
C  C206  1  0.56279937  0.09557325  0.68386250  1  -0.124913  0  -0.058673  -0.081053  0  3.913355  0
C  C207  1  0.06294414  0.40451128  0.31599666  1  -0.083584  0  -0.058241  -0.080796  0  3.911489  0
C  C208  1  0.42818984  0.30512363  0.31613105  1  1.584  0  0.215969  0.566398  0  4.20913  0
C  C209  1  0.92810457  0.19474066  0.68362013  1  1.5859  0  0.215231  0.565019  0  4.210676  0
C  C210  1  0.57196919  0.69501702  0.68373753  1  1.582398  0  0.216122  0.566843  0  4.210184  0
C  C211  1  0.07193269  0.80531341  0.31634479  1  1.581884  0  0.215712  0.56556  0  4.210766  0
C  C212  1  0.08820116  0.18067264  0.00679765  1  0.521398  0  0.059641  0.050853  0  3.892664  0
C  C213  1  0.58800457  0.31913994  0.99326000  1  0.523656  0  0.059289  0.050658  0  3.892774  0
C  C214  1  0.91193073  0.81929940  0.99322571  1  0.521566  0  0.059283  0.050627  0  3.893316  0
C  C215  1  0.41174245  0.68084771  0.00687608  1  0.518955  0  0.059498  0.051291  0  3.892164  0
C  C216  1  0.36948956  0.34672299  0.26597739  1  -0.070756  0  -0.009401  -0.030452  0  3.961427  0
C  C217  1  0.86955659  0.15317701  0.73391518  1  -0.077821  0  -0.009302  -0.030335  0  3.960337  0
C  C218  1  0.63049596  0.65343678  0.73405014  1  -0.071997  0  -0.009581  -0.030998  0  3.961641  0
C  C219  1  0.13062766  0.84680943  0.26614270  1  -0.015038  0  -0.009297  -0.029886  0  3.961405  0
C  C220  1  0.75393919  0.25385406  0.41285926  1  -0.018276  0  -0.062369  -0.090937  0  3.902133  0
C  C221  1  0.25403509  0.24555229  0.58705658  1  0.044304  0  -0.063049  -0.091866  0  3.903324  0
C  C222  1  0.24600659  0.74619431  0.58715331  1  -0.018732  0  -0.062575  -0.09112  0  3.902087  0
C  C223  1  0.74598513  0.75432076  0.41276534  1  0.043247  0  -0.062195  -0.091267  0  3.902141  0
C  C224  1  0.89632214  0.25613194  0.36528459  1  -0.024045  0  -0.0597  -0.083786  0  3.88762  0
C  C225  1  0.39637489  0.24336990  0.63475648  1  -0.023921  0  -0.059926  -0.084728  0  3.887351  0
C  C226  1  0.10366716  0.74394350  0.63479372  1  -0.025519  0  -0.059978  -0.084389  0  3.888046  0
C  C227  1  0.60364722  0.75649282  0.36506521  1  -0.028166  0  -0.060039  -0.084558  0  3.888046  0
C  C228  1  0.72449510  0.22471392  0.34612664  1  -0.023723  0  -0.016709  -0.048014  0  4.00592  0
C  C229  1  0.22450079  0.27466509  0.65376360  1  -0.032526  0  -0.016533  -0.048328  0  4.006218  0
C  C230  1  0.27551250  0.77529541  0.65388071  1  -0.023247  0  -0.016528  -0.047931  0  4.005912  0
C  C231  1  0.77553015  0.72521027  0.34606869  1  -0.029747  0  -0.016935  -0.048536  0  4.006967  0
C  C232  1  0.25801819  0.94877979  0.51366685  1  1.393414  0  0.248619  0.472311  0  4.079487  0
C  C233  1  0.75827654  0.55117150  0.48629999  1  1.376711  0  0.248708  0.472551  0  4.080898  0
C  C234  1  0.74178373  0.05112558  0.48630833  1  1.37825  0  0.248932  0.472673  0  4.07926  0
C  C235  1  0.24177271  0.44881484  0.51367862  1  1.377048  0  0.248825  0.472605  0  4.080203  0
C  C236  1  0.78085260  0.21241594  0.28862439  1  -0.033737  0  -0.064223  -0.098024  0  3.924855  0
C  C237  1  0.28079150  0.28699914  0.71131110  1  -0.03331  0  -0.064049  -0.097633  0  3.925094  0
C  C238  1  0.21920421  0.78763074  0.71140823  1  -0.033759  0  -0.064261  -0.097985  0  3.924402  0
C  C239  1  0.71924386  0.71283145  0.28852671  1  -0.03596  0  -0.064303  -0.098137  0  3.925039  0
C  C240  1  0.86680992  0.22699233  0.29852104  1  0.005357  0  -0.011591  -0.0322  0  3.989785  0
C  C241  1  0.36676299  0.27248560  0.70149288  1  0.002469  0  -0.012216  -0.033219  0  3.992161  0
C  C242  1  0.13325131  0.77305611  0.70154527  1  0.004809  0  -0.011629  -0.032153  0  3.990118  0
C  C243  1  0.63327805  0.72736450  0.29833885  1  0.00716  0  -0.011599  -0.031936  0  3.991089  0
C  C244  1  0.63367190  0.20391712  0.33592132  1  1.55428  0  0.214063  0.561579  0  4.220522  0
C  C245  1  0.13368155  0.29547385  0.66392237  1  1.556816  0  0.214093  0.562323  0  4.220823  0
C  C246  1  0.36635652  0.79602215  0.66407471  1  1.554431  0  0.214421  0.56252  0  4.219259  0
C  C247  1  0.86637527  0.70450836  0.33596604  1  1.557022  0  0.214491  0.562949  0  4.218149  0
C  C248  1  0.33981352  0.87788273  0.42105707  1  0.261155  0  -0.043094  -0.044696  0  3.922328  0
C  C249  1  0.84009134  0.62222558  0.57882565  1  0.29783  0  -0.04307  -0.044623  0  3.922374  0
C  C250  1  0.65999913  0.12215515  0.57882931  1  0.301121  0  -0.042802  -0.044231  0  3.92289  0
C  C251  1  0.15997494  0.37781467  0.42110313  1  0.300684  0  -0.042953  -0.044962  0  3.923742  0
C  C252  1  0.28588021  0.04639460  0.61179828  1  -0.007468  0  -0.161892  -0.165914  0  3.908814  0
C  C253  1  0.78598292  0.45348085  0.38819539  1  0.019673  0  -0.161147  -0.164378  0  3.907895  0
C  C254  1  0.71409332  0.95355038  0.38816910  1  0.017091  0  -0.161706  -0.16592  0  3.909283  0
C  C255  1  0.21400890  0.54644180  0.61181927  1  0.018898  0  -0.161301  -0.16483  0  3.907745  0
C  C256  1  0.24680417  0.96740738  0.59499279  1  0.009181  0  -0.08066  -0.087943  0  3.865862  0
C  C257  1  0.74696608  0.53251822  0.40496655  1  0.028891  0  -0.081024  -0.088808  0  3.865109  0
C  C258  1  0.75311826  0.03254853  0.40499383  1  0.028236  0  -0.080724  -0.087789  0  3.866816  0
C  C259  1  0.25304908  0.46741762  0.59502995  1  0.02788  0  -0.080944  -0.08877  0  3.865877  0
C  C260  1  0.15359997  0.96600163  0.61680669  1  -0.035856  0  -0.1585  -0.161086  0  3.899149  0
C  C261  1  0.65371581  0.53398351  0.38322650  1  -0.060726  0  -0.158145  -0.160779  0  3.898348  0
C  C262  1  0.84634328  0.03400432  0.38325814  1  -0.060594  0  -0.15831  -0.161006  0  3.897961  0
C  C263  1  0.34626781  0.46595415  0.61685744  1  -0.062452  0  -0.158102  -0.159899  0  3.897398  0
C  C264  1  0.27414398  0.06900640  0.69211281  1  -0.00814  0  -0.160825  -0.161088  0  3.911023  0
C  C265  1  0.77411706  0.43077792  0.30791749  1  -0.00879  0  -0.160827  -0.161034  0  3.909833  0
C  C266  1  0.72592734  0.93092140  0.30787699  1  -0.010202  0  -0.160607  -0.160688  0  3.910461  0
C  C267  1  0.22579337  0.56913211  0.69210884  1  -0.008254  0  -0.16087  -0.161364  0  3.909343  0
C  C268  1  0.49304154  0.03065155  0.29932598  1  0.452526  0  0.04978  0.082635  0  3.933751  0
C  C269  1  0.99310752  0.46928185  0.70058116  1  0.448344  0  0.04976  0.082976  0  3.933355  0
C  C270  1  0.50682915  0.96932433  0.70054871  1  0.448486  0  0.049642  0.083043  0  3.933804  0
C  C271  1  0.00704646  0.53079739  0.29931049  1  0.451786  0  0.049536  0.082266  0  3.933533  0
C  C272  1  0.48558760  0.95459297  0.27559173  1  -0.010059  0  -0.072216  -0.104564  0  3.967437  0
C  C273  1  0.98570126  0.54534921  0.72431717  1  -0.008223  0  -0.072424  -0.104874  0  3.966975  0
C  C274  1  0.51421937  0.04539722  0.72425559  1  -0.011753  0  -0.072284  -0.10453  0  3.967669  0
C  C275  1  0.01445145  0.45472774  0.27557551  1  -0.006527  0  -0.072201  -0.104446  0  3.966525  0
C  C276  1  0.14218806  0.98900430  0.69703436  1  -0.03401  0  -0.159183  -0.157898  0  3.899477  0
C  C277  1  0.64216791  0.51086045  0.30304079  1  -0.031843  0  -0.159694  -0.159404  0  3.899319  0
C  C278  1  0.85784541  0.01097297  0.30304394  1  -0.034862  0  -0.159483  -0.158712  0  3.898876  0
C  C279  1  0.35770466  0.48905484  0.69707251  1  -0.001403  0  -0.159505  -0.159244  0  3.898586  0
N  N280  1  0.03252648  0.15663774  0.05623226  1  -1.258663  0  -0.329081  -0.229906  0  3.646122  0
N  N281  1  0.53241212  0.34318991  0.94376122  1  -1.258309  0  -0.328696  -0.229774  0  3.645239  0
N  N282  1  0.96760288  0.84325217  0.94375888  1  -1.258827  0  -0.329212  -0.229998  0  3.648377  0
N  N283  1  0.46739673  0.65682238  0.05633089  1  -1.259757  0  -0.329408  -0.231131  0  3.646931  0
N  N284  1  0.14377280  0.16291908  0.80845304  1  -1.255632  0  -0.415573  -0.353654  0  3.568369  0
N  N285  1  0.64344641  0.33682676  0.19167576  1  -1.24696  0  -0.415358  -0.35381  0  3.568999  0
N  N286  1  0.85652439  0.83710524  0.19159482  1  -1.25378  0  -0.415347  -0.354512  0  3.56807  0
N  N287  1  0.35634162  0.66311897  0.80844961  1  -1.250425  0  -0.41493  -0.353296  0  3.567678  0
N  N288  1  0.45393758  0.05681410  0.36009180  1  -1.273712  0  -0.330187  -0.234909  0  3.609664  0
N  N289  1  0.95405945  0.44312726  0.63977497  1  -1.276927  0  -0.329454  -0.234944  0  3.607523  0
N  N290  1  0.54597223  0.94317270  0.63979670  1  -1.277443  0  -0.329952  -0.23482  0  3.608753  0
N  N291  1  0.04608507  0.55695831  0.36012170  1  -1.27753  0  -0.329324  -0.23467  0  3.607182  0
N  N292  1  0.32293242  0.90177028  0.49578326  1  -1.257019  0  -0.41924  -0.362641  0  3.56182  0
N  N293  1  0.82306366  0.59837271  0.50411154  1  -1.255686  0  -0.42009  -0.363913  0  3.562018  0
N  N294  1  0.67697424  0.09827223  0.50412439  1  -1.256847  0  -0.419806  -0.363274  0  3.561993  0
N  N295  1  0.17697549  0.40163712  0.49583014  1  -1.255711  0  -0.419894  -0.363623  0  3.562587  0
O  O296  1  0.16914439  0.23194319  0.16490013  1  -1.083679  0  -0.294639  -0.495066  0  2.279574  0
O  O297  1  0.66919134  0.26800108  0.83506955  1  -1.082674  0  -0.294576  -0.495223  0  2.279767  0
O  O298  1  0.83087269  0.76814179  0.83499816  1  -1.085629  0  -0.294318  -0.494744  0  2.280441  0
O  O299  1  0.33105097  0.73220814  0.16501011  1  -1.077219  0  -0.294763  -0.495436  0  2.282213  0
O  O300  1  0.00463555  0.22896161  0.24668312  1  -1.124094  0  -0.305508  -0.509937  0  2.240521  0
O  O301  1  0.50458085  0.27101345  0.75335113  1  -1.12541  0  -0.305639  -0.510585  0  2.24134  0
O  O302  1  0.99548120  0.77106100  0.75338154  1  -1.124574  0  -0.30529  -0.509514  0  2.241344  0
O  O303  1  0.49552203  0.72924662  0.24653367  1  -1.124154  0  -0.305247  -0.509783  0  2.242569  0
O  O304  1  0.95060233  0.30891521  0.50285287  1  -1.132456  0  -0.324002  -0.532862  0  2.235951  0
O  O305  1  0.45078328  0.19083187  0.49707136  1  -1.135516  0  -0.324108  -0.532953  0  2.234832  0
O  O306  1  0.04923998  0.69129276  0.49716215  1  -1.133964  0  -0.324  -0.533063  0  2.233985  0
O  O307  1  0.54927417  0.80910661  0.50272487  1  -1.132103  0  -0.324043  -0.533019  0  2.235247  0
O  O308  1  0.41689939  0.57283900  0.20370269  1  -1.112943  0  -0.305971  -0.506716  0  2.231039  0
O  O309  1  0.91716884  0.92733096  0.79639763  1  -1.114187  0  -0.306143  -0.506589  0  2.230576  0
O  O310  1  0.58299276  0.42740581  0.79639132  1  -1.113162  0  -0.306042  -0.506291  0  2.230599  0
O  O311  1  0.08298828  0.07259702  0.20374744  1  -1.113333  0  -0.306006  -0.506537  0  2.231037  0
O  O312  1  0.59509737  0.18034813  0.39328657  1  -1.164331  0  -0.310021  -0.54154  0  2.371599  0
O  O313  1  0.09516399  0.31919675  0.60658950  1  -1.164785  0  -0.310229  -0.542026  0  2.371542  0
O  O314  1  0.40491338  0.81965833  0.60672724  1  -1.164735  0  -0.31003  -0.541864  0  2.370643  0
O  O315  1  0.90485182  0.68077973  0.39331615  1  -1.164451  0  -0.310515  -0.542493  0  2.371013  0
O  O316  1  0.40876193  0.23433951  0.32598541  1  -1.138176  0  -0.314822  -0.530658  0  2.354168  0
O  O317  1  0.90878580  0.26556164  0.67387552  1  -1.137109  0  -0.314586  -0.530002  0  2.354947  0
O  O318  1  0.59143875  0.76577866  0.67381047  1  -1.137948  0  -0.314686  -0.530613  0  2.352671  0
O  O319  1  0.09121234  0.73449127  0.32608665  1  -1.135839  0  -0.314566  -0.530196  0  2.356152  0
O  O320  1  0.10676698  0.34302744  0.13800741  1  -1.036916  0  -0.261675  -0.440122  0  1.955954  0
O  O321  1  0.60687376  0.15687506  0.86191667  1  -1.038182  0  -0.261503  -0.439541  0  1.956127  0
O  O322  1  0.89330435  0.65710700  0.86196364  1  -1.034779  0  -0.261852  -0.440559  0  1.956482  0
O  O323  1  0.39337171  0.84334503  0.13813608  1  -1.034101  0  -0.261942  -0.44029  0  1.955786  0
O  O324  1  0.31469283  0.56492025  0.11991379  1  -1.037228  0  -0.260241  -0.43392  0  1.978523  0
O  O325  1  0.81520846  0.93522826  0.88040645  1  -1.038812  0  -0.260379  -0.434644  0  1.979439  0
O  O326  1  0.68494757  0.43544309  0.88041248  1  -1.038313  0  -0.259883  -0.433804  0  1.978632  0
O  O327  1  0.18490134  0.06462614  0.11966859  1  -1.039415  0  -0.260099  -0.434172  0  1.979903  0
O  O328  1  0.48953380  0.34034736  0.34386252  1  -1.052061  0  -0.262267  -0.438932  0  1.980282  0
O  O329  1  0.98925560  0.15943714  0.65566279  1  -1.049903  0  -0.261383  -0.437622  0  1.980251  0
O  O330  1  0.51068770  0.65977883  0.65591400  1  -1.049928  0  -0.262473  -0.43923  0  1.981272  0
O  O331  1  0.01074066  0.84066099  0.34418638  1  -1.050464  0  -0.261899  -0.438238  0  1.980322  0
O  O332  1  0.81718773  0.32441017  0.54061033  1  -1.069761  0  -0.272267  -0.45806  0  2.01748  0
O  O333  1  0.31740709  0.17474308  0.45945859  1  -1.065486  0  -0.27213  -0.457869  0  2.019313  0
O  O334  1  0.18261610  0.67589014  0.45932530  1  -1.071558  0  -0.272141  -0.458193  0  2.017716  0
O  O335  1  0.68268505  0.82507081  0.54033488  1  -1.0671  0  -0.272121  -0.457968  0  2.019722  0
O  O336  1  0.21182652  0.97819790  0.46747736  1  -1.034456  0  -0.246172  -0.390344  0  1.968432  0
O  O337  1  0.71228576  0.52158456  0.53252039  1  -1.036539  0  -0.246719  -0.391142  0  1.970121  0
O  O338  1  0.78778548  0.02153643  0.53253908  1  -1.036021  0  -0.246428  -0.390712  0  1.967967  0
O  O339  1  0.28776663  0.47842648  0.46747181  1  -1.03707  0  -0.247021  -0.391388  0  1.969497  0
O  O340  1  0.60001309  0.20814074  0.27456991  1  -1.137461  0  -0.292252  -0.507098  0  2.126085  0
O  O341  1  0.09999092  0.29114962  0.72525401  1  -1.13687  0  -0.291904  -0.507026  0  2.126777  0
O  O342  1  0.40001217  0.79168371  0.72541814  1  -1.137881  0  -0.292659  -0.507627  0  2.125049  0
O  O343  1  0.90015170  0.70894690  0.27468091  1  -1.138502  0  -0.29191  -0.507214  0  2.125504  0
O  O344  1  0.19484054  0.04728236  0.84178012  1  -1.043535  0  -0.254625  -0.403526  0  1.958586  0
O  O345  1  0.69460094  0.45243242  0.15833253  1  -1.041087  0  -0.255048  -0.403745  0  1.960853  0
O  O346  1  0.80514245  0.95262715  0.15828528  1  -1.042709  0  -0.254563  -0.403489  0  1.959656  0
O  O347  1  0.30498835  0.54760173  0.84180186  1  -1.043604  0  -0.254619  -0.403381  0  1.962185  0
O  O348  1  0.90232757  0.17178655  0.18265738  1  -1.100986  0  -0.280392  -0.488915  0  2.069656  0
O  O349  1  0.40186984  0.32728893  0.81761221  1  -1.102043  0  -0.281465  -0.490487  0  2.06743  0
O  O350  1  0.09782134  0.82808748  0.81750495  1  -1.102442  0  -0.280609  -0.488859  0  2.070384  0
O  O351  1  0.59791630  0.67245618  0.18229590  1  -1.102757  0  -0.280808  -0.489192  0  2.068714  0
