# generated using pymatgen
data_MnH8C6(NO3)2
_symmetry_space_group_name_H-M   'P 1'
_cell_length_a   7.49419779
_cell_length_b   10.87189280
_cell_length_c   12.06483568
_cell_angle_alpha   104.56426483
_cell_angle_beta   90.00040180
_cell_angle_gamma   90.00077829
_symmetry_Int_Tables_number   1
_chemical_formula_structural   MnH8C6(NO3)2
_chemical_formula_sum   'Mn4 H32 C24 N8 O24'
_cell_volume   951.40854095
_cell_formula_units_Z   4
loop_
 _symmetry_equiv_pos_site_id
 _symmetry_equiv_pos_as_xyz
  1  'x, y, z'
loop_
 _atom_site_type_symbol
 _atom_site_label
 _atom_site_symmetry_multiplicity
 _atom_site_fract_x
 _atom_site_fract_y
 _atom_site_fract_z
 _atom_site_occupancy
 _atom_site_hle17_ddec_charge
 _atom_site_hle17_ddec_spin_density
 _atom_site_hle17_ddec_sum_bond_order
 _atom_site_hle17_magmom
 _atom_site_hse06_10hf_ddec_charge
 _atom_site_hse06_10hf_ddec_spin_density
 _atom_site_hse06_10hf_ddec_sum_bond_order
 _atom_site_hse06_10hf_magmom
 _atom_site_hse06_ddec_charge
 _atom_site_hse06_ddec_spin_density
 _atom_site_hse06_ddec_sum_bond_order
 _atom_site_hse06_magmom
 _atom_site_pbe_cm5_charge
 _atom_site_pbe_ddec_charge
 _atom_site_pbe_ddec_spin_density
 _atom_site_pbe_ddec_sum_bond_order
 _atom_site_pbe_magmom
Mn  Mn0  1  0.99712865  0.43166900  0.18609390  1  1.218199  4.788812  1.761955  4.68  1.063143  4.709571  2.263847  4.536  1.114454  4.753658  2.196234  4.6  0.603543  1.025596  4.660834  2.312688  4.47
Mn  Mn1  1  0.49711761  0.06833164  0.31390249  1  1.218264  4.788791  1.761886  4.68  1.063193  4.709566  2.26384  4.536  1.114505  4.753654  2.196221  4.6  0.603546  1.025642  4.66082  2.312679  4.47
Mn  Mn2  1  0.00287486  0.56833620  0.81390267  1  1.218262  4.788824  1.761796  4.68  1.063131  4.709596  2.263833  4.536  1.114447  4.753674  2.196217  4.6  0.603564  1.025577  4.660867  2.312675  4.47
Mn  Mn3  1  0.50288323  0.93167643  0.68610383  1  1.218268  4.788763  1.761948  4.68  1.063211  4.709563  2.263861  4.536  1.114522  4.753653  2.196243  4.6  0.603522  1.025657  4.660813  2.312703  4.469
H  H4  1  0.79931856  0.53546595  0.04682573  1  0.427777  -0.000576  0.878413  0.001  0.393193  0.000251  0.947139  0.002  0.404661  -6.6e-05  0.93054  0.001  0.29682  0.385226  0.000555  0.958619  0.002
H  H5  1  0.29931548  0.96453233  0.45317874  1  0.427851  -0.000577  0.878323  0.001  0.393232  0.000251  0.947102  0.002  0.4047  -6.6e-05  0.930503  0.001  0.296814  0.385263  0.000556  0.958584  0.002
H  H6  1  0.20068629  0.46453450  0.95317391  1  0.427746  -0.000577  0.878397  0.001  0.393172  0.000251  0.947112  0.002  0.404638  -6.6e-05  0.930516  0.001  0.296793  0.385204  0.000555  0.958594  0.002
H  H7  1  0.70068670  0.03546623  0.54682379  1  0.427796  -0.000576  0.878383  0.001  0.393202  0.000251  0.947131  0.002  0.404669  -6.6e-05  0.930533  0.001  0.296823  0.385235  0.000556  0.958611  0.002
H  H8  1  0.66171637  0.51165147  0.14035449  1  0.424347  0.000135  0.814596  0.001  0.412186  0.001241  0.859965  0.002  0.419992  0.000733  0.851621  0.001  0.331017  0.406511  0.001768  0.866172  0.002
H  H9  1  0.16170208  0.98834336  0.35965439  1  0.424348  0.000135  0.81459  0.001  0.41218  0.001242  0.859969  0.002  0.419988  0.000733  0.851618  0.001  0.331003  0.406502  0.001769  0.866186  0.002
H  H10  1  0.33828981  0.48834994  0.85964869  1  0.424362  0.000135  0.814522  0.001  0.412197  0.001242  0.859901  0.002  0.420008  0.000733  0.851542  0.001  0.330997  0.40652  0.001769  0.866116  0.002
H  H11  1  0.83829609  0.01165710  0.64034774  1  0.424346  0.000135  0.814589  0.001  0.41218  0.001242  0.859966  0.002  0.419989  0.000733  0.851612  0.001  0.330999  0.406501  0.001769  0.866186  0.002
H  H12  1  0.00889474  0.69391387  0.19247390  1  0.423923  0.000254  0.87891  0.002  0.389146  0.001028  0.94856  0.002  0.400966  0.000657  0.931194  0.002  0.290726  0.380715  0.001394  0.96095  0.003
H  H13  1  0.50886859  0.80608872  0.30753187  1  0.423799  0.000254  0.879092  0.002  0.38906  0.001028  0.94867  0.002  0.400878  0.000657  0.931306  0.002  0.290665  0.380627  0.001393  0.961064  0.003
H  H14  1  0.99112745  0.30608945  0.80752970  1  0.423879  0.000252  0.878972  0.002  0.389134  0.001027  0.94856  0.002  0.400952  0.000657  0.931197  0.002  0.290693  0.380703  0.001392  0.960952  0.003
H  H15  1  0.49113626  0.19391080  0.69247087  1  0.424032  0.000252  0.87878  0.002  0.389249  0.001027  0.948437  0.002  0.401068  0.000657  0.931072  0.002  0.290786  0.380817  0.001393  0.96083  0.003
H  H16  1  0.18567689  0.66112437  0.26211313  1  0.433924  0.000244  0.861031  0.001  0.402247  0.001024  0.924398  0.002  0.412812  0.000653  0.909018  0.002  0.296708  0.394793  0.001406  0.935258  0.002
H  H17  1  0.68564663  0.83887262  0.23789220  1  0.433967  0.000245  0.860977  0.001  0.402302  0.001024  0.924323  0.002  0.412862  0.000652  0.908949  0.002  0.296773  0.394848  0.001406  0.935183  0.002
H  H18  1  0.81434530  0.33887323  0.73788505  1  0.433909  0.000243  0.86104  0.001  0.402258  0.001023  0.924364  0.002  0.412818  0.000652  0.90899  0.002  0.296728  0.394808  0.001405  0.935218  0.002
H  H19  1  0.31435688  0.16112879  0.76210849  1  0.433964  0.000243  0.860994  0.001  0.402309  0.001024  0.924317  0.002  0.412866  0.000652  0.908947  0.002  0.296783  0.394856  0.001406  0.935176  0.002
H  H20  1  0.21369316  0.98641430  0.89324627  1  0.324783  -0.000215  0.901766  0.0  0.29912  4.2e-05  0.972653  0.001  0.309664  -0.000146  0.963338  0.0  0.313202  0.291601  0.000236  0.979258  0.001
H  H21  1  0.71369111  0.51358738  0.60674631  1  0.324675  -0.000217  0.901775  0.0  0.299158  4.3e-05  0.972477  0.001  0.309704  -0.000146  0.963161  0.0  0.313221  0.291637  0.000237  0.979081  0.001
H  H22  1  0.78630368  0.01357573  0.10676181  1  0.324731  -0.000216  0.901801  0.0  0.299138  4.2e-05  0.972598  0.001  0.309684  -0.000146  0.963281  0.0  0.313214  0.291617  0.000237  0.979204  0.001
H  H23  1  0.28631106  0.48641591  0.39324983  1  0.324712  -0.000211  0.901703  0.0  0.299109  4.3e-05  0.972524  0.001  0.309653  -0.000146  0.96321  0.0  0.313209  0.291587  0.000237  0.979129  0.001
H  H24  1  0.42078610  0.81496852  0.10351277  1  0.131022  -0.000269  0.96264  0.0  0.148232  -0.000101  1.025554  0.0  0.150848  -0.000197  1.023344  0.0  0.099391  0.146199  1.4e-05  1.027273  0.0
H  H25  1  0.92080122  0.68504063  0.39648724  1  0.13105  -0.000269  0.962557  0.0  0.1482  -0.000101  1.025542  0.0  0.150817  -0.000196  1.023328  0.0  0.09936  0.146169  1.4e-05  1.027257  0.0
H  H26  1  0.57920273  0.18503008  0.89650137  1  0.131058  -0.000288  0.962628  0.0  0.148254  -0.000101  1.025561  0.0  0.150886  -0.000196  1.023336  0.0  0.099348  0.14622  1.4e-05  1.027275  0.0
H  H27  1  0.07918494  0.31495789  0.60349871  1  0.131124  -0.000295  0.962564  0.0  0.148282  -0.000101  1.025522  0.0  0.150899  -0.000197  1.023311  0.0  0.099388  0.146252  1.4e-05  1.027239  0.0
H  H28  1  0.39485038  0.79205891  0.95222724  1  0.132385  -0.000243  0.955674  0.0  0.149133  -0.000199  1.018212  0.0  0.150428  -0.00028  1.019007  0.0  0.099771  0.148102  -9.9e-05  1.017966  0.0
H  H29  1  0.89486753  0.70794294  0.54777118  1  0.132342  -0.000244  0.955665  0.0  0.149082  -0.000199  1.018189  0.0  0.150375  -0.00028  1.018991  0.0  0.099729  0.148054  -9.9e-05  1.017933  0.0
H  H30  1  0.60514512  0.20793302  0.04778375  1  0.132341  -0.000255  0.955597  0.0  0.14912  -0.000199  1.018117  0.0  0.150412  -0.00028  1.018922  0.0  0.099739  0.148094  -9.9e-05  1.017862  0.0
H  H31  1  0.10512930  0.29206222  0.45221543  1  0.132322  -0.000247  0.955568  0.0  0.149091  -0.000199  1.018075  0.0  0.150384  -0.00028  1.018874  0.0  0.099719  0.148065  -9.9e-05  1.01782  0.0
H  H32  1  0.20784869  0.78271938  0.03715323  1  0.144909  -9.4e-05  0.943551  0.0  0.162431  4.5e-05  1.00465  0.0  0.164598  -5.6e-05  1.003531  0.0  0.104073  0.160856  0.000172  1.005356  0.0
H  H33  1  0.70786116  0.71729874  0.46284285  1  0.144881  -9.7e-05  0.943422  0.0  0.162403  4.5e-05  1.004528  0.0  0.164572  -5.7e-05  1.003406  0.0  0.104062  0.160821  0.000172  1.005231  0.0
H  H34  1  0.79213881  0.21728397  0.96286032  1  0.144887  -0.000111  0.943438  0.0  0.1624  4.5e-05  1.00458  0.0  0.16457  -5.7e-05  1.003458  0.0  0.103993  0.16082  0.000172  1.005292  0.0
H  H35  1  0.29212633  0.28270739  0.53714647  1  0.144908  -0.000114  0.943493  0.0  0.162447  4.5e-05  1.004581  0.0  0.164616  -5.7e-05  1.003459  0.0  0.104038  0.160865  0.000171  1.005288  0.0
C  C36  1  0.30640422  0.97148547  0.05623523  1  0.469293  0.005262  3.657113  0.006  0.443329  0.007701  3.932745  0.008  0.459547  0.006367  3.946171  0.007  0.238153  0.432411  0.009082  3.923477  0.009
C  C37  1  0.80640211  0.52851950  0.44375752  1  0.469245  0.0053  3.657248  0.006  0.443297  0.0077  3.93283  0.008  0.459519  0.006366  3.946252  0.007  0.238166  0.432375  0.00908  3.923567  0.009
C  C38  1  0.69359261  0.02850551  0.94377140  1  0.46938  0.005267  3.65731  0.006  0.44344  0.0077  3.932921  0.008  0.459658  0.006364  3.946349  0.007  0.238201  0.432517  0.009079  3.923657  0.009
C  C39  1  0.19358940  0.47148853  0.55623803  1  0.469256  0.005274  3.657659  0.006  0.443359  0.007697  3.933181  0.008  0.459579  0.006363  3.94661  0.007  0.238117  0.432435  0.009076  3.92392  0.009
C  C40  1  0.33459123  0.83277317  0.03600613  1  -0.402345  -0.000813  3.69143  0.0  -0.482284  -0.000139  3.932483  0.0  -0.486052  -0.000414  3.937858  0.0  -0.237174  -0.479449  0.000166  3.928863  0.0
C  C41  1  0.83460006  0.66722739  0.46399240  1  -0.40233  -0.000809  3.691303  0.0  -0.482213  -0.000139  3.932384  0.0  -0.485983  -0.000414  3.937762  0.0  -0.237113  -0.479369  0.000166  3.928754  0.0
C  C42  1  0.66540161  0.16721782  0.96400548  1  -0.402333  -0.000711  3.691178  0.0  -0.482322  -0.00014  3.932257  0.0  -0.486104  -0.000413  3.937635  0.0  -0.237041  -0.479477  0.000166  3.928636  0.0
C  C43  1  0.16538877  0.33277684  0.53599981  1  -0.402456  -0.000717  3.6912  0.0  -0.482418  -0.00014  3.932312  0.0  -0.486188  -0.000413  3.937684  0.0  -0.237144  -0.479576  0.000166  3.928686  0.0
C  C44  1  0.22564562  0.15932168  0.02945176  1  0.023097  -0.000406  3.678968  0.0  0.005555  0.001887  3.946922  0.001  0.00447  0.000457  3.963286  0.0  0.092092  0.006055  0.003948  3.936642  0.002
C  C45  1  0.72565527  0.34068253  0.47054584  1  0.023154  -0.000421  3.679262  0.0  0.005556  0.001889  3.947225  0.001  0.004481  0.000455  3.963589  0.0  0.092056  0.006053  0.003948  3.936945  0.002
C  C46  1  0.77434588  0.84067119  0.97055281  1  0.023166  -0.000432  3.679198  0.0  0.005514  0.001887  3.947274  0.001  0.004424  0.000457  3.963637  0.0  0.092103  0.006009  0.003947  3.936995  0.002
C  C47  1  0.27435758  0.65931887  0.52945319  1  0.023138  -0.00038  3.679457  0.0  0.00555  0.001886  3.9474  0.001  0.004465  0.000457  3.963763  0.0  0.092073  0.006047  0.003947  3.937119  0.002
C  C48  1  0.29012026  0.17493901  0.14085584  1  0.012462  0.001756  3.739478  0.002  0.002549  0.004692  4.004059  0.005  0.002567  0.003068  4.021027  0.004  0.08605  0.001789  0.006956  3.993708  0.006
C  C49  1  0.79012573  0.32506308  0.35914407  1  0.012357  0.001786  3.739488  0.002  0.002473  0.004692  4.004055  0.005  0.002466  0.00307  4.021052  0.004  0.08598  0.001711  0.006958  3.993706  0.006
C  C50  1  0.70986991  0.82505007  0.85915120  1  0.012751  0.001792  3.739136  0.002  0.002867  0.004692  4.00367  0.005  0.002898  0.003066  4.020616  0.004  0.086125  0.002108  0.006955  3.99332  0.006
C  C51  1  0.20987778  0.67494495  0.64084981  1  0.012591  0.00175  3.739332  0.002  0.002762  0.004691  4.003884  0.005  0.002789  0.003066  4.020836  0.004  0.086115  0.001995  0.006956  3.993537  0.006
C  C52  1  0.15886254  0.24821822  0.96501128  1  0.645419  0.005163  3.914724  0.005  0.588347  0.01038  4.218473  0.009  0.624113  0.00688  4.208357  0.007  0.223098  0.563002  0.015298  4.225789  0.013
C  C53  1  0.65887108  0.25178109  0.53498342  1  0.645299  0.00516  3.914878  0.005  0.588324  0.010383  4.218462  0.009  0.624091  0.006882  4.208343  0.007  0.223195  0.562978  0.015303  4.225776  0.013
C  C54  1  0.84113830  0.75177845  0.03499166  1  0.64523  0.005161  3.91489  0.005  0.588184  0.01038  4.218622  0.009  0.623953  0.006881  4.208508  0.007  0.223148  0.562841  0.015299  4.225937  0.013
C  C55  1  0.34114978  0.74821175  0.46500954  1  0.645311  0.00516  3.914919  0.005  0.588274  0.010383  4.218627  0.009  0.62404  0.006882  4.208517  0.007  0.223183  0.562927  0.015303  4.225935  0.013
C  C56  1  0.31742566  0.28373616  0.24208444  1  0.649415  0.008133  3.89331  0.008  0.596973  0.016185  4.190419  0.015  0.6337  0.011387  4.179754  0.011  0.222626  0.570834  0.021901  4.197617  0.019
C  C57  1  0.81742923  0.21626814  0.25791526  1  0.649307  0.008119  3.893539  0.008  0.596823  0.016188  4.190713  0.015  0.633559  0.011387  4.180045  0.011  0.222537  0.570686  0.021905  4.197912  0.019
C  C58  1  0.68256851  0.71625291  0.75792011  1  0.64917  0.008117  3.8935  0.008  0.596776  0.016183  4.190562  0.015  0.633498  0.011386  4.179905  0.011  0.222521  0.570637  0.021899  4.197758  0.019
C  C59  1  0.18256494  0.78374464  0.74207803  1  0.649396  0.008117  3.893224  0.008  0.596806  0.016187  4.190546  0.015  0.63353  0.011388  4.179884  0.011  0.222527  0.570671  0.021904  4.197742  0.019
N  N60  1  0.34085309  0.05753858  0.15476034  1  -0.493556  0.028785  3.147969  0.013  -0.441677  0.033847  3.436791  0.013  -0.462661  0.030238  3.448797  0.011  -0.342949  -0.426901  0.037461  3.428928  0.016
N  N61  1  0.84085939  0.44247169  0.34523749  1  -0.493391  0.028746  3.147884  0.013  -0.441527  0.033845  3.436649  0.013  -0.462505  0.030237  3.448663  0.011  -0.342889  -0.426755  0.03746  3.428794  0.016
N  N62  1  0.65913841  0.94245525  0.84524859  1  -0.493863  0.02878  3.148001  0.013  -0.442003  0.033854  3.436861  0.013  -0.462992  0.030246  3.44886  0.011  -0.343064  -0.427229  0.037469  3.429006  0.016
N  N63  1  0.15913478  0.55753634  0.65475391  1  -0.493635  0.02877  3.148161  0.013  -0.441786  0.033847  3.43695  0.013  -0.462776  0.030239  3.448957  0.011  -0.342974  -0.427014  0.037463  3.429098  0.016
N  N64  1  0.23855146  0.03079979  0.97910473  1  -0.332953  0.000826  3.343729  0.001  -0.275983  0.002504  3.576345  0.002  -0.292612  0.001461  3.58902  0.001  -0.358415  -0.26491  0.003957  3.567946  0.004
N  N65  1  0.73855211  0.46920421  0.52088641  1  -0.332875  0.000818  3.343597  0.001  -0.275994  0.002504  3.576097  0.002  -0.292628  0.001462  3.58877  0.001  -0.358396  -0.264911  0.003958  3.567694  0.004
N  N66  1  0.76144271  0.96919022  0.02089671  1  -0.33295  0.000821  3.343938  0.001  -0.275996  0.002503  3.576532  0.002  -0.292625  0.001462  3.589204  0.001  -0.358464  -0.264917  0.003956  3.568138  0.004
N  N67  1  0.26144472  0.53079720  0.47911261  1  -0.332858  0.000811  3.343885  0.001  -0.275926  0.002504  3.576408  0.002  -0.29256  0.001462  3.589091  0.001  -0.358365  -0.264844  0.003958  3.568007  0.004
O  O68  1  0.13546212  0.20782159  0.85719600  1  -0.631939  0.004415  1.951806  0.005  -0.573246  0.00832  2.16491  0.009  -0.595791  0.005864  2.150746  0.007  -0.313453  -0.558276  0.011426  2.175308  0.012
O  O69  1  0.63546328  0.29217175  0.64279642  1  -0.631914  0.004418  1.951791  0.005  -0.573235  0.008321  2.164877  0.009  -0.59578  0.005865  2.150705  0.007  -0.31347  -0.558271  0.011429  2.175277  0.012
O  O70  1  0.86453738  0.79217317  0.14280568  1  -0.631843  0.004408  1.951853  0.005  -0.573141  0.00832  2.16498  0.009  -0.595692  0.005863  2.150809  0.007  -0.313434  -0.558174  0.011425  2.175386  0.012
O  O71  1  0.36455891  0.70781635  0.35719879  1  -0.63189  0.004411  1.951984  0.005  -0.57323  0.00832  2.165126  0.009  -0.595774  0.005864  2.150951  0.007  -0.31349  -0.558269  0.011427  2.175533  0.012
O  O72  1  0.12813214  0.36355730  0.02050099  1  -0.651317  0.026057  2.086156  0.014  -0.575362  0.031744  2.334546  0.016  -0.60444  0.028754  2.319492  0.014  -0.302103  -0.554772  0.034791  2.344891  0.019
O  O73  1  0.62813920  0.13644199  0.47949257  1  -0.651215  0.026048  2.086151  0.014  -0.575318  0.031738  2.334556  0.016  -0.604388  0.028747  2.319488  0.014  -0.302166  -0.554735  0.034784  2.3449  0.019
O  O74  1  0.87186736  0.63643935  0.97949531  1  -0.65129  0.02606  2.086164  0.014  -0.575262  0.031738  2.334498  0.016  -0.604343  0.02875  2.319445  0.014  -0.302147  -0.554674  0.034786  2.344842  0.019
O  O75  1  0.37188032  0.86355750  0.52050271  1  -0.651226  0.026055  2.086041  0.014  -0.575252  0.031733  2.334406  0.016  -0.604326  0.028744  2.319345  0.014  -0.302104  -0.55468  0.034781  2.344773  0.019
O  O76  1  0.40647876  0.25976574  0.32381142  1  -0.63172  0.038015  2.065032  0.029  -0.573799  0.047261  2.328424  0.035  -0.603751  0.041132  2.319233  0.029  -0.302181  -0.552093  0.054282  2.334275  0.042
O  O77  1  0.90648593  0.24023959  0.17619223  1  -0.631611  0.038018  2.065193  0.029  -0.573665  0.047258  2.328589  0.035  -0.603617  0.041132  2.319398  0.029  -0.302093  -0.551958  0.054281  2.334437  0.042
O  O78  1  0.59351141  0.74023567  0.67619092  1  -0.631683  0.038009  2.064673  0.029  -0.573819  0.047259  2.328086  0.035  -0.603775  0.041131  2.318905  0.029  -0.302172  -0.552104  0.054281  2.333923  0.042
O  O79  1  0.09351091  0.75977699  0.82379777  1  -0.631515  0.038001  2.065049  0.029  -0.573643  0.047257  2.328611  0.035  -0.603592  0.041129  2.319428  0.029  -0.302039  -0.551921  0.054279  2.334415  0.042
O  O80  1  0.25329850  0.39442668  0.24809172  1  -0.641689  0.032437  2.065888  0.02  -0.578843  0.040146  2.324858  0.024  -0.607573  0.03561  2.309159  0.02  -0.309988  -0.557502  0.044387  2.335068  0.028
O  O81  1  0.75328916  0.10557498  0.25190378  1  -0.641693  0.032443  2.065975  0.02  -0.578817  0.040145  2.324942  0.024  -0.607547  0.035609  2.309237  0.02  -0.309948  -0.557481  0.044384  2.335163  0.028
O  O82  1  0.74669166  0.60556806  0.75190498  1  -0.641555  0.03245  2.066357  0.02  -0.578719  0.04014  2.325279  0.024  -0.60744  0.035605  2.309576  0.02  -0.309902  -0.557384  0.04438  2.335492  0.028
O  O83  1  0.24669967  0.89444254  0.74808726  1  -0.641883  0.032463  2.065855  0.02  -0.578898  0.040144  2.32483  0.024  -0.607629  0.035609  2.30913  0.02  -0.310033  -0.557561  0.044384  2.335039  0.028
O  O84  1  0.76191593  0.47375233  0.09260119  1  -0.815285  0.029339  1.857388  0.017  -0.759496  0.038851  2.055572  0.022  -0.781634  0.035073  2.025022  0.02  -0.556324  -0.742655  0.042051  2.076409  0.024
O  O85  1  0.26191308  0.02624565  0.40740016  1  -0.815367  0.029342  1.857304  0.017  -0.759537  0.038851  2.055521  0.022  -0.781671  0.035073  2.024978  0.02  -0.556318  -0.742697  0.042052  2.076367  0.024
O  O86  1  0.23808225  0.52625097  0.90739661  1  -0.815266  0.02934  1.857306  0.017  -0.759459  0.038849  2.055465  0.022  -0.781594  0.03507  2.024921  0.02  -0.556269  -0.742621  0.04205  2.076306  0.024
O  O87  1  0.73808376  0.97375386  0.59260259  1  -0.815304  0.029341  1.857406  0.017  -0.759485  0.038851  2.055568  0.022  -0.78162  0.035073  2.025022  0.02  -0.556298  -0.742646  0.042051  2.076412  0.024
O  O88  1  0.07910185  0.62655680  0.21607349  1  -0.860167  0.032974  1.899684  0.019  -0.794948  0.043718  2.110762  0.025  -0.818351  0.039166  2.072484  0.022  -0.574682  -0.777168  0.048013  2.13727  0.029
O  O89  1  0.57907010  0.87344274  0.28392032  1  -0.86013  0.032977  1.899888  0.019  -0.794927  0.043724  2.110933  0.025  -0.818349  0.039173  2.072707  0.022  -0.574703  -0.777151  0.048019  2.137444  0.029
O  O90  1  0.92092034  0.37343985  0.78392530  1  -0.860163  0.032978  1.899869  0.019  -0.794943  0.04372  2.11089  0.025  -0.818364  0.039168  2.072663  0.022  -0.574688  -0.777165  0.048015  2.137396  0.029
O  O91  1  0.42093208  0.12656057  0.71608162  1  -0.860323  0.032984  1.89969  0.019  -0.795106  0.043726  2.110784  0.025  -0.818527  0.039175  2.072557  0.022  -0.574831  -0.777329  0.048022  2.137297  0.029
