# generated using pymatgen
data_Zn4H22C41O14
_symmetry_space_group_name_H-M   'P 1'
_cell_length_a   15.11034278
_cell_length_b   15.25705351
_cell_length_c   19.49347745
_cell_angle_alpha   89.12317931
_cell_angle_beta   89.23045099
_cell_angle_gamma   90.15346759
_symmetry_Int_Tables_number   1
_chemical_formula_structural   Zn4H22C41O14
_chemical_formula_sum   'Zn4 H22 C41 O14'
_cell_volume   4493.06259256
_cell_formula_units_Z   1
loop_
 _symmetry_equiv_pos_site_id
 _symmetry_equiv_pos_as_xyz
  1  'x, y, z'
loop_
 _atom_site_type_symbol
 _atom_site_label
 _atom_site_symmetry_multiplicity
 _atom_site_fract_x
 _atom_site_fract_y
 _atom_site_fract_z
 _atom_site_occupancy
 _atom_site_pbe_bader_charge
 _atom_site_pbe_bader_spin_density
 _atom_site_pbe_cm5_charge
 _atom_site_pbe_ddec_charge
 _atom_site_pbe_ddec_spin_density
 _atom_site_pbe_ddec_sum_bond_order
 _atom_site_pbe_magmom
Zn  Zn0  1  0.57662992  0.56843860  0.43842767  1  1.313672  0  0.67036  0.961723  0  2.374421  0
Zn  Zn1  1  0.43091171  0.58449499  0.55572986  1  1.314219  0  0.670374  0.964184  0  2.377546  0
Zn  Zn2  1  0.56991447  0.42288472  0.55850851  1  1.307726  0  0.671163  0.963417  0  2.369384  0
Zn  Zn3  1  0.41643306  0.42728004  0.44903768  1  1.313673  0  0.670414  0.965257  0  2.375274  0
H  H4  1  0.59102913  0.58390701  0.22692067  1  0.109064  0  0.108941  0.114665  0  0.991986  0
H  H5  1  0.65844089  0.83427194  0.44128284  1  0.093397  0  0.109392  0.113959  0  0.987564  0
H  H6  1  0.33778430  0.00092902  0.55612214  1  0.031498  0  0.111402  0.108943  0  0.979217  0
H  H7  1  0.57206103  0.38929596  0.77094047  1  0.081848  0  0.108893  0.114521  0  0.989649  0
H  H8  1  0.67844970  0.99602431  0.44361121  1  0.136432  0  0.106881  0.120576  0  1.031677  0
H  H9  1  0.34810001  0.16363877  0.55061428  1  0.083323  0  0.111056  0.117143  0  0.978447  0
H  H10  1  0.45827394  0.64696335  0.76306697  1  0.095584  0  0.108564  0.113264  0  0.990889  0
H  H11  1  0.51929334  0.59369211  0.99969260  1  0.047456  0  0.102668  0.100521  0  0.99815  0
H  H12  1  0.40983953  0.35757294  0.11277243  1  0.05593  0  0.103276  0.103687  0  0.992383  0
H  H13  1  0.57217976  0.39335346  0.89851357  1  0.073045  0  0.102755  0.10234  0  0.999083  0
H  H14  1  0.40436999  0.37125361  0.23998469  1  0.1106  0  0.108883  0.114173  0  0.991446  0
H  H15  1  0.46309311  0.65425766  0.89064736  1  0.056488  0  0.103304  0.103288  0  0.992413  0
H  H16  1  0.48699454  0.39454951  0.00157711  1  0.083989  0  0.103181  0.102412  0  0.995097  0
H  H17  1  0.59532403  0.57276323  0.09976267  1  0.05189  0  0.102671  0.102228  0  1.001387  0
H  H18  1  0.62443029  0.23713899  0.46107965  1  0.081205  0  0.097928  0.033845  0  0.993785  0
H  H19  1  0.14439963  0.39091337  0.48117246  1  0.078982  0  0.108559  0.115313  0  0.996772  0
H  H20  1  0.16215341  0.66331090  0.53256077  1  0.105214  0  0.106496  0.112258  0  0.995683  0
H  H21  1  0.99664331  0.31948343  0.47237493  1  0.055047  0  0.10737  0.108624  0  0.986528  0
H  H22  1  0.99814914  0.67781343  0.52528230  1  0.032816  0  0.105296  0.106489  0  0.99014  0
H  H23  1  0.83228095  0.33045611  0.47587854  1  0.109812  0  0.110288  0.117741  0  0.990358  0
H  H24  1  0.85056496  0.60940376  0.50393182  1  0.068391  0  0.108632  0.115233  0  0.992597  0
H  H25  1  0.40152920  0.85719805  0.53575645  1  0.098124  0  0.109016  0.114877  0  0.99671  0
C  C26  1  0.26040397  0.51782865  0.50766731  1  1.516158  0  0.22713  0.608497  0  4.163848  0
C  C27  1  0.50157859  0.45920397  0.02231398  1  -0.014433  0  -0.0875  -0.132656  0  3.993564  0
C  C28  1  0.51387111  0.52789517  0.97850515  1  -0.064702  0  -0.087345  -0.130729  0  3.997604  0
C  C29  1  0.73433571  0.47875838  0.49063160  1  1.575266  0  0.228136  0.608339  0  4.161676  0
C  C30  1  0.51414413  0.51744892  0.75941779  1  -0.057004  0  -0.021187  -0.045611  0  3.985955  0
C  C31  1  0.16216847  0.52581091  0.50634361  1  -0.02506  0  -0.020334  -0.038444  0  3.998327  0
C  C32  1  0.83269388  0.47148225  0.48959921  1  -0.085517  0  -0.014771  -0.024089  0  3.991169  0
C  C33  1  0.96443414  0.38250245  0.48057068  1  0.062006  0  -0.083407  -0.125948  0  3.98772  0
C  C34  1  0.87358169  0.38845537  0.48186197  1  -0.071027  0  -0.083596  -0.099357  0  3.984906  0
C  C35  1  0.88325624  0.54620287  0.49828327  1  -0.019097  0  -0.077471  -0.144567  0  3.928939  0
C  C36  1  0.97653465  0.54094904  0.50182035  1  0.023824  0  -0.001629  0.086211  0  3.994533  0
C  C37  1  0.50125735  0.46567164  0.09695562  1  -0.098504  0  -0.005092  0.121759  0  4.036241  0
C  C38  1  0.01813622  0.45767455  0.49094798  1  -0.026038  0  -0.003774  0.07564  0  4.002293  0
C  C39  1  0.11149698  0.45290414  0.49160707  1  0.001537  0  -0.074641  -0.1318  0  3.9273  0
C  C40  1  0.12081936  0.60732532  0.52006072  1  0.015583  0  -0.086672  -0.09893  0  4.001075  0
C  C41  1  0.51808575  0.73896367  0.48979904  1  1.546199  0  0.227147  0.606119  0  4.167813  0
C  C42  1  0.03025642  0.61488669  0.51635719  1  -0.076543  0  -0.087274  -0.133814  0  3.993629  0
C  C43  1  0.52867635  0.83623730  0.48918016  1  -0.060605  0  -0.018324  -0.038679  0  4.003787  0
C  C44  1  0.48256192  0.16402953  0.51069859  1  0.02626  0  0.007795  -0.017294  0  3.927979  0
C  C45  1  0.39799041  0.03320594  0.53696504  1  0.022368  0  -0.068334  -0.091458  0  3.968579  0
C  C46  1  0.40364337  0.12317642  0.53428936  1  -0.068033  0  -0.087108  -0.117434  0  4.006843  0
C  C47  1  0.55552073  0.11519146  0.48853353  1  0.018898  0  -0.012899  -0.061478  0  3.927013  0
C  C48  1  0.44928476  0.40767020  0.13767768  1  0.012265  0  -0.088994  -0.137142  0  3.971445  0
C  C49  1  0.54938495  0.02108830  0.48840198  1  0.007801  0  0.010344  0.07351  0  3.914111  0
C  C50  1  0.46930368  0.98041696  0.51399551  1  0.02192  0  -0.004421  0.06676  0  4.010997  0
C  C51  1  0.46157826  0.88807205  0.51511089  1  -0.017209  0  -0.074079  -0.130803  0  3.93135  0
C  C52  1  0.60663940  0.87611629  0.46214131  1  -0.066586  0  -0.077697  -0.079584  0  3.974003  0
C  C53  1  0.48396808  0.26262614  0.51099705  1  1.536505  0  0.22667  0.593465  0  4.210905  0
C  C54  1  0.61752873  0.96591757  0.46280802  1  -0.022065  0  -0.087122  -0.133614  0  3.959096  0
C  C55  1  0.51196366  0.51377857  0.68320609  1  1.579418  0  0.22604  0.605987  0  4.167876  0
C  C56  1  0.49496954  0.48633959  0.31716556  1  1.564392  0  0.226227  0.604659  0  4.167743  0
C  C57  1  0.49679996  0.47892468  0.24110146  1  -0.008264  0  -0.02157  -0.048036  0  3.983467  0
C  C58  1  0.55053707  0.53560898  0.20117465  1  -0.087834  0  -0.081751  -0.084314  0  3.987503  0
C  C59  1  0.44594186  0.41496320  0.20866544  1  -0.078298  0  -0.081143  -0.084087  0  3.985451  0
C  C60  1  0.55224849  0.52941291  0.13023491  1  0.032134  0  -0.088721  -0.134032  0  3.969914  0
C  C61  1  0.63455570  0.16485868  0.46442593  1  0.918596  0  0.094329  0.272981  0  3.975814  0
C  C62  1  0.54617550  0.44869513  0.86906136  1  0.055724  0  -0.088448  -0.132812  0  3.966545  0
C  C63  1  0.54663589  0.44622033  0.79786354  1  -0.091363  0  -0.080973  -0.086483  0  3.986847  0
C  C64  1  0.48339169  0.59207039  0.79337916  1  0.010207  0  -0.082009  -0.085712  0  3.989723  0
C  C65  1  0.48594395  0.59557725  0.86447851  1  -0.096402  0  -0.088755  -0.136036  0  3.974024  0
C  C66  1  0.51546217  0.52331958  0.90380663  1  -0.037275  0  -0.006274  0.120235  0  4.038573  0
O  O67  1  0.49815437  0.50040085  0.50058915  1  -1.231594  0  -0.573082  -1.030855  0  2.539718  0
O  O68  1  0.46161336  0.56864574  0.65267222  1  -1.178272  0  -0.316782  -0.551144  0  2.338851  0
O  O69  1  0.43658147  0.44095912  0.35005682  1  -1.174849  0  -0.316679  -0.547347  0  2.334552  0
O  O70  1  0.56050899  0.45574453  0.65467505  1  -1.173025  0  -0.317629  -0.548373  0  2.334795  0
O  O71  1  0.55194297  0.53770231  0.34342093  1  -1.181791  0  -0.318487  -0.552922  0  2.343186  0
O  O72  1  0.70714185  0.13450554  0.44872094  1  -1.082187  0  -0.268827  -0.359184  0  2.112122  0
O  O73  1  0.56894762  0.69600412  0.44979403  1  -1.156262  0  -0.313358  -0.541267  0  2.325658  0
O  O74  1  0.43409976  0.30029102  0.46758896  1  -1.160621  0  -0.309949  -0.535213  0  2.312446  0
O  O75  1  0.30289555  0.57641540  0.53998749  1  -1.161994  0  -0.314586  -0.544126  0  2.323559  0
O  O76  1  0.69128856  0.41642169  0.52059051  1  -1.166106  0  -0.316766  -0.550576  0  2.310181  0
O  O77  1  0.29411149  0.45260584  0.47632415  1  -1.181057  0  -0.319625  -0.555089  0  2.342192  0
O  O78  1  0.70121682  0.54687779  0.46233976  1  -1.167935  0  -0.314482  -0.544853  0  2.321396  0
O  O79  1  0.45884247  0.70679214  0.53021236  1  -1.177816  0  -0.317423  -0.551051  0  2.340012  0
O  O80  1  0.53189417  0.29869256  0.55574184  1  -1.17112  0  -0.310586  -0.537901  0  2.322987  0
