# generated using pymatgen
data_ZnH11C11N3O5
_symmetry_space_group_name_H-M   'P 1'
_cell_length_a   9.06282159
_cell_length_b   9.76159368
_cell_length_c   10.70426273
_cell_angle_alpha   92.34273348
_cell_angle_beta   102.95652186
_cell_angle_gamma   101.00187060
_symmetry_Int_Tables_number   1
_chemical_formula_structural   ZnH11C11N3O5
_chemical_formula_sum   'Zn2 H22 C22 N6 O10'
_cell_volume   902.43777085
_cell_formula_units_Z   2
loop_
 _symmetry_equiv_pos_site_id
 _symmetry_equiv_pos_as_xyz
  1  'x, y, z'
loop_
 _atom_site_type_symbol
 _atom_site_label
 _atom_site_symmetry_multiplicity
 _atom_site_fract_x
 _atom_site_fract_y
 _atom_site_fract_z
 _atom_site_occupancy
 _atom_site_pbe_bader_charge
 _atom_site_pbe_bader_spin_density
 _atom_site_pbe_cm5_charge
 _atom_site_pbe_ddec_charge
 _atom_site_pbe_ddec_spin_density
 _atom_site_pbe_ddec_sum_bond_order
 _atom_site_pbe_magmom
Zn  Zn0  1  0.53226499  0.66225014  0.51102452  1  1.30125  0  0.685407  0.850361  0  2.329525  0
Zn  Zn1  1  0.49211961  0.35585181  0.49876712  1  1.2898  0  0.68153  0.834641  0  2.420138  0
H  H2  1  0.59709261  0.32997314  0.14606635  1  0.053912  0  0.094039  0.099943  0  1.047529  0
H  H3  1  0.68484968  0.15677850  0.04063639  1  0.032604  0  0.089929  0.085917  0  1.013276  0
H  H4  1  0.22819551  0.69268673  0.98823139  1  0.427742  0  0.304881  0.249086  0  0.95082  0
H  H5  1  0.11812644  0.48374340  0.11835076  1  0.003931  0  0.084222  0.081556  0  1.00902  0
H  H6  1  0.07546311  0.65451424  0.12629305  1  0.042063  0  0.102747  0.109464  0  0.982636  0
H  H7  1  0.22333713  0.61164731  0.24750370  1  0.06323  0  0.091176  0.110713  0  1.042431  0
H  H8  1  0.80038515  0.98116492  0.40145544  1  0.436703  0  0.288134  0.243711  0  0.989053  0
H  H9  1  0.62503542  0.98205780  0.19051841  1  -0.014149  0  0.076562  0.062875  0  1.033404  0
H  H10  1  0.53455942  0.80753274  0.21159681  1  0.104917  0  0.096045  0.114044  0  1.053232  0
H  H11  1  0.72961661  0.84312943  0.19839584  1  0.030056  0  0.101232  0.115004  0  0.972768  0
H  H12  1  0.28821992  0.20431700  0.61618775  1  0.522956  0  0.311747  0.277692  0  0.989946  0
H  H13  1  0.36580296  0.64820483  0.84991497  1  0.109481  0  0.101192  0.118393  0  1.040976  0
H  H14  1  0.12321439  0.97152496  0.68240788  1  0.081205  0  0.101907  0.10918  0  0.998949  0
H  H15  1  0.21630606  0.11641899  0.79800675  1  0.056236  0  0.116231  0.128915  0  0.962295  0
H  H16  1  0.30632607  0.97118553  0.78662802  1  0.060267  0  0.108866  0.116523  0  0.991433  0
H  H17  1  0.62595114  0.16634711  0.37908473  1  0.118973  0  0.12909  0.115155  0  1.001799  0
H  H18  1  0.36722879  0.84151311  0.63262821  1  0.15825  0  0.127685  0.118507  0  1.024786  0
H  H19  1  0.86324858  0.30856856  0.33323713  1  0.07691  0  0.103773  0.034037  0  0.981781  0
H  H20  1  0.05360039  0.77285146  0.53336038  1  0.085691  0  0.108374  0.040802  0  0.956715  0
H  H21  1  0.67936847  0.32812103  0.82502158  1  0.499267  0  0.299948  0.262817  0  1.004898  0
H  H22  1  0.84021503  0.30589756  0.08490730  1  0.027986  0  0.086895  0.076789  0  1.024066  0
H  H23  1  0.82611020  0.18979579  0.94815019  1  0.055227  0  0.109276  0.117006  0  0.971121  0
C  C24  1  0.54035593  0.51943303  0.74511683  1  1.509952  0  0.210257  0.601048  0  4.148455  0
C  C25  1  0.41806759  0.58004317  0.91695866  1  -0.01327  0  -0.101203  -0.195661  0  3.988377  0
C  C26  1  0.45415777  0.48190624  0.12056536  1  -0.048088  0  -0.024352  -0.101872  0  3.966211  0
C  C27  1  0.51494684  0.50171223  0.87561752  1  0.001288  0  -0.037264  -0.14017  0  3.992262  0
C  C28  1  0.56936247  0.09357837  0.43657155  1  0.497434  0  0.058038  -0.005747  0  3.914452  0
C  C29  1  0.42566057  0.91636712  0.57770883  1  0.506495  0  0.053278  -0.033862  0  3.831674  0
C  C30  1  0.59410515  0.95750885  0.44084014  1  0.932578  0  0.20466  0.285255  0  4.034782  0
C  C31  1  0.40452721  0.05739773  0.57609426  1  1.05697  0  0.241482  0.327583  0  4.052517  0
C  C32  1  0.94065957  0.30336146  0.42903312  1  0.968832  0  0.110544  0.323991  0  3.952257  0
C  C33  1  0.06759016  0.68360263  0.59367896  1  1.011769  0  0.116037  0.331233  0  3.9595  0
C  C34  1  0.75843047  0.24013864  0.00209851  1  0.306858  0  -0.134036  -0.197824  0  4.027266  0
C  C35  1  0.45413972  0.48211602  0.26000957  1  1.546133  0  0.220829  0.613517  0  4.154794  0
C  C36  1  0.16948641  0.59647718  0.14411373  1  0.29307  0  -0.149014  -0.217375  0  3.988237  0
C  C37  1  0.64332286  0.88528742  0.23695643  1  0.28593  0  -0.151219  -0.21127  0  3.960978  0
C  C38  1  0.23582673  0.03758330  0.73096438  1  0.297269  0  -0.1263  -0.211118  0  3.946397  0
C  C39  1  0.20879117  0.46789991  0.50006657  1  1.633718  0  0.222882  0.607225  0  4.176718  0
C  C40  1  0.80435878  0.52859562  0.51757680  1  1.605386  0  0.216422  0.596441  0  4.185563  0
C  C41  1  0.03700669  0.44155805  0.49123881  1  -0.001573  0  0.004797  -0.085262  0  3.844939  0
C  C42  1  0.97442758  0.54409846  0.53255279  1  -0.084876  0  -0.002529  -0.106295  0  3.887218  0
C  C43  1  0.57880330  0.40382050  0.95617444  1  0.449385  0  0.092618  0.209123  0  4.089528  0
C  C44  1  0.38183513  0.57112723  0.03714223  1  0.39497  0  0.080106  0.178664  0  4.079756  0
C  C45  1  0.54700732  0.39892390  0.07883818  1  -0.002907  0  -0.11429  -0.229151  0  3.992482  0
N  N46  1  0.51793596  0.87026412  0.51193662  1  -1.227319  0  -0.297504  -0.215434  0  3.515354  0
N  N47  1  0.48002524  0.14403886  0.50332555  1  -1.2441  0  -0.326327  -0.274152  0  3.495845  0
N  N48  1  0.66973845  0.32134103  0.91754096  1  -1.25273  0  -0.455926  -0.299196  0  3.631288  0
N  N49  1  0.27904687  0.65025076  0.06762328  1  -1.166884  0  -0.456653  -0.31187  0  3.525527  0
N  N50  1  0.69799984  0.90902634  0.37817232  1  -1.123878  0  -0.473321  -0.380666  0  3.447102  0
N  N51  1  0.31481377  0.11018391  0.64152113  1  -1.267303  0  -0.417197  -0.277307  0  3.59289  0
O  O52  1  0.51572187  0.63085941  0.69310457  1  -1.163096  0  -0.315997  -0.537767  0  2.345073  0
O  O53  1  0.14697786  0.70141783  0.70394600  1  -1.101241  0  -0.249509  -0.363951  0  2.172986  0
O  O54  1  0.42525710  0.36489088  0.30710878  1  -1.159771  0  -0.324472  -0.551143  0  2.316032  0
O  O55  1  0.58287421  0.41967714  0.68832172  1  -1.188003  0  -0.324014  -0.572333  0  2.374243  0
O  O56  1  0.49255642  0.60193904  0.32346550  1  -1.164906  0  -0.302412  -0.53025  0  2.393084  0
O  O57  1  0.27054112  0.58862864  0.47815298  1  -1.147559  0  -0.289825  -0.533664  0  2.290478  0
O  O58  1  0.72054545  0.40837208  0.47554041  1  -1.15546  0  -0.296646  -0.534698  0  2.35197  0
O  O59  1  0.27468927  0.36479507  0.52651313  1  -1.176974  0  -0.306952  -0.546619  0  2.367249  0
O  O60  1  0.76041076  0.63904717  0.54718913  1  -1.143095  0  -0.29987  -0.52323  0  2.311773  0
O  O61  1  0.95344813  0.19106381  0.47302243  1  -1.089512  0  -0.256007  -0.359325  0  2.137289  0
