# generated using pymatgen
data_SrH14(C7O4)2
_symmetry_space_group_name_H-M   'P 1'
_cell_length_a   7.81382359
_cell_length_b   10.11846121
_cell_length_c   10.11845338
_cell_angle_alpha   69.13430168
_cell_angle_beta   88.77281663
_cell_angle_gamma   88.77281293
_symmetry_Int_Tables_number   1
_chemical_formula_structural   SrH14(C7O4)2
_chemical_formula_sum   'Sr2 H28 C28 O16'
_cell_volume   747.28525475
_cell_formula_units_Z   2
loop_
 _symmetry_equiv_pos_site_id
 _symmetry_equiv_pos_as_xyz
  1  'x, y, z'
loop_
 _atom_site_type_symbol
 _atom_site_label
 _atom_site_symmetry_multiplicity
 _atom_site_fract_x
 _atom_site_fract_y
 _atom_site_fract_z
 _atom_site_occupancy
 _atom_site_hle17_bader_spin_density
 _atom_site_hle17_ddec_charge
 _atom_site_hle17_ddec_spin_density
 _atom_site_hle17_ddec_sum_bond_order
 _atom_site_hle17_magmom
 _atom_site_hse06_10hf_bader_spin_density
 _atom_site_hse06_10hf_ddec_charge
 _atom_site_hse06_10hf_ddec_spin_density
 _atom_site_hse06_10hf_ddec_sum_bond_order
 _atom_site_hse06_10hf_magmom
 _atom_site_hse06_bader_spin_density
 _atom_site_hse06_ddec_charge
 _atom_site_hse06_ddec_spin_density
 _atom_site_hse06_ddec_sum_bond_order
 _atom_site_hse06_magmom
 _atom_site_pbe_bader_spin_density
 _atom_site_pbe_cm5_charge
 _atom_site_pbe_ddec_charge
 _atom_site_pbe_ddec_spin_density
 _atom_site_pbe_ddec_sum_bond_order
 _atom_site_pbe_magmom
Sr  Sr0  1  0.75000071  0.93827651  0.06172406  1  0  1.624994  0  1.089054  0  0  1.48209  0  1.460223  0  0  1.519988  0  1.415495  0  0  0.966651  1.453932  0  1.492544  0
Sr  Sr1  1  0.25000060  0.06172394  0.93827633  1  0  1.624985  0  1.089072  0  0  1.482089  0  1.460226  0  0  1.519994  0  1.415492  0  0  0.96665  1.453935  0  1.492543  0
H  H2  1  0.16324634  0.83515547  0.74327788  1  0  0.118657  0  0.972104  0  0  0.125823  0  1.037872  0  0  0.130092  0  1.035455  0  0  0.109849  0.122823  0  1.03968  0
H  H3  1  0.33675569  0.25672242  0.16484391  1  0  0.118651  0  0.972114  0  0  0.125817  0  1.037883  0  0  0.130087  0  1.035466  0  0  0.109864  0.122826  0  1.039682  0
H  H4  1  0.83675499  0.16484392  0.25672189  1  0  0.118633  0  0.972114  0  0  0.1258  0  1.037883  0  0  0.13007  0  1.035465  0  0  0.109845  0.122807  0  1.039683  0
H  H5  1  0.66324690  0.74327804  0.83515645  1  0  0.118635  0  0.972105  0  0  0.125803  0  1.037872  0  0  0.130073  0  1.035454  0  0  0.109846  0.122803  0  1.039679  0
H  H6  1  0.97631272  0.62715941  0.79260647  1  0  0.085298  0  0.963634  0  0  0.096001  0  1.023656  0  0  0.099072  0  1.021176  0  0  0.099684  0.09365  0  1.025715  0
H  H7  1  0.52368870  0.20739486  0.37284037  1  0  0.085319  0  0.963625  0  0  0.096007  0  1.023669  0  0  0.099082  0  1.021178  0  0  0.099694  0.093656  0  1.025729  0
H  H8  1  0.02368860  0.37283998  0.20739430  1  0  0.085328  0  0.963601  0  0  0.096017  0  1.023644  0  0  0.099092  0  1.021154  0  0  0.099699  0.093666  0  1.025705  0
H  H9  1  0.47631258  0.79260665  0.62715963  1  0  0.085311  0  0.963612  0  0  0.096009  0  1.023647  0  0  0.099084  0  1.021153  0  0  0.099694  0.093657  0  1.025708  0
H  H10  1  0.86640116  0.56150616  0.59561787  1  0  0.092432  0  0.954693  0  0  0.103841  0  1.013377  0  0  0.106006  0  1.014674  0  0  0.098938  0.102085  0  1.013209  0
H  H11  1  0.63359885  0.40438398  0.43849408  1  0  0.092456  0  0.954651  0  0  0.103869  0  1.013338  0  0  0.106033  0  1.014636  0  0  0.098955  0.102114  0  1.01317  0
H  H12  1  0.13359887  0.43849430  0.40438352  1  0  0.092453  0  0.954648  0  0  0.103864  0  1.013338  0  0  0.106028  0  1.014636  0  0  0.098954  0.102109  0  1.01317  0
H  H13  1  0.36640115  0.59561752  0.56150595  1  0  0.092446  0  0.95467  0  0  0.103856  0  1.013359  0  0  0.106021  0  1.014656  0  0  0.098947  0.102101  0  1.013191  0
H  H14  1  0.94225266  0.70936841  0.34601813  1  0  0.094087  0  0.958154  0  0  0.105042  0  1.019609  0  0  0.108298  0  1.016803  0  0  0.111367  0.102432  0  1.022275  0
H  H15  1  0.55774620  0.65398306  0.29063109  1  0  0.094097  0  0.958155  0  0  0.105036  0  1.019624  0  0  0.108298  0  1.016811  0  0  0.11137  0.102423  0  1.022293  0
H  H16  1  0.05774611  0.29063098  0.65398268  1  0  0.094109  0  0.958136  0  0  0.10505  0  1.019602  0  0  0.108311  0  1.016789  0  0  0.111367  0.102436  0  1.022272  0
H  H17  1  0.44225381  0.34601845  0.70936894  1  0  0.094105  0  0.958151  0  0  0.105049  0  1.01961  0  0  0.10831  0  1.016798  0  0  0.111374  0.102436  0  1.022279  0
H  H18  1  0.28874529  0.03571309  0.38702268  1  0  0.383388  0  0.897179  0  0  0.355587  0  0.970441  0  0  0.366393  0  0.959298  0  0  0.307349  0.347947  0  0.978203  0
H  H19  1  0.21125354  0.61297687  0.96428598  1  0  0.383311  0  0.897224  0  0  0.355504  0  0.970499  0  0  0.366311  0  0.959358  0  0  0.307317  0.347865  0  0.978258  0
H  H20  1  0.71125475  0.96428630  0.61297613  1  0  0.383323  0  0.897217  0  0  0.355514  0  0.970494  0  0  0.366322  0  0.959351  0  0  0.307329  0.347875  0  0.978253  0
H  H21  1  0.78874523  0.38702252  0.03571385  1  0  0.383372  0  0.897194  0  0  0.355572  0  0.97045  0  0  0.366378  0  0.959309  0  0  0.307346  0.347933  0  0.97821  0
H  H22  1  0.65250308  0.94092565  0.37555600  1  0  0.433657  0  0.862797  0  0  0.401686  0  0.927564  0  0  0.411922  0  0.912611  0  0  0.299118  0.394187  0  0.938561  0
H  H23  1  0.84749839  0.62444283  0.05907495  1  0  0.433655  0  0.862799  0  0  0.401683  0  0.927565  0  0  0.411919  0  0.912612  0  0  0.299115  0.394184  0  0.938563  0
H  H24  1  0.34749822  0.05907480  0.62444340  1  0  0.433646  0  0.862812  0  0  0.401672  0  0.927583  0  0  0.411909  0  0.912629  0  0  0.299109  0.394175  0  0.938578  0
H  H25  1  0.15250167  0.37555551  0.94092522  1  0  0.433668  0  0.862786  0  0  0.401692  0  0.92755  0  0  0.411926  0  0.912601  0  0  0.299133  0.394195  0  0.938546  0
H  H26  1  0.48916112  0.94606191  0.28312152  1  0  0.423797  0  0.874623  0  0  0.393178  0  0.93781  0  0  0.403559  0  0.922506  0  0  0.301372  0.385709  0  0.94886  0
H  H27  1  0.01083850  0.71687758  0.05393864  1  0  0.423793  0  0.874631  0  0  0.393172  0  0.937822  0  0  0.403553  0  0.922516  0  0  0.301374  0.385703  0  0.948871  0
H  H28  1  0.51083889  0.05393959  0.71687752  1  0  0.423771  0  0.874668  0  0  0.393155  0  0.937848  0  0  0.403535  0  0.922546  0  0  0.301353  0.385683  0  0.948903  0
H  H29  1  0.98916157  0.28312075  0.94606253  1  0  0.423798  0  0.874622  0  0  0.393174  0  0.937819  0  0  0.403554  0  0.922514  0  0  0.301372  0.385704  0  0.948869  0
C  C30  1  0.16008972  0.88739083  0.51757478  1  0  0.330968  0  3.79759  0  0  0.313298  0  4.059942  0  0  0.326639  0  4.076386  0  0  0.0881  0.30439  0  4.048606  0
C  C31  1  0.33991087  0.48242599  0.11260879  1  0  0.331013  0  3.79745  0  0  0.31329  0  4.059854  0  0  0.326632  0  4.076298  0  0  0.088101  0.304377  0  4.048525  0
C  C32  1  0.83991033  0.11260856  0.48242601  1  0  0.331  0  3.797446  0  0  0.313291  0  4.059839  0  0  0.326631  0  4.076285  0  0  0.088118  0.304378  0  4.048509  0
C  C33  1  0.66008918  0.51757341  0.88739200  1  0  0.33102  0  3.797437  0  0  0.31331  0  4.059846  0  0  0.326652  0  4.076287  0  0  0.088125  0.304397  0  4.048512  0
C  C34  1  0.11347376  0.80755413  0.65688718  1  0  -0.203745  0  3.724936  0  0  -0.22586  0  3.987345  0  0  -0.233745  0  4.006191  0  0  -0.107044  -0.22019  0  3.973805  0
C  C35  1  0.38652787  0.34311327  0.19244509  1  0  -0.203773  0  3.724943  0  0  -0.225871  0  3.98736  0  0  -0.233756  0  4.006207  0  0  -0.107064  -0.220204  0  3.973819  0
C  C36  1  0.88652755  0.19244632  0.34311222  1  0  -0.203748  0  3.724916  0  0  -0.225853  0  3.98734  0  0  -0.233738  0  4.006187  0  0  -0.107056  -0.220185  0  3.973799  0
C  C37  1  0.61347343  0.65688718  0.80755431  1  0  -0.203805  0  3.724929  0  0  -0.225907  0  3.987353  0  0  -0.233792  0  4.006199  0  0  -0.107083  -0.220233  0  3.973814  0
C  C38  1  0.00917775  0.69096344  0.68354494  1  0  -0.011715  0  3.749119  0  0  -0.028691  0  4.004441  0  0  -0.024529  0  4.022193  0  0  -0.081469  -0.030768  0  3.991743  0
C  C39  1  0.49082383  0.31645641  0.30903704  1  0  -0.011721  0  3.749252  0  0  -0.028688  0  4.004571  0  0  -0.024522  0  4.022317  0  0  -0.08147  -0.030766  0  3.991876  0
C  C40  1  0.99082356  0.30903702  0.31645644  1  0  -0.01175  0  3.749242  0  0  -0.028715  0  4.004562  0  0  -0.024549  0  4.02231  0  0  -0.081485  -0.030793  0  3.991867  0
C  C41  1  0.50917748  0.68354404  0.69096335  1  0  -0.01171  0  3.749213  0  0  -0.02868  0  4.004527  0  0  -0.024515  0  4.022279  0  0  -0.081464  -0.030758  0  3.991829  0
C  C42  1  0.94734538  0.65361367  0.57281272  1  0  -0.104039  0  3.781735  0  0  -0.120489  0  4.036984  0  0  -0.126752  0  4.059711  0  0  -0.101538  -0.116419  0  4.022454  0
C  C43  1  0.55265304  0.42718968  0.34638596  1  0  -0.104099  0  3.78183  0  0  -0.120571  0  4.037086  0  0  -0.126836  0  4.059818  0  0  -0.101582  -0.116501  0  4.022556  0
C  C44  1  0.05265339  0.34638573  0.42718908  1  0  -0.104052  0  3.781761  0  0  -0.120515  0  4.037018  0  0  -0.12678  0  4.059748  0  0  -0.101554  -0.116446  0  4.022487  0
C  C45  1  0.44734699  0.57281077  0.65361445  1  0  -0.104017  0  3.781768  0  0  -0.120481  0  4.037019  0  0  -0.126746  0  4.05975  0  0  -0.101534  -0.116411  0  4.022489  0
C  C46  1  0.98910534  0.73592904  0.43412655  1  0  -0.038679  0  3.753894  0  0  -0.06041  0  4.000224  0  0  -0.05629  0  4.018529  0  0  -0.076459  -0.063336  0  3.988748  0
C  C47  1  0.51089365  0.56587522  0.26407019  1  0  -0.03864  0  3.753904  0  0  -0.06034  0  4.000192  0  0  -0.056223  0  4.018494  0  0  -0.076427  -0.063265  0  3.988716  0
C  C48  1  0.01089471  0.26407035  0.56587424  1  0  -0.038721  0  3.753887  0  0  -0.06043  0  4.000192  0  0  -0.056313  0  4.018495  0  0  -0.076462  -0.063355  0  3.988717  0
C  C49  1  0.48910507  0.43412629  0.73592986  1  0  -0.038713  0  3.753901  0  0  -0.060417  0  4.000213  0  0  -0.0563  0  4.018515  0  0  -0.076461  -0.063341  0  3.988734  0
C  C50  1  0.09550929  0.85376299  0.40414750  1  0  -0.22717  0  3.783641  0  0  -0.20987  0  4.025548  0  0  -0.223448  0  4.048122  0  0  -0.039567  -0.201142  0  4.010593  0
C  C51  1  0.40448958  0.59585303  0.14623653  1  0  -0.227192  0  3.783623  0  0  -0.20987  0  4.025519  0  0  -0.223448  0  4.048093  0  0  -0.03958  -0.201141  0  4.010563  0
C  C52  1  0.90449074  0.14623746  0.59585192  1  0  -0.22716  0  3.783625  0  0  -0.209845  0  4.025524  0  0  -0.223422  0  4.0481  0  0  -0.039584  -0.201116  0  4.010568  0
C  C53  1  0.59551045  0.40414742  0.85376290  1  0  -0.227172  0  3.783632  0  0  -0.209874  0  4.025564  0  0  -0.223453  0  4.048136  0  0  -0.039585  -0.201144  0  4.010607  0
C  C54  1  0.13922814  0.94207209  0.25659786  1  0  0.684031  0  3.898967  0  0  0.632198  0  4.191396  0  0  0.667544  0  4.182399  0  0  0.21872  0.608284  0  4.196656  0
C  C55  1  0.36076931  0.74340223  0.05792652  1  0  0.683956  0  3.898877  0  0  0.63212  0  4.191304  0  0  0.667466  0  4.182306  0  0  0.218646  0.608207  0  4.19656  0
C  C56  1  0.86076935  0.05792730  0.74340198  1  0  0.68394  0  3.898883  0  0  0.632103  0  4.19131  0  0  0.667448  0  4.182313  0  0  0.218645  0.608191  0  4.196564  0
C  C57  1  0.63922946  0.25659716  0.94207330  1  0  0.683961  0  3.898836  0  0  0.63212  0  4.191285  0  0  0.667467  0  4.182281  0  0  0.218673  0.608206  0  4.196539  0
O  O58  1  0.26807883  0.99805508  0.49301297  1  0  -0.546414  0  2.168336  0  0  -0.484603  0  2.382971  0  0  -0.505566  0  2.374828  0  0  -0.342309  -0.469553  0  2.388597  0
O  O59  1  0.23192118  0.50698648  0.00194409  1  0  -0.546362  0  2.168275  0  0  -0.484534  0  2.382919  0  0  -0.505494  0  2.374777  0  0  -0.342281  -0.469483  0  2.388546  0
O  O60  1  0.73192122  0.00194431  0.50698584  1  0  -0.546363  0  2.168286  0  0  -0.484537  0  2.382935  0  0  -0.505499  0  2.37479  0  0  -0.342287  -0.469486  0  2.38856  0
O  O61  1  0.76807887  0.49301291  0.99805670  1  0  -0.546409  0  2.168286  0  0  -0.484588  0  2.382938  0  0  -0.505551  0  2.374796  0  0  -0.342314  -0.469537  0  2.388565  0
O  O62  1  0.27151555  0.02264823  0.23274818  1  0  -0.692586  0  1.991078  0  0  -0.626057  0  2.212115  0  0  -0.651161  0  2.200777  0  0  -0.320443  -0.608347  0  2.219533  0
O  O63  1  0.22848286  0.76725189  0.97735016  1  0  -0.692502  0  1.990974  0  0  -0.625966  0  2.212005  0  0  -0.651072  0  2.200667  0  0  -0.320377  -0.60826  0  2.219428  0
O  O64  1  0.72848322  0.97735115  0.76725066  1  0  -0.692485  0  1.991004  0  0  -0.625947  0  2.212026  0  0  -0.65105  0  2.20069  0  0  -0.320361  -0.608236  0  2.219441  0
O  O65  1  0.77151717  0.23274856  0.02265025  1  0  -0.692567  0  1.991006  0  0  -0.626002  0  2.211991  0  0  -0.651118  0  2.200683  0  0  -0.320399  -0.608301  0  2.219429  0
O  O66  1  0.04830785  0.93825073  0.15503377  1  0  -0.74453  0  2.009809  0  0  -0.676299  0  2.26072  0  0  -0.703681  0  2.25057  0  0  -0.409052  -0.657116  0  2.267288  0
O  O67  1  0.45168986  0.84496635  0.06174812  1  0  -0.744546  0  2.009839  0  0  -0.676324  0  2.260772  0  0  -0.703708  0  2.250622  0  0  -0.409052  -0.65714  0  2.267339  0
O  O68  1  0.95168966  0.06174760  0.84496646  1  0  -0.744535  0  2.009838  0  0  -0.676311  0  2.260763  0  0  -0.703693  0  2.250614  0  0  -0.409049  -0.657127  0  2.26733  0
O  O69  1  0.54830891  0.15503304  0.93825170  1  0  -0.744485  0  2.009802  0  0  -0.676266  0  2.260737  0  0  -0.703647  0  2.250586  0  0  -0.409038  -0.657081  0  2.267303  0
O  O70  1  0.61039864  0.91580476  0.29641329  1  0  -0.889923  0  1.775201  0  0  -0.835405  0  1.95329  0  0  -0.854337  0  1.921587  0  0  -0.639935  -0.821586  0  1.976642  0
O  O71  1  0.88960112  0.70358665  0.08419556  1  0  -0.889915  0  1.775201  0  0  -0.8354  0  1.953298  0  0  -0.854332  0  1.921592  0  0  -0.639939  -0.821581  0  1.976649  0
O  O72  1  0.38960141  0.08419463  0.70358651  1  0  -0.889888  0  1.775253  0  0  -0.835368  0  1.953342  0  0  -0.854302  0  1.921637  0  0  -0.639916  -0.82155  0  1.976689  0
O  O73  1  0.11039893  0.29641274  0.91580523  1  0  -0.88993  0  1.775198  0  0  -0.835402  0  1.953312  0  0  -0.854332  0  1.921611  0  0  -0.639946  -0.821583  0  1.976664  0
