# generated using pymatgen
data_TbH15C20(N3O5)2
_symmetry_space_group_name_H-M   'P 1'
_cell_length_a   9.39023973
_cell_length_b   9.44775936
_cell_length_c   13.44700000
_cell_angle_alpha   73.72600835
_cell_angle_beta   81.79366811
_cell_angle_gamma   68.16275599
_symmetry_Int_Tables_number   1
_chemical_formula_structural   TbH15C20(N3O5)2
_chemical_formula_sum   'Tb2 H30 C40 N12 O20'
_cell_volume   1062.00883789
_cell_formula_units_Z   2
loop_
 _symmetry_equiv_pos_site_id
 _symmetry_equiv_pos_as_xyz
  1  'x, y, z'
loop_
 _atom_site_type_symbol
 _atom_site_label
 _atom_site_symmetry_multiplicity
 _atom_site_fract_x
 _atom_site_fract_y
 _atom_site_fract_z
 _atom_site_occupancy
 _atom_site_pbe_bader_charge
 _atom_site_pbe_bader_spin_density
 _atom_site_pbe_cm5_charge
 _atom_site_pbe_ddec_charge
 _atom_site_pbe_ddec_spin_density
 _atom_site_pbe_ddec_sum_bond_order
 _atom_site_pbe_magmom
Tb  Tb0  1  0.23418146  0.55112898  0.48463087  1  2.205246  0  1.504702  2.141985  0  2.101355  0
Tb  Tb1  1  0.76582088  0.44886944  0.51537055  1  2.205328  0  1.504733  2.142026  0  2.101305  0
H  H2  1  0.25343519  0.86765037  0.34531470  1  0.649031  0  0.289514  0.367965  0  0.978675  0
H  H3  1  0.74656339  0.13235277  0.65468765  1  0.649048  0  0.289505  0.367952  0  0.978701  0
H  H4  1  0.42686373  0.73774771  0.36387052  1  0.632021  0  0.299315  0.401028  0  0.932349  0
H  H5  1  0.57313525  0.26225425  0.63612979  1  0.632022  0  0.299326  0.401035  0  0.932333  0
H  H6  1  0.00989147  0.89703869  0.42039211  1  0.623732  0  0.315889  0.401215  0  0.91283  0
H  H7  1  0.99010253  0.10296209  0.57961116  1  0.623681  0  0.315867  0.401189  0  0.912885  0
H  H8  1  0.90807229  0.78509170  0.46653860  1  0.643568  0  0.300041  0.404179  0  0.931474  0
H  H9  1  0.09192347  0.21491026  0.53346575  1  0.643488  0  0.300047  0.404189  0  0.931476  0
H  H10  1  0.67962817  0.02605561  0.45866801  1  0.070273  0  0.11131  0.11879  0  0.992011  0
H  H11  1  0.32037470  0.97393811  0.54132907  1  0.070192  0  0.11128  0.118762  0  0.992044  0
H  H12  1  0.53888390  0.90222604  0.21349710  1  0.103032  0  0.111433  0.120036  0  0.986455  0
H  H13  1  0.46111334  0.09777474  0.78650064  1  0.102764  0  0.111449  0.120041  0  0.986458  0
H  H14  1  0.16187644  0.55687532  0.95320007  1  0.114678  0  0.110869  0.113047  0  1.057212  0
H  H15  1  0.83812550  0.44312429  0.04680338  1  0.114714  0  0.110887  0.113047  0  1.057254  0
H  H16  1  0.57588907  0.54574511  0.22632696  1  0.176967  0  0.149537  0.126182  0  0.985744  0
H  H17  1  0.42411112  0.45425332  0.77367467  1  0.176883  0  0.149554  0.126216  0  0.985703  0
H  H18  1  0.05258786  0.18515125  0.80803866  1  0.088548  0  0.108223  0.106532  0  1.040193  0
H  H19  1  0.94741140  0.81485307  0.19196041  1  0.088843  0  0.108191  0.106482  0  1.040201  0
H  H20  1  0.34869194  0.86896486  0.07982818  1  0.626987  0  0.293093  0.319618  0  1.029768  0
H  H21  1  0.65130745  0.13103592  0.92017232  1  0.626976  0  0.293103  0.319627  0  1.029862  0
H  H22  1  0.25420988  0.27405053  0.04077465  1  0.098583  0  0.103336  0.098979  0  1.054526  0
H  H23  1  0.74579138  0.72594789  0.95922613  1  0.098608  0  0.103336  0.098988  0  1.054537  0
H  H24  1  0.23675314  0.69632068  0.01103751  1  0.166846  0  0.132991  0.105928  0  1.038248  0
H  H25  1  0.76325203  0.30367892  0.98896042  1  0.166846  0  0.133023  0.105937  0  1.038267  0
H  H26  1  0.45679797  0.18180795  0.11482826  1  0.106133  0  0.113158  0.122002  0  1.027073  0
H  H27  1  0.54319846  0.81819519  0.88517133  1  0.106109  0  0.113124  0.121954  0  1.027096  0
H  H28  1  0.03484760  0.02373849  0.77015938  1  0.128787  0  0.132774  0.094276  0  1.028445  0
H  H29  1  0.96515058  0.97626583  0.22984352  1  0.128606  0  0.132799  0.094266  0  1.02847  0
H  H30  1  0.82844342  0.75299084  0.68433358  1  0.168481  0  0.149142  0.124796  0  0.978694  0
H  H31  1  0.17155624  0.24701229  0.31566792  1  0.168612  0  0.149133  0.124797  0  0.978704  0
C  C32  1  0.57751981  0.21885961  0.33068046  1  0.055397  0  -0.003213  -0.092929  0  3.9356  0
C  C33  1  0.42248226  0.78113646  0.66931921  1  0.055136  0  -0.003221  -0.092955  0  3.935692  0
C  C34  1  0.62968532  0.06007230  0.38338800  1  -0.027471  0  -0.075127  -0.100143  0  3.934983  0
C  C35  1  0.37031607  0.93992259  0.61660974  1  -0.02702  0  -0.075138  -0.100227  0  3.935025  0
C  C36  1  0.54870866  0.99080994  0.24666291  1  -0.030319  0  -0.075584  -0.068369  0  3.949787  0
C  C37  1  0.45129045  0.00918848  0.75333659  1  -0.030021  0  -0.075593  -0.068436  0  3.949593  0
C  C38  1  0.61380252  0.94538061  0.34334978  1  -0.0098  0  -0.021844  -0.047491  0  3.996806  0
C  C39  1  0.38619740  0.05461546  0.65664862  1  -0.010133  0  -0.021807  -0.04731  0  3.99663  0
C  C40  1  0.06399109  0.52942519  0.82858685  1  0.287948  0  0.114056  0.136672  0  3.962111  0
C  C41  1  0.93600977  0.47057441  0.17141448  1  0.287572  0  0.114054  0.136627  0  3.961994  0
C  C42  1  0.66632311  0.77759310  0.40252438  1  1.530151  0  0.202489  0.573065  0  4.216095  0
C  C43  1  0.33367601  0.22240532  0.59747438  1  1.530166  0  0.202485  0.572979  0  4.216159  0
C  C44  1  0.96743601  0.46744764  0.68152500  1  1.616716  0  0.230431  0.644165  0  4.203873  0
C  C45  1  0.03256795  0.53255549  0.31847681  1  1.616822  0  0.230301  0.644075  0  4.203947  0
C  C46  1  0.14206900  0.47350465  0.92068927  1  -0.035135  0  -0.085674  -0.161294  0  4.002835  0
C  C47  1  0.85793146  0.52649613  0.07931335  1  -0.034939  0  -0.085687  -0.16121  0  4.002781  0
C  C48  1  0.59074142  0.33295427  0.38431299  1  1.597952  0  0.232649  0.649202  0  4.197273  0
C  C49  1  0.40925742  0.66704180  0.61568924  1  1.597429  0  0.232562  0.649044  0  4.197344  0
C  C50  1  0.49055832  0.54890130  0.17861421  1  0.957043  0  0.175276  0.1179  0  3.861419  0
C  C51  1  0.50944321  0.45109949  0.82138534  1  0.957156  0  0.175262  0.117863  0  3.8614  0
C  C52  1  0.07807714  0.26683437  0.83928243  1  0.004159  0  -0.070396  -0.090175  0  3.935053  0
C  C53  1  0.92192292  0.73316758  0.16071926  1  0.003627  0  -0.070338  -0.090079  0  3.935064  0
C  C54  1  0.51286508  0.26225308  0.23382118  1  0.299043  0  0.117693  0.140574  0  3.95522  0
C  C55  1  0.48713658  0.73774417  0.76617830  1  0.299326  0  0.117688  0.1406  0  3.955222  0
C  C56  1  0.16018327  0.20900506  0.92968665  1  -0.010676  0  -0.016075  -0.042036  0  3.990491  0
C  C57  1  0.83981934  0.79099572  0.07031501  1  -0.010371  0  -0.016057  -0.042038  0  3.990519  0
C  C58  1  0.19250984  0.31440784  0.96989574  1  0.005686  0  -0.077489  -0.070346  0  3.970901  0
C  C59  1  0.80749022  0.68559412  0.03010521  1  0.005351  0  -0.077529  -0.070448  0  3.970805  0
C  C60  1  0.31948075  0.61884816  0.06916490  1  0.980248  0  0.147383  0.139751  0  3.982837  0
C  C61  1  0.68052415  0.38114909  0.93083426  1  0.980186  0  0.147351  0.139685  0  3.982882  0
C  C62  1  0.50128348  0.14737820  0.19157911  1  0.01124  0  -0.079023  -0.146659  0  3.965813  0
C  C63  1  0.49871671  0.85262023  0.80842029  1  0.010912  0  -0.078983  -0.146569  0  3.965702  0
C  C64  1  0.21346533  0.03648798  0.97734204  1  1.529855  0  0.226667  0.575143  0  4.128059  0
C  C65  1  0.78653580  0.96351398  0.02265805  1  1.529644  0  0.226749  0.575246  0  4.128024  0
C  C66  1  0.00819095  0.92547968  0.76256287  1  0.987093  0  0.148905  0.144687  0  4.003805  0
C  C67  1  0.99180656  0.07452345  0.23744107  1  0.9874  0  0.148943  0.144821  0  4.003768  0
C  C68  1  0.90222669  0.79131464  0.71739080  1  0.955022  0  0.172169  0.117814  0  3.865717  0
C  C69  1  0.09777229  0.20868732  0.28261248  1  0.954807  0  0.172177  0.117808  0  3.86576  0
C  C70  1  0.03286922  0.42502387  0.78582805  1  0.03557  0  -0.005647  -0.09813  0  3.942222  0
C  C71  1  0.96712869  0.57497809  0.21417460  1  0.035957  0  -0.005688  -0.098151  0  3.942145  0
N  N72  1  0.45724074  0.42150640  0.17621160  1  -0.842945  0  -0.112066  0.129307  0  3.725431  0
N  N73  1  0.54275905  0.57849320  0.82378910  1  -0.842956  0  -0.112082  0.129298  0  3.725559  0
N  N74  1  0.40509661  0.67494404  0.11185012  1  -1.17794  0  -0.318093  -0.308291  0  3.339603  0
N  N75  1  0.59490465  0.32505439  0.88814918  1  -1.177938  0  -0.318096  -0.308281  0  3.339544  0
N  N76  1  0.01508167  0.69397413  0.78364547  1  -0.82146  0  -0.111112  0.132772  0  3.730208  0
N  N77  1  0.98491732  0.30602782  0.21635856  1  -0.821523  0  -0.111114  0.132823  0  3.730177  0
N  N78  1  0.34722350  0.46626731  0.10546231  1  -0.692765  0  -0.218608  -0.260515  0  3.13421  0
N  N79  1  0.65277925  0.53372994  0.89453781  1  -0.692745  0  -0.21858  -0.260451  0  3.134251  0
N  N80  1  0.89522672  0.93940009  0.70217090  1  -1.205634  0  -0.322629  -0.345672  0  3.319933  0
N  N81  1  0.10477119  0.06060186  0.29783249  1  -1.205704  0  -0.322652  -0.345793  0  3.320016  0
N  N82  1  0.08358343  0.77998319  0.81286389  1  -0.666028  0  -0.210219  -0.233322  0  3.117767  0
N  N83  1  0.91641475  0.22002112  0.18713975  1  -0.665937  0  -0.210236  -0.233381  0  3.117707  0
O  O84  1  0.75186242  0.73226733  0.47986878  1  -1.180409  0  -0.348769  -0.629624  0  2.270773  0
O  O85  1  0.24813226  0.26773463  0.52013122  1  -1.180475  0  -0.348741  -0.629583  0  2.270903  0
O  O86  1  0.62518475  0.67887339  0.37599099  1  -1.18325  0  -0.352401  -0.628809  0  2.274856  0
O  O87  1  0.37481329  0.32112504  0.62400788  1  -1.183201  0  -0.352426  -0.628809  0  2.274817  0
O  O88  1  0.04073928  0.52298572  0.60322092  1  -1.21217  0  -0.408029  -0.696905  0  2.408333  0
O  O89  1  0.95926306  0.47701271  0.39678123  1  -1.212198  0  -0.407967  -0.69685  0  2.408291  0
O  O90  1  0.31550227  0.75473604  0.37301497  1  -1.283089  0  -0.652925  -0.854794  0  2.113028  0
O  O91  1  0.68449672  0.24526591  0.62698832  1  -1.283123  0  -0.652925  -0.854822  0  2.113005  0
O  O92  1  0.01321438  0.79152881  0.45793352  1  -1.252364  0  -0.635922  -0.84033  0  2.080442  0
O  O93  1  0.98678030  0.20847314  0.54207614  1  -1.252246  0  -0.635898  -0.840319  0  2.08048  0
O  O94  1  0.46848074  0.43026182  0.41351316  1  -1.196963  0  -0.405903  -0.697193  0  2.401923  0
O  O95  1  0.53152173  0.56973308  0.58648745  1  -1.19678  0  -0.405929  -0.697154  0  2.401752  0
O  O96  1  0.84737577  0.43927025  0.67645574  1  -1.169318  0  -0.380477  -0.638898  0  2.256083  0
O  O97  1  0.15262081  0.56073876  0.32354640  1  -1.169337  0  -0.380394  -0.638885  0  2.256239  0
O  O98  1  0.72481750  0.32133333  0.39987249  1  -1.15693  0  -0.381823  -0.640981  0  2.266578  0
O  O99  1  0.27518712  0.67866156  0.60013088  1  -1.156254  0  -0.381725  -0.640854  0  2.266733  0
O  O100  1  0.17566287  0.94680337  0.94452791  1  -1.148226  0  -0.286013  -0.495394  0  2.179878  0
O  O101  1  0.82433719  0.05319859  0.05547229  1  -1.148217  0  -0.286067  -0.495439  0  2.179884  0
O  O102  1  0.30792800  0.99029450  0.05515211  1  -1.153243  0  -0.33801  -0.479308  0  2.31806  0
O  O103  1  0.69206776  0.00970745  0.94484926  1  -1.152994  0  -0.338033  -0.479335  0  2.318088  0
