# generated using pymatgen
data_H6PbC9O4
_symmetry_space_group_name_H-M   'P 1'
_cell_length_a   6.70100548
_cell_length_b   9.48620364
_cell_length_c   13.50796995
_cell_angle_alpha   91.66926316
_cell_angle_beta   90.00161673
_cell_angle_gamma   89.99832653
_symmetry_Int_Tables_number   1
_chemical_formula_structural   H6PbC9O4
_chemical_formula_sum   'H24 Pb4 C36 O16'
_cell_volume   858.29812063
_cell_formula_units_Z   4
loop_
 _symmetry_equiv_pos_site_id
 _symmetry_equiv_pos_as_xyz
  1  'x, y, z'
loop_
 _atom_site_type_symbol
 _atom_site_label
 _atom_site_symmetry_multiplicity
 _atom_site_fract_x
 _atom_site_fract_y
 _atom_site_fract_z
 _atom_site_occupancy
 _atom_site_hle17_bader_spin_density
 _atom_site_hle17_ddec_charge
 _atom_site_hle17_ddec_spin_density
 _atom_site_hle17_ddec_sum_bond_order
 _atom_site_hle17_magmom
 _atom_site_hse06_10hf_bader_spin_density
 _atom_site_hse06_10hf_ddec_charge
 _atom_site_hse06_10hf_ddec_spin_density
 _atom_site_hse06_10hf_ddec_sum_bond_order
 _atom_site_hse06_10hf_magmom
 _atom_site_hse06_bader_spin_density
 _atom_site_hse06_ddec_charge
 _atom_site_hse06_ddec_spin_density
 _atom_site_hse06_ddec_sum_bond_order
 _atom_site_hse06_magmom
 _atom_site_pbe_bader_spin_density
 _atom_site_pbe_cm5_charge
 _atom_site_pbe_ddec_charge
 _atom_site_pbe_ddec_spin_density
 _atom_site_pbe_ddec_sum_bond_order
 _atom_site_pbe_magmom
H  H0  1  0.66475205  0.40179921  0.35502191  1  0  0.091606  0  0.968801  0  0  0.101888  0  1.031898  0  0  0.104453  0  1.031188  0  0  0.100141  0.100063  0  1.032418  0
H  H1  1  0.16470806  0.09820803  0.64495559  1  0  0.091468  0  0.968952  0  0  0.101847  0  1.031928  0  0  0.104415  0  1.031204  0  0  0.100171  0.100019  0  1.032461  0
H  H2  1  0.33526507  0.59819775  0.64498503  1  0  0.091636  0  0.968843  0  0  0.102019  0  1.031809  0  0  0.104577  0  1.031094  0  0  0.100198  0.10019  0  1.032331  0
H  H3  1  0.83528368  0.90178251  0.35504087  1  0  0.091471  0  0.968756  0  0  0.101868  0  1.031762  0  0  0.104436  0  1.03104  0  0  0.10017  0.100044  0  1.032285  0
H  H4  1  0.40470457  0.59861995  0.25449059  1  0  0.130398  0  0.938066  0  0  0.14444  0  0.998274  0  0  0.147123  0  0.997173  0  0  0.108314  0.142406  0  0.999169  0
H  H5  1  0.90464873  0.90139450  0.74548575  1  0  0.130541  0  0.937569  0  0  0.14454  0  0.997787  0  0  0.147189  0  0.996714  0  0  0.10839  0.142498  0  0.998691  0
H  H6  1  0.59532001  0.40137374  0.74550371  1  0  0.130292  0  0.93768  0  0  0.144348  0  0.997959  0  0  0.146994  0  0.99689  0  0  0.108255  0.142315  0  0.998856  0
H  H7  1  0.09533407  0.09858440  0.25450609  1  0  0.130423  0  0.937515  0  0  0.144469  0  0.997799  0  0  0.147132  0  0.996709  0  0  0.108386  0.142431  0  0.998699  0
H  H8  1  0.30239340  0.44637788  0.19743185  1  0  0.130952  0  0.94151  0  0  0.14213  0  1.0048  0  0  0.145128  0  1.003189  0  0  0.104959  0.139792  0  1.006311  0
H  H9  1  0.80234182  0.05362060  0.80255110  1  0  0.131182  0  0.941462  0  0  0.142273  0  1.004797  0  0  0.145267  0  1.00318  0  0  0.104918  0.139935  0  1.006309  0
H  H10  1  0.69763566  0.55360624  0.80255267  1  0  0.131091  0  0.941546  0  0  0.142154  0  1.004983  0  0  0.145143  0  1.003375  0  0  0.104903  0.139816  0  1.006494  0
H  H11  1  0.19765142  0.94638048  0.19744554  1  0  0.130946  0  0.94152  0  0  0.142139  0  1.004843  0  0  0.145127  0  1.003232  0  0  0.104918  0.139804  0  1.006355  0
H  H12  1  0.68574454  0.57586128  0.49709719  1  0  0.08097  0  0.957706  0  0  0.095718  0  1.01395  0  0  0.097801  0  1.013909  0  0  0.098813  0.09416  0  1.014137  0
H  H13  1  0.18568343  0.92416874  0.50288306  1  0  0.080669  0  0.957494  0  0  0.095427  0  1.013802  0  0  0.097488  0  1.013778  0  0  0.098662  0.093872  0  1.013985  0
H  H14  1  0.31425915  0.42414723  0.50290476  1  0  0.08082  0  0.957795  0  0  0.095533  0  1.014083  0  0  0.097613  0  1.014054  0  0  0.09875  0.093977  0  1.01427  0
H  H15  1  0.81430384  0.07584606  0.49711454  1  0  0.080747  0  0.957573  0  0  0.095486  0  1.013876  0  0  0.097559  0  1.013853  0  0  0.098699  0.093928  0  1.01406  0
H  H16  1  0.23279939  0.73595853  0.37600117  1  0  0.089828  0  0.957429  0  0  0.103416  0  1.016308  0  0  0.10573  0  1.016276  0  0  0.099697  0.101752  0  1.016495  0
H  H17  1  0.73271745  0.76407500  0.62399607  1  0  0.089698  0  0.957425  0  0  0.103375  0  1.016225  0  0  0.105662  0  1.016236  0  0  0.099686  0.10172  0  1.016391  0
H  H18  1  0.76722519  0.26406675  0.62398920  1  0  0.089759  0  0.957508  0  0  0.103326  0  1.016412  0  0  0.105638  0  1.016383  0  0  0.099663  0.101672  0  1.016576  0
H  H19  1  0.26722655  0.23592302  0.37601236  1  0  0.089669  0  0.957454  0  0  0.103301  0  1.016298  0  0  0.105612  0  1.016271  0  0  0.099642  0.101646  0  1.016465  0
H  H20  1  0.96991616  0.74566451  0.50548842  1  0  0.076994  0  0.971405  0  0  0.086355  0  1.037343  0  0  0.088595  0  1.03662  0  0  0.097557  0.084723  0  1.037947  0
H  H21  1  0.46983249  0.75433743  0.49452117  1  0  0.077021  0  0.971286  0  0  0.086258  0  1.037415  0  0  0.088477  0  1.036714  0  0  0.09758  0.08464  0  1.038025  0
H  H22  1  0.03012185  0.25430602  0.49451142  1  0  0.077104  0  0.971048  0  0  0.086351  0  1.03716  0  0  0.088575  0  1.036455  0  0  0.097589  0.084728  0  1.037769  0
H  H23  1  0.53015329  0.24569745  0.50548268  1  0  0.07696  0  0.970982  0  0  0.086208  0  1.037134  0  0  0.088429  0  1.036435  0  0  0.097561  0.084589  0  1.037737  0
Pb  Pb24  1  0.25106735  0.84859433  0.94997352  1  0  1.426535  0  1.363527  0  0  1.245973  0  1.749656  0  0  1.309664  0  1.70471  0  0  0.664986  1.199003  0  1.781598  0
Pb  Pb25  1  0.75104549  0.65141464  0.05002653  1  0  1.426616  0  1.36356  0  0  1.24608  0  1.749728  0  0  1.309778  0  1.704744  0  0  0.66497  1.19913  0  1.781659  0
Pb  Pb26  1  0.74893335  0.15142479  0.05003748  1  0  1.426566  0  1.363661  0  0  1.246012  0  1.749812  0  0  1.309705  0  1.704854  0  0  0.664958  1.199058  0  1.781715  0
Pb  Pb27  1  0.24893134  0.34859912  0.94997254  1  0  1.426595  0  1.363586  0  0  1.246116  0  1.749743  0  0  1.309797  0  1.704794  0  0  0.665003  1.199156  0  1.78167  0
C  C28  1  0.09754950  0.56584133  0.29173970  1  0  0.130127  0  3.713634  0  0  0.140039  0  3.950681  0  0  0.143525  0  3.973387  0  0  -0.002299  0.137836  0  3.935284  0
C  C29  1  0.59741092  0.93412913  0.70824206  1  0  0.130027  0  3.713836  0  0  0.140133  0  3.950648  0  0  0.143608  0  3.973346  0  0  -0.002033  0.137938  0  3.935235  0
C  C30  1  0.90248552  0.43415647  0.70824208  1  0  0.129955  0  3.713989  0  0  0.140164  0  3.950691  0  0  0.143648  0  3.973389  0  0  -0.002341  0.137965  0  3.935291  0
C  C31  1  0.40248532  0.06584965  0.29173571  1  0  0.129571  0  3.714161  0  0  0.139811  0  3.950919  0  0  0.143286  0  3.973624  0  0  -0.002242  0.137612  0  3.93552  0
C  C32  1  0.78648443  0.47774243  0.36025258  1  0  -0.055393  0  3.734392  0  0  -0.08035  0  3.984977  0  0  -0.078931  0  4.0038  0  0  -0.082711  -0.080983  0  3.971851  0
C  C33  1  0.28640333  0.02227421  0.63972452  1  0  -0.055816  0  3.734575  0  0  -0.080763  0  3.985182  0  0  -0.079343  0  4.003992  0  0  -0.083009  -0.0814  0  3.972068  0
C  C34  1  0.21351925  0.52229575  0.63976836  1  0  -0.055487  0  3.734534  0  0  -0.080507  0  3.985144  0  0  -0.079071  0  4.003944  0  0  -0.082778  -0.081132  0  3.972016  0
C  C35  1  0.71354813  0.97772039  0.36025276  1  0  -0.055458  0  3.734298  0  0  -0.080473  0  3.984925  0  0  -0.079043  0  4.003735  0  0  -0.082786  -0.081097  0  3.971783  0
C  C36  1  0.26791162  0.55622342  0.21943250  1  0  -0.334266  0  3.696335  0  0  -0.375996  0  3.9397  0  0  -0.382736  0  3.945737  0  0  -0.165403  -0.371174  0  3.935599  0
C  C37  1  0.76783497  0.94379982  0.78054358  1  0  -0.334857  0  3.696168  0  0  -0.376434  0  3.939106  0  0  -0.383127  0  3.945083  0  0  -0.165415  -0.371608  0  3.935012  0
C  C38  1  0.73215176  0.44378506  0.78056500  1  0  -0.334348  0  3.696218  0  0  -0.376112  0  3.939698  0  0  -0.382806  0  3.945727  0  0  -0.16523  -0.371295  0  3.935581  0
C  C39  1  0.23214334  0.05621057  0.21943026  1  0  -0.334116  0  3.696325  0  0  -0.376109  0  3.93986  0  0  -0.382799  0  3.945838  0  0  -0.165346  -0.371288  0  3.935764  0
C  C40  1  0.93285296  0.47344221  0.28599962  1  0  -0.11949  0  3.711134  0  0  -0.100345  0  3.944379  0  0  -0.108792  0  3.965391  0  0  -0.018646  -0.095136  0  3.930329  0
C  C41  1  0.43275654  0.02654231  0.71398193  1  0  -0.11848  0  3.710227  0  0  -0.099713  0  3.943869  0  0  -0.108145  0  3.964875  0  0  -0.01839  -0.094519  0  3.92982  0
C  C42  1  0.06720594  0.52653277  0.71402842  1  0  -0.119517  0  3.711228  0  0  -0.100565  0  3.944515  0  0  -0.109007  0  3.965496  0  0  -0.018735  -0.095367  0  3.930469  0
C  C43  1  0.56720387  0.97345965  0.28599251  1  0  -0.118986  0  3.71079  0  0  -0.100078  0  3.944239  0  0  -0.108526  0  3.965249  0  0  -0.018663  -0.094879  0  3.930193  0
C  C44  1  0.79804541  0.57559700  0.43870638  1  0  -0.073374  0  3.77631  0  0  -0.090082  0  4.03199  0  0  -0.09341  0  4.053572  0  0  -0.092095  -0.087488  0  4.016896  0
C  C45  1  0.29797721  0.92442794  0.56128643  1  0  -0.073049  0  3.776145  0  0  -0.089719  0  4.031805  0  0  -0.093027  0  4.053362  0  0  -0.092046  -0.087124  0  4.01671  0
C  C46  1  0.20203737  0.42441499  0.56133412  1  0  -0.073168  0  3.77568  0  0  -0.089808  0  4.031355  0  0  -0.093139  0  4.052928  0  0  -0.092087  -0.087217  0  4.016266  0
C  C47  1  0.70201752  0.07558255  0.43870000  1  0  -0.073237  0  3.776044  0  0  -0.089903  0  4.031729  0  0  -0.093226  0  4.053299  0  0  -0.092053  -0.087307  0  4.016633  0
C  C48  1  0.10575578  0.66397202  0.37107307  1  0  -0.126449  0  3.719683  0  0  -0.14673  0  3.970095  0  0  -0.150882  0  3.990662  0  0  -0.091713  -0.144086  0  3.956338  0
C  C49  1  0.60568575  0.83602879  0.62889820  1  0  -0.126053  0  3.719475  0  0  -0.146415  0  3.969786  0  0  -0.150563  0  3.990363  0  0  -0.091719  -0.143771  0  3.956027  0
C  C50  1  0.89430461  0.33599852  0.62892825  1  0  -0.12625  0  3.7197  0  0  -0.146541  0  3.97  0  0  -0.150689  0  3.990554  0  0  -0.091596  -0.143902  0  3.956249  0
C  C51  1  0.39428212  0.16396467  0.37106870  1  0  -0.126109  0  3.719307  0  0  -0.146445  0  3.969582  0  0  -0.150599  0  3.990148  0  0  -0.091679  -0.143808  0  3.955836  0
C  C52  1  0.90193509  0.37122077  0.20091256  1  0  0.657635  0  3.892576  0  0  0.60699  0  4.180183  0  0  0.642487  0  4.173685  0  0  0.212648  0.582878  0  4.183425  0
C  C53  1  0.40191502  0.12876547  0.79908191  1  0  0.65737  0  3.891966  0  0  0.606862  0  4.179523  0  0  0.642353  0  4.173016  0  0  0.212645  0.582758  0  4.182756  0
C  C54  1  0.09809546  0.62875208  0.79911248  1  0  0.657441  0  3.892238  0  0  0.606947  0  4.179639  0  0  0.642449  0  4.173125  0  0  0.212537  0.582843  0  4.18287  0
C  C55  1  0.59812448  0.87124187  0.20090594  1  0  0.657604  0  3.892057  0  0  0.606998  0  4.179654  0  0  0.642496  0  4.173146  0  0  0.212767  0.582891  0  4.182895  0
C  C56  1  0.95758363  0.66991314  0.44361193  1  0  -0.049505  0  3.784657  0  0  -0.065884  0  4.040913  0  0  -0.065586  0  4.061885  0  0  -0.086318  -0.065974  0  4.026517  0
C  C57  1  0.45747022  0.83005743  0.55640216  1  0  -0.049745  0  3.784261  0  0  -0.066126  0  4.040657  0  0  -0.065805  0  4.06159  0  0  -0.086338  -0.066241  0  4.026298  0
C  C58  1  0.04247527  0.33008379  0.55639204  1  0  -0.04977  0  3.783815  0  0  -0.066119  0  4.040186  0  0  -0.065806  0  4.061144  0  0  -0.086408  -0.066228  0  4.025815  0
C  C59  1  0.54250810  0.16993944  0.44359515  1  0  -0.04953  0  3.783556  0  0  -0.065883  0  4.039943  0  0  -0.065572  0  4.060901  0  0  -0.086336  -0.065993  0  4.025573  0
C  C60  1  0.24428074  0.63765525  0.12516573  1  0  0.731714  0  3.826635  0  0  0.675475  0  4.131124  0  0  0.711109  0  4.123507  0  0  0.223452  0.65066  0  4.135417  0
C  C61  1  0.74426996  0.86236211  0.87481363  1  0  0.731831  0  3.826968  0  0  0.675753  0  4.131182  0  0  0.711417  0  4.123504  0  0  0.22351  0.650917  0  4.135502  0
C  C62  1  0.75571101  0.36234475  0.87482792  1  0  0.73219  0  3.826967  0  0  0.67586  0  4.131596  0  0  0.711487  0  4.123971  0  0  0.223629  0.651051  0  4.135886  0
C  C63  1  0.25569941  0.13765266  0.12518028  1  0  0.73213  0  3.827167  0  0  0.676126  0  4.131337  0  0  0.711753  0  4.123708  0  0  0.22371  0.651308  0  4.135649  0
O  O64  1  0.10987914  0.73140332  0.11755527  1  0  -0.678906  0  1.991093  0  0  -0.603637  0  2.230307  0  0  -0.635538  0  2.223145  0  0  -0.287438  -0.580853  0  2.234825  0
O  O65  1  0.60989249  0.76860508  0.88245023  1  0  -0.678917  0  1.991502  0  0  -0.603708  0  2.230636  0  0  -0.63562  0  2.223455  0  0  -0.287478  -0.580922  0  2.235182  0
O  O66  1  0.89011708  0.26862215  0.88245732  1  0  -0.679116  0  1.991664  0  0  -0.603795  0  2.23094  0  0  -0.635711  0  2.223824  0  0  -0.287625  -0.580994  0  2.235399  0
O  O67  1  0.39011120  0.23138452  0.11755954  1  0  -0.679184  0  1.991542  0  0  -0.604009  0  2.230698  0  0  -0.635918  0  2.223549  0  0  -0.287587  -0.581203  0  2.235165  0
O  O68  1  0.83299053  0.24975610  0.21906690  1  0  -0.623041  0  1.972816  0  0  -0.556623  0  2.204297  0  0  -0.587459  0  2.200054  0  0  -0.287126  -0.535153  0  2.206353  0
O  O69  1  0.33295938  0.25026128  0.78097452  1  0  -0.622965  0  1.972183  0  0  -0.556712  0  2.203793  0  0  -0.587561  0  2.199567  0  0  -0.287282  -0.53525  0  2.205875  0
O  O70  1  0.16695048  0.75024831  0.78094978  1  0  -0.62308  0  1.972454  0  0  -0.556736  0  2.20388  0  0  -0.587583  0  2.199644  0  0  -0.287131  -0.535264  0  2.205945  0
O  O71  1  0.66701744  0.74973375  0.21905607  1  0  -0.623156  0  1.972144  0  0  -0.556769  0  2.203646  0  0  -0.587619  0  2.199412  0  0  -0.287267  -0.535305  0  2.205727  0
O  O72  1  0.93769044  0.41075639  0.11215104  1  0  -0.737703  0  2.011254  0  0  -0.658971  0  2.246225  0  0  -0.693049  0  2.241848  0  0  -0.301912  -0.634184  0  2.247837  0
O  O73  1  0.43765491  0.08923552  0.88784254  1  0  -0.737783  0  2.011749  0  0  -0.65895  0  2.246497  0  0  -0.693031  0  2.242142  0  0  -0.301892  -0.634163  0  2.248106  0
O  O74  1  0.06224758  0.58919628  0.88785665  1  0  -0.737337  0  2.011302  0  0  -0.658627  0  2.246182  0  0  -0.692701  0  2.241796  0  0  -0.301716  -0.633844  0  2.247789  0
O  O75  1  0.56235773  0.91077083  0.11215344  1  0  -0.737671  0  2.011661  0  0  -0.658888  0  2.246561  0  0  -0.692965  0  2.242183  0  0  -0.301905  -0.634102  0  2.248175  0
O  O76  1  0.36918893  0.61092535  0.05469530  1  0  -0.74862  0  2.054816  0  0  -0.663792  0  2.30126  0  0  -0.699207  0  2.294784  0  0  -0.294836  -0.638236  0  2.305069  0
O  O77  1  0.86918248  0.88905918  0.94528376  1  0  -0.7487  0  2.054696  0  0  -0.663979  0  2.301093  0  0  -0.6994  0  2.2946  0  0  -0.294981  -0.638421  0  2.304915  0
O  O78  1  0.63083117  0.38907475  0.94531021  1  0  -0.748801  0  2.054679  0  0  -0.663929  0  2.30113  0  0  -0.699338  0  2.294659  0  0  -0.294891  -0.638378  0  2.304934  0
O  O79  1  0.13077942  0.11093349  0.05471496  1  0  -0.748723  0  2.054865  0  0  -0.663983  0  2.301219  0  0  -0.699393  0  2.294745  0  0  -0.294957  -0.638431  0  2.305035  0
