# generated using pymatgen
data_Zr3H18(C15O8)2
_symmetry_space_group_name_H-M   'P 1'
_cell_length_a   17.42507687
_cell_length_b   17.40787205
_cell_length_c   18.43256103
_cell_angle_alpha   90.17810575
_cell_angle_beta   90.15854538
_cell_angle_gamma   109.52842516
_symmetry_Int_Tables_number   1
_chemical_formula_structural   Zr3H18(C15O8)2
_chemical_formula_sum   'Zr6 H36 C60 O32'
_cell_volume   5269.51472612
_cell_formula_units_Z   2
loop_
 _symmetry_equiv_pos_site_id
 _symmetry_equiv_pos_as_xyz
  1  'x, y, z'
loop_
 _atom_site_type_symbol
 _atom_site_label
 _atom_site_symmetry_multiplicity
 _atom_site_fract_x
 _atom_site_fract_y
 _atom_site_fract_z
 _atom_site_occupancy
 _atom_site_pbe_bader_charge
 _atom_site_pbe_bader_spin_density
 _atom_site_pbe_cm5_charge
 _atom_site_pbe_ddec_charge
 _atom_site_pbe_ddec_spin_density
 _atom_site_pbe_ddec_sum_bond_order
 _atom_site_pbe_magmom
Zr  Zr0  1  0.89549473  0.88297326  0.90934665  1  2.625799  0  1.581184  2.38344  0  2.737916  0
Zr  Zr1  1  0.90788750  0.89382960  0.10297117  1  2.625207  0  1.579975  2.386112  0  2.740137  0
Zr  Zr2  1  0.07289638  0.05876784  0.89818469  1  2.621994  0  1.577711  2.373166  0  2.750707  0
Zr  Zr3  1  0.08297200  0.07145463  0.09112548  1  2.622332  0  1.57746  2.374334  0  2.751154  0
Zr  Zr4  1  0.90222461  0.06488019  0.00007886  1  2.635124  0  1.609802  2.365053  0  2.757589  0
Zr  Zr5  1  0.07740011  0.88849566  0.00040323  1  2.635053  0  1.616299  2.357908  0  2.766851  0
H  H6  1  0.91537831  0.76675538  0.00603016  1  0.634931  0  0.335749  0.435071  0  0.836464  0
H  H7  1  0.92835533  0.05300642  0.15345893  1  0.609574  0  0.329731  0.42287  0  0.859336  0
H  H8  1  0.19936983  0.05059368  0.99530974  1  0.606756  0  0.335544  0.435336  0  0.835353  0
H  H9  1  0.91720248  0.04154300  0.84693682  1  0.607677  0  0.329719  0.42274  0  0.858592  0
H  H10  1  0.88750042  0.92680431  0.24466806  1  0.575634  0  0.299621  0.391806  0  0.906994  0
H  H11  1  0.00709984  0.99310016  0.21940917  1  0.650211  0  0.280744  0.407106  0  0.933164  0
H  H12  1  0.18781866  0.22216664  0.08438108  1  0.600796  0  0.300953  0.394294  0  0.905191  0
H  H13  1  0.18796792  0.17806271  0.98140097  1  0.629872  0  0.281675  0.406608  0  0.934329  0
H  H14  1  0.08745715  0.02437659  0.75993018  1  0.594713  0  0.300354  0.395095  0  0.904775  0
H  H15  1  0.97124749  0.95806428  0.78111768  1  0.644719  0  0.279336  0.405009  0  0.937491  0
H  H16  1  0.74265489  0.78191806  0.91805028  1  0.582753  0  0.300724  0.392887  0  0.90677  0
H  H17  1  0.78752263  0.78056438  0.01933944  1  0.636543  0  0.281064  0.408172  0  0.933309  0
H  H18  1  0.16848585  0.21786934  0.90576783  1  0.623683  0  0.324178  0.411735  0  0.879526  0
H  H19  1  0.87373969  0.91467761  0.76106652  1  0.601789  0  0.3258  0.407128  0  0.876589  0
H  H20  1  0.74779448  0.79826765  0.09618714  1  0.605391  0  0.324298  0.411769  0  0.877903  0
H  H21  1  0.10594660  0.03028134  0.22999733  1  0.624512  0  0.323328  0.41251  0  0.879315  0
H  H22  1  0.99230669  0.60111671  0.66752781  1  0.099992  0  0.109578  0.115013  0  0.9968  0
H  H23  1  0.98941702  0.35225235  0.66886640  1  0.058277  0  0.108158  0.112697  0  0.999646  0
H  H24  1  0.99030445  0.47859313  0.87065351  1  0.053106  0  0.116492  0.127242  0  0.976999  0
H  H25  1  0.99567313  0.60285860  0.33591350  1  0.085764  0  0.10958  0.11492  0  0.996697  0
H  H26  1  0.99227944  0.35384531  0.33066765  1  0.042776  0  0.108434  0.113946  0  0.99706  0
H  H27  1  0.99722979  0.48375535  0.13092901  1  0.073096  0  0.116556  0.127236  0  0.97739  0
H  H28  1  0.48272794  0.97007083  0.86960667  1  0.064984  0  0.116797  0.12819  0  0.976287  0
H  H29  1  0.61013193  0.96754116  0.66973719  1  0.073111  0  0.108173  0.112612  0  0.998386  0
H  H30  1  0.36403207  0.97167601  0.66441425  1  0.112162  0  0.109688  0.114566  0  0.995285  0
H  H31  1  0.48788155  0.97541189  0.13031234  1  0.062377  0  0.116865  0.128303  0  0.975221  0
H  H32  1  0.61269104  0.97050653  0.33175195  1  0.090965  0  0.108707  0.11366  0  0.99722  0
H  H33  1  0.36557067  0.97180812  0.33387471  1  0.075048  0  0.109609  0.113618  0  0.997385  0
H  H34  1  0.36390525  0.89079374  0.43202107  1  0.092947  0  0.104484  0.104139  0  0.997735  0
H  H35  1  0.61447925  0.04807226  0.43432905  1  0.055649  0  0.103519  0.102541  0  0.999285  0
H  H36  1  0.61371224  0.04766083  0.56796825  1  0.065064  0  0.10348  0.103575  0  0.999254  0
H  H37  1  0.36313932  0.89042797  0.56559308  1  0.06114  0  0.104379  0.104129  0  0.998505  0
H  H38  1  0.91724272  0.55327448  0.43368159  1  0.068349  0  0.104141  0.103451  0  0.998097  0
H  H39  1  0.06682204  0.39979538  0.43439431  1  0.065564  0  0.103893  0.104123  0  0.998643  0
H  H40  1  0.06571552  0.39934340  0.56776766  1  0.03489  0  0.10402  0.104492  0  0.998578  0
H  H41  1  0.91614400  0.55282045  0.56696815  1  0.059023  0  0.104229  0.103708  0  0.998933  0
C  C42  1  0.75808105  0.97110961  0.88453624  1  1.654351  0  0.237122  0.713491  0  4.186804  0
C  C43  1  0.99905193  0.75941589  0.12733421  1  1.681025  0  0.240055  0.710918  0  4.185802  0
C  C44  1  0.76532236  0.98003668  0.12089899  1  1.660012  0  0.237341  0.711036  0  4.189351  0
C  C45  1  0.99108860  0.75280930  0.88007521  1  1.681303  0  0.241312  0.712473  0  4.179482  0
C  C46  1  0.20673954  0.96777126  0.87208674  1  1.686792  0  0.239707  0.712402  0  4.183793  0
C  C47  1  0.99614366  0.20965212  0.11367037  1  1.667326  0  0.238534  0.713224  0  4.180898  0
C  C48  1  0.21332023  0.97390678  0.12217219  1  1.666334  0  0.239739  0.712106  0  4.185341  0
C  C49  1  0.98809309  0.20223334  0.88057123  1  1.65457  0  0.238139  0.712639  0  4.183776  0
C  C50  1  0.99073168  0.54745468  0.77283600  1  0.083288  0  0.003862  0.136684  0  4.139613  0
C  C51  1  0.99064259  0.54611961  0.69649077  1  -0.048152  0  -0.07338  -0.164915  0  3.880332  0
C  C52  1  0.99075629  0.47654408  0.65803180  1  -0.041757  0  -0.003837  0.077574  0  4.035905  0
C  C53  1  0.99080549  0.40768372  0.69728120  1  0.023068  0  -0.0756  -0.166374  0  3.88525  0
C  C54  1  0.99039339  0.40783831  0.77367848  1  0.017669  0  0.002761  0.131952  0  4.14224  0
C  C55  1  0.99043647  0.47799262  0.81158910  1  0.056336  0  -0.067406  -0.160398  0  3.850878  0
C  C56  1  0.99616990  0.55111964  0.22972619  1  0.023765  0  0.004348  0.137748  0  4.138136  0
C  C57  1  0.99452728  0.54837737  0.30602069  1  0.052858  0  -0.073937  -0.16563  0  3.881726  0
C  C58  1  0.99364414  0.47807145  0.34339404  1  -0.051735  0  -0.003818  0.07688  0  4.037563  0
C  C59  1  0.99433763  0.40980663  0.30310010  1  0.031946  0  -0.074986  -0.16822  0  3.882663  0
C  C60  1  0.99539513  0.41134663  0.22669798  1  0.104646  0  0.00282  0.134512  0  4.137681  0
C  C61  1  0.99634219  0.48223734  0.18993606  1  0.002923  0  -0.067049  -0.160653  0  3.850508  0
C  C62  1  0.41498046  0.96940130  0.77070622  1  0.039283  0  0.0051  0.138116  0  4.137279  0
C  C63  1  0.48399075  0.96993051  0.81058102  1  0.026513  0  -0.065764  -0.160098  0  3.846442  0
C  C64  1  0.55466292  0.97027172  0.77383459  1  0.062936  0  0.002984  0.134564  0  4.134379  0
C  C65  1  0.55559718  0.96943581  0.69742766  1  0.007183  0  -0.074943  -0.167157  0  3.883571  0
C  C66  1  0.48724968  0.96944391  0.65711366  1  -0.011008  0  -0.002591  0.077798  0  4.037779  0
C  C67  1  0.41738384  0.96983592  0.69438170  1  0.003939  0  -0.072613  -0.163305  0  3.88028  0
C  C68  1  0.41833268  0.97202110  0.22828280  1  0.163795  0  0.004775  0.135895  0  4.139826  0
C  C69  1  0.48820195  0.97408116  0.18935725  1  0.025077  0  -0.065426  -0.159005  0  3.846963  0
C  C70  1  0.55853225  0.97457321  0.22709255  1  0.093822  0  0.002455  0.133767  0  4.139102  0
C  C71  1  0.55829619  0.97224120  0.30345921  1  -0.042404  0  -0.074774  -0.167443  0  3.883955  0
C  C72  1  0.48909894  0.97077269  0.34280936  1  -0.040229  0  -0.003526  0.077837  0  4.036723  0
C  C73  1  0.41952405  0.97100299  0.30460005  1  -0.044983  0  -0.073048  -0.162429  0  3.880642  0
C  C74  1  0.41865542  0.92626362  0.46160395  1  -0.047416  0  -0.089096  -0.124713  0  3.99224  0
C  C75  1  0.48924302  0.96952848  0.42300429  1  0.01715  0  -0.008052  0.064003  0  4.006424  0
C  C76  1  0.55950893  0.01217113  0.46289453  1  -0.061786  0  -0.088771  -0.123275  0  3.992789  0
C  C77  1  0.55908141  0.01193058  0.53838076  1  -0.010431  0  -0.089525  -0.126932  0  3.9964  0
C  C78  1  0.48836544  0.96905235  0.57693345  1  0.012436  0  -0.007908  0.065663  0  4.007772  0
C  C79  1  0.41822191  0.92605294  0.53704193  1  -0.070008  0  -0.088453  -0.124449  0  3.993296  0
C  C80  1  0.95095441  0.52021781  0.46278330  1  -0.123477  0  -0.088645  -0.123765  0  3.99181  0
C  C81  1  0.99221555  0.47664911  0.42361626  1  0.001575  0  -0.008173  0.064859  0  4.005198  0
C  C82  1  0.03249359  0.43250457  0.46315462  1  -0.084096  0  -0.090676  -0.127464  0  3.994889  0
C  C83  1  0.03185685  0.43224950  0.53865517  1  0.000705  0  -0.090805  -0.12819  0  3.9956  0
C  C84  1  0.99091383  0.47610595  0.57780185  1  0.090204  0  -0.008321  0.064154  0  4.006299  0
C  C85  1  0.95032470  0.51995830  0.53822960  1  0.009091  0  -0.089267  -0.124812  0  3.994149  0
C  C86  1  0.99545120  0.34147347  0.18679042  1  -0.548835  0  -0.018396  -0.021321  0  4.070845  0
C  C87  1  0.99586641  0.28175859  0.15237869  1  0.267679  0  -0.044313  -0.195559  0  3.94663  0
C  C88  1  0.99797220  0.62363014  0.19377664  1  0.037392  0  -0.019754  -0.028131  0  4.073342  0
C  C89  1  0.99932495  0.68649154  0.16417412  1  -0.309499  0  -0.039537  -0.184584  0  3.940261  0
C  C90  1  0.98961336  0.33698392  0.81199176  1  -0.483356  0  -0.018827  -0.02111  0  4.07352  0
C  C91  1  0.98906358  0.27576757  0.84414050  1  0.208132  0  -0.044624  -0.196538  0  3.949103  0
C  C92  1  0.99184544  0.68083869  0.84148716  1  0.064559  0  -0.036715  -0.180103  0  3.940328  0
C  C93  1  0.99140512  0.61901973  0.81018682  1  -0.3228  0  -0.01979  -0.02933  0  4.075856  0
C  C94  1  0.28504608  0.97246370  0.16061360  1  -0.204421  0  -0.041386  -0.189938  0  3.942862  0
C  C95  1  0.34690229  0.97216182  0.19130600  1  -0.090443  0  -0.018595  -0.023839  0  4.072774  0
C  C96  1  0.62972545  0.97671709  0.18874681  1  -0.114737  0  -0.018201  -0.020572  0  4.07371  0
C  C97  1  0.69147157  0.97873415  0.15682003  1  -0.169569  0  -0.047178  -0.200025  0  3.953429  0
C  C98  1  0.27985832  0.96806667  0.83545222  1  -0.276756  0  -0.040324  -0.187157  0  3.94138  0
C  C99  1  0.34281898  0.96892874  0.80641572  1  -0.010659  0  -0.019288  -0.026572  0  4.071411  0
C  C100  1  0.62481582  0.97052353  0.81331776  1  -0.249738  0  -0.017825  -0.01862  0  4.071107  0
C  C101  1  0.68541049  0.97089899  0.84664726  1  -0.041438  0  -0.047405  -0.201437  0  3.951457  0
O  O102  1  0.78532026  0.91336215  0.86802485  1  -1.18103  0  -0.356607  -0.65778  0  2.2408  0
O  O103  1  0.78895762  0.02849864  0.92978720  1  -1.153777  0  -0.337947  -0.594529  0  2.21888  0
O  O104  1  0.94401538  0.78866046  0.14542995  1  -1.150066  0  -0.341073  -0.601647  0  2.22705  0
O  O105  1  0.05378021  0.78717169  0.07899976  1  -1.162638  0  -0.353665  -0.614682  0  2.233459  0
O  O106  1  0.79358109  0.92354004  0.13853902  1  -1.182216  0  -0.347948  -0.650866  0  2.245208  0
O  O107  1  0.79613321  0.03730199  0.07588687  1  -1.15756  0  -0.34304  -0.595558  0  2.221762  0
O  O108  1  0.93438267  0.78060230  0.86419783  1  -1.151463  0  -0.341401  -0.601787  0  2.232289  0
O  O109  1  0.04723543  0.78113080  0.92755921  1  -1.159738  0  -0.35376  -0.612969  0  2.232632  0
O  O110  1  0.79326451  0.78211645  0.94052297  1  -1.212952  0  -0.652395  -0.921677  0  1.89428  0
O  O111  1  0.91839001  0.90535502  0.78709764  1  -1.242574  0  -0.604115  -0.815998  0  2.017417  0
O  O112  1  0.79447992  0.78608050  0.07693050  1  -1.238528  0  -0.610644  -0.822879  0  2.005148  0
O  O113  1  0.93115521  0.92117065  0.21485987  1  -1.220241  0  -0.655431  -0.929622  0  1.886337  0
O  O114  1  0.87979816  0.94122367  0.00422531  1  -1.215198  0  -0.786834  -1.174959  0  2.101679  0
O  O115  1  0.93664561  0.82591734  0.00533832  1  -1.268812  0  -0.682637  -1.03932  0  2.239918  0
O  O116  1  0.17571613  0.02136806  0.85225654  1  -1.173625  0  -0.349386  -0.631942  0  2.231273  0
O  O117  1  0.18045284  0.91469335  0.92161406  1  -1.163102  0  -0.342395  -0.599098  0  2.232818  0
O  O118  1  0.05500899  0.18369206  0.12795481  1  -1.16883  0  -0.350794  -0.631219  0  2.232545  0
O  O119  1  0.93743677  0.17788660  0.06963876  1  -1.164827  0  -0.344306  -0.603181  0  2.21875  0
O  O120  1  0.18348834  0.02873672  0.14092385  1  -1.169329  0  -0.342943  -0.633885  0  2.235904  0
O  O121  1  0.18704576  0.92079501  0.07215528  1  -1.157859  0  -0.344701  -0.599322  0  2.233051  0
O  O122  1  0.04598580  0.17527878  0.86552125  1  -1.169459  0  -0.343469  -0.632987  0  2.238332  0
O  O123  1  0.92904826  0.17021046  0.92379537  1  -1.162881  0  -0.346842  -0.603237  0  2.220931  0
O  O124  1  0.18227902  0.17164944  0.92421869  1  -1.248435  0  -0.610348  -0.819152  0  2.003052  0
O  O125  1  0.04250113  0.03211402  0.78666080  1  -1.23615  0  -0.655123  -0.928848  0  1.882744  0
O  O126  1  0.18662695  0.17127304  0.06166269  1  -1.233363  0  -0.65535  -0.927324  0  1.884438  0
O  O127  1  0.05974175  0.04494694  0.21269582  1  -1.266053  0  -0.610334  -0.822115  0  1.99948  0
O  O128  1  0.14024339  0.02953109  0.99548092  1  -1.239433  0  -0.681392  -1.033768  0  2.231786  0
O  O129  1  0.02551112  0.08670955  0.99640351  1  -1.210249  0  -0.791441  -1.170104  0  2.125797  0
O  O130  1  0.02252668  0.93577483  0.92105869  1  -1.2098  0  -0.789686  -1.162607  0  2.098542  0
O  O131  1  0.94610879  0.03265523  0.10982903  1  -1.243555  0  -0.690391  -1.058693  0  2.301913  0
O  O132  1  0.93600254  0.02189776  0.89039053  1  -1.241642  0  -0.689643  -1.053399  0  2.29585  0
O  O133  1  0.03016423  0.94333222  0.08028531  1  -1.213908  0  -0.788487  -1.163388  0  2.092051  0
