# generated using pymatgen
data_ZnH24C22(N3O)2
_symmetry_space_group_name_H-M   'P 1'
_cell_length_a   8.10189588
_cell_length_b   10.59118028
_cell_length_c   12.24660000
_cell_angle_alpha   90.00000000
_cell_angle_beta   90.00000000
_cell_angle_gamma   97.89181791
_symmetry_Int_Tables_number   1
_chemical_formula_structural   ZnH24C22(N3O)2
_chemical_formula_sum   'Zn2 H48 C44 N12 O4'
_cell_volume   1040.91144106
_cell_formula_units_Z   2
loop_
 _symmetry_equiv_pos_site_id
 _symmetry_equiv_pos_as_xyz
  1  'x, y, z'
loop_
 _atom_site_type_symbol
 _atom_site_label
 _atom_site_symmetry_multiplicity
 _atom_site_fract_x
 _atom_site_fract_y
 _atom_site_fract_z
 _atom_site_occupancy
 _atom_site_hle17_bader_spin_density
 _atom_site_hle17_ddec_charge
 _atom_site_hle17_ddec_spin_density
 _atom_site_hle17_ddec_sum_bond_order
 _atom_site_hle17_magmom
 _atom_site_hse06_10hf_bader_spin_density
 _atom_site_hse06_10hf_ddec_charge
 _atom_site_hse06_10hf_ddec_spin_density
 _atom_site_hse06_10hf_ddec_sum_bond_order
 _atom_site_hse06_10hf_magmom
 _atom_site_hse06_bader_spin_density
 _atom_site_hse06_ddec_charge
 _atom_site_hse06_ddec_spin_density
 _atom_site_hse06_ddec_sum_bond_order
 _atom_site_hse06_magmom
 _atom_site_pbe_bader_charge
 _atom_site_pbe_bader_spin_density
 _atom_site_pbe_cm5_charge
 _atom_site_pbe_ddec_charge
 _atom_site_pbe_ddec_spin_density
 _atom_site_pbe_ddec_sum_bond_order
 _atom_site_pbe_magmom
Zn  Zn0  1  0.00000019  0.99999980  0.49999918  1  0  1.12547  0  1.856947  0  0  0.961083  0  2.319895  0  0  1.004626  0  2.264359  0  1.376444  0  0.729058  0.930883  0  2.357954  0
Zn  Zn1  1  0.49999903  0.49999942  0.99999918  1  0  1.125459  0  1.856985  0  0  0.961073  0  2.319933  0  0  1.004616  0  2.264399  0  1.376463  0  0.729056  0.930869  0  2.357997  0
H  H2  1  0.87438247  0.22526154  0.46647641  1  0  0.329568  0  0.970571  0  0  0.29494  0  1.055594  0  0  0.305929  0  1.045166  0  0.64474  0  0.283923  0.287238  0  1.062869  0
H  H3  1  0.62561583  0.27473788  0.96647641  1  0  0.329545  0  0.9706  0  0  0.294907  0  1.055634  0  0  0.305896  0  1.045207  0  0.644715  0  0.283913  0.287206  0  1.062907  0
H  H4  1  0.12561699  0.77473826  0.53352441  1  0  0.329567  0  0.970573  0  0  0.294941  0  1.055592  0  0  0.305929  0  1.045165  0  0.644739  0  0.283921  0.28724  0  1.062864  0
H  H5  1  0.37438065  0.72525906  0.03352441  1  0  0.329586  0  0.970554  0  0  0.294968  0  1.05555  0  0  0.305957  0  1.045122  0  0.644753  0  0.28394  0.287265  0  1.06283  0
H  H6  1  0.01949687  0.07159367  0.80684598  1  0  0.089336  0  0.975205  0  0  0.100076  0  1.03733  0  0  0.102275  0  1.037261  0  0.044483  0  0.093674  0.098483  0  1.0375  0
H  H7  1  0.48049969  0.42840576  0.30684598  1  0  0.08935  0  0.975181  0  0  0.100085  0  1.037316  0  0  0.102285  0  1.037248  0  0.044477  0  0.093674  0.098492  0  1.037487  0
H  H8  1  0.98049923  0.92840804  0.19315402  1  0  0.08935  0  0.975187  0  0  0.100093  0  1.037314  0  0  0.102293  0  1.037245  0  0.07507  0  0.093668  0.0985  0  1.037485  0
H  H9  1  0.51950101  0.57159404  0.69315157  1  0  0.089274  0  0.975232  0  0  0.100031  0  1.037349  0  0  0.102231  0  1.037279  0  0.044457  0  0.09365  0.098438  0  1.03752  0
H  H10  1  0.82091231  0.79987249  0.05220388  1  0  0.089888  0  0.972705  0  0  0.100995  0  1.034629  0  0  0.103109  0  1.034791  0  0.087852  0  0.093903  0.099582  0  1.03439  0
H  H11  1  0.67908866  0.70012673  0.55220224  1  0  0.089837  0  0.972746  0  0  0.100949  0  1.034659  0  0  0.103063  0  1.034821  0  0.088012  0  0.09388  0.099536  0  1.034418  0
H  H12  1  0.17908609  0.20012826  0.94779612  1  0  0.089908  0  0.972687  0  0  0.101015  0  1.034616  0  0  0.103129  0  1.034778  0  0.087949  0  0.093923  0.099601  0  1.034378  0
H  H13  1  0.32091222  0.29987402  0.44779612  1  0  0.08989  0  0.972718  0  0  0.100999  0  1.034635  0  0  0.103112  0  1.034797  0  0.087984  0  0.093899  0.099586  0  1.034396  0
H  H14  1  0.61447663  0.01624650  0.42795061  1  0  0.074671  0  0.964516  0  0  0.093938  0  1.029957  0  0  0.093777  0  1.031118  0  0.0943  0  0.094837  0.093918  0  1.029298  0
H  H15  1  0.88552325  0.48375483  0.92795225  1  0  0.074675  0  0.964527  0  0  0.093956  0  1.029948  0  0  0.093795  0  1.031108  0  0.094361  0  0.094862  0.093936  0  1.02929  0
H  H16  1  0.38552407  0.98375330  0.57204857  1  0  0.074658  0  0.964436  0  0  0.093923  0  1.029887  0  0  0.093762  0  1.031048  0  0.094313  0  0.094822  0.093903  0  1.029228  0
H  H17  1  0.11447498  0.51624498  0.07204857  1  0  0.074687  0  0.964519  0  0  0.093948  0  1.029962  0  0  0.093788  0  1.031123  0  0.094286  0  0.094837  0.093927  0  1.029305  0
H  H18  1  0.59943437  0.18280463  0.44340715  1  0  0.072883  0  0.948433  0  0  0.090259  0  1.015669  0  0  0.090692  0  1.015766  0  0.053914  0  0.09143  0.0899  0  1.015623  0
H  H19  1  0.90056534  0.31719575  0.94340715  1  0  0.072817  0  0.948457  0  0  0.090185  0  1.015721  0  0  0.090618  0  1.015819  0  0.053922  0  0.091397  0.089829  0  1.015673  0
H  H20  1  0.40056616  0.81719422  0.55659367  1  0  0.07286  0  0.948432  0  0  0.090236  0  1.015675  0  0  0.090669  0  1.015772  0  0.053893  0  0.091425  0.089875  0  1.01563  0
H  H21  1  0.09943412  0.68280406  0.05659285  1  0  0.072832  0  0.948475  0  0  0.090211  0  1.015718  0  0  0.090644  0  1.015814  0  0.053917  0  0.091396  0.089848  0  1.015675  0
H  H22  1  0.63890598  0.08846071  0.55944752  1  0  0.057671  0  0.978435  0  0  0.073126  0  1.051431  0  0  0.07397  0  1.0508  0  0.03632  0  0.083995  0.072467  0  1.051894  0
H  H23  1  0.86109356  0.41153871  0.05944670  1  0  0.057663  0  0.978467  0  0  0.073107  0  1.051473  0  0  0.073951  0  1.05084  0  0.036326  0  0.08399  0.072448  0  1.051936  0
H  H24  1  0.36109595  0.91153909  0.44055330  1  0  0.057659  0  0.978475  0  0  0.07312  0  1.051461  0  0  0.073963  0  1.050829  0  0.03632  0  0.084012  0.072461  0  1.051924  0
H  H25  1  0.13890293  0.58845823  0.94055330  1  0  0.057622  0  0.978528  0  0  0.073075  0  1.051514  0  0  0.073918  0  1.050883  0  0.036315  0  0.083979  0.072416  0  1.051975  0
H  H26  1  0.92834073  0.28674833  0.29258651  1  0  0.128033  0  0.963692  0  0  0.146667  0  1.024762  0  0  0.148674  0  1.024052  0  0.088687  0  0.099027  0.145102  0  1.025422  0
H  H27  1  0.57165651  0.21325205  0.79258651  1  0  0.128068  0  0.963709  0  0  0.146699  0  1.024779  0  0  0.148706  0  1.02407  0  0.088682  0  0.099025  0.145136  0  1.025436  0
H  H28  1  0.07165537  0.71325338  0.70741512  1  0  0.128072  0  0.963683  0  0  0.146706  0  1.024752  0  0  0.148713  0  1.024044  0  0.088683  0  0.099028  0.145141  0  1.025412  0
H  H29  1  0.42834278  0.78674680  0.20741430  1  0  0.128088  0  0.963662  0  0  0.146725  0  1.024719  0  0  0.148731  0  1.024011  0  0.088667  0  0.099042  0.145162  0  1.025377  0
H  H30  1  0.09459399  0.40173972  0.24509578  1  0  0.117574  0  0.96548  0  0  0.13714  0  1.028732  0  0  0.13768  0  1.029886  0  0.025333  0  0.095162  0.136586  0  1.028154  0
H  H31  1  0.40540662  0.09826161  0.74509741  1  0  0.117608  0  0.965502  0  0  0.137176  0  1.028741  0  0  0.137715  0  1.029897  0  0.025289  0  0.095166  0.136621  0  1.028164  0
H  H32  1  0.90540565  0.59826104  0.75490340  1  0  0.117589  0  0.965469  0  0  0.137164  0  1.028709  0  0  0.137704  0  1.029861  0  0.025317  0  0.095157  0.13661  0  1.028131  0
H  H33  1  0.59459285  0.90173819  0.25490340  1  0  0.1176  0  0.9655  0  0  0.137181  0  1.028728  0  0  0.137721  0  1.029881  0  0.025321  0  0.095158  0.136627  0  1.02815  0
H  H34  1  0.88738648  0.43549859  0.23808894  1  0  0.114928  0  0.965958  0  0  0.134666  0  1.03174  0  0  0.135393  0  1.032149  0  0.054694  0  0.095102  0.134081  0  1.031516  0
H  H35  1  0.61261183  0.06450083  0.73808976  1  0  0.114929  0  0.966004  0  0  0.134673  0  1.031768  0  0  0.135405  0  1.032171  0  0.054745  0  0.095086  0.134088  0  1.031544  0
H  H36  1  0.11261069  0.56450217  0.76191269  1  0  0.114944  0  0.965957  0  0  0.13468  0  1.03173  0  0  0.135411  0  1.032134  0  0.054717  0  0.095097  0.134095  0  1.031506  0
H  H37  1  0.38739011  0.93549897  0.26191269  1  0  0.114937  0  0.965999  0  0  0.134678  0  1.031765  0  0  0.135408  0  1.032172  0  0.0547  0  0.095086  0.134093  0  1.031542  0
H  H38  1  0.81595233  0.25025470  0.65144122  1  0  0.125452  0  0.955159  0  0  0.146403  0  1.014269  0  0  0.147712  0  1.014446  0  0.073089  0  0.100502  0.145297  0  1.014355  0
H  H39  1  0.68404721  0.24974473  0.15144203  1  0  0.125448  0  0.955178  0  0  0.146394  0  1.014291  0  0  0.147704  0  1.014467  0  0.07309  0  0.100493  0.145288  0  1.014377  0
H  H40  1  0.18404854  0.74974606  0.34855960  1  0  0.125408  0  0.955195  0  0  0.146383  0  1.014283  0  0  0.147692  0  1.014459  0  0.073073  0  0.100517  0.145279  0  1.014368  0
H  H41  1  0.31595243  0.75025603  0.84855878  1  0  0.125459  0  0.955161  0  0  0.146406  0  1.014275  0  0  0.147716  0  1.014451  0  0.073104  0  0.100508  0.145301  0  1.01436  0
H  H42  1  0.74899596  0.38894002  0.71014976  1  0  0.12935  0  0.938039  0  0  0.15109  0  0.99637  0  0  0.152183  0  0.996485  0  0.072895  0  0.100412  0.150201  0  0.996395  0
H  H43  1  0.75100481  0.11105940  0.21014976  1  0  0.129359  0  0.938072  0  0  0.151109  0  0.996391  0  0  0.152202  0  0.996505  0  0.072886  0  0.100406  0.150219  0  0.996417  0
H  H44  1  0.25100491  0.61106074  0.28985106  1  0  0.129335  0  0.938022  0  0  0.151083  0  0.99635  0  0  0.152176  0  0.996464  0  0.072893  0  0.100404  0.150192  0  0.996377  0
H  H45  1  0.24899465  0.88894040  0.78985106  1  0  0.129341  0  0.938077  0  0  0.151085  0  0.996404  0  0  0.152179  0  0.996517  0  0.07288  0  0.100398  0.150196  0  0.99643  0
H  H46  1  0.94532214  0.34652791  0.74538484  1  0  0.114964  0  0.953812  0  0  0.13621  0  1.015909  0  0  0.136575  0  1.017063  0  0.070291  0  0.096228  0.135882  0  1.015132  0
H  H47  1  0.55467757  0.15347247  0.24538484  1  0  0.114958  0  0.953806  0  0  0.136209  0  1.015902  0  0  0.136571  0  1.017059  0  0.070296  0  0.096227  0.135883  0  1.015124  0
H  H48  1  0.05467873  0.65347284  0.25461679  1  0  0.11496  0  0.953814  0  0  0.136213  0  1.015907  0  0  0.136565  0  1.017073  0  0.070312  0  0.096233  0.135886  0  1.015131  0
H  H49  1  0.44532189  0.84652734  0.75461679  1  0  0.114979  0  0.953802  0  0  0.136232  0  1.01589  0  0  0.136586  0  1.017055  0  0.070311  0  0.096232  0.135906  0  1.015113  0
C  C50  1  0.82421110  0.88705876  0.72511309  1  0  0.328916  0  3.861313  0  0  0.308822  0  4.128677  0  0  0.326635  0  4.145719  0  0.760299  0  0.187269  0.296785  0  4.116899  0
C  C51  1  0.67579127  0.61294142  0.22511228  1  0  0.328958  0  3.861296  0  0  0.308908  0  4.128669  0  0  0.326705  0  4.145694  0  0.760307  0  0.187316  0.296871  0  4.116891  0
C  C52  1  0.17578854  0.11294199  0.27488609  1  0  0.328896  0  3.861332  0  0  0.308804  0  4.128691  0  0  0.326622  0  4.145732  0  0.760273  0  0.187238  0.296767  0  4.11691  0
C  C53  1  0.32421330  0.38705934  0.77488772  1  0  0.329014  0  3.861359  0  0  0.308922  0  4.128714  0  0  0.326737  0  4.145753  0  0.760328  0  0.187304  0.296882  0  4.116934  0
C  C54  1  0.71467516  0.73500372  0.86311221  1  0  0.331128  0  3.870729  0  0  0.310994  0  4.136921  0  0  0.328733  0  4.154338  0  0.79323  0  0.190437  0.299011  0  4.124828  0
C  C55  1  0.78532227  0.76499646  0.36310976  1  0  0.33115  0  3.870652  0  0  0.311065  0  4.136839  0  0  0.328786  0  4.154242  0  0.793281  0  0.190469  0.299081  0  4.124751  0
C  C56  1  0.28532200  0.26499704  0.13688779  1  0  0.331159  0  3.870729  0  0  0.311031  0  4.13691  0  0  0.328774  0  4.154326  0  0.793176  0  0.190497  0.299047  0  4.124817  0
C  C57  1  0.21468107  0.23500430  0.63688861  1  0  0.331114  0  3.87052  0  0  0.310978  0  4.136718  0  0  0.328717  0  4.154135  0  0.792818  0  0.190462  0.298994  0  4.124623  0
C  C58  1  0.90715850  0.92562372  0.91824833  1  0  0.086907  0  3.846531  0  0  0.095995  0  4.083728  0  0  0.098575  0  4.108888  0  -0.057905  0  -0.018705  0.094196  0  4.066433  0
C  C59  1  0.59284017  0.57437646  0.41824833  1  0  0.086882  0  3.846471  0  0  0.096016  0  4.083655  0  0  0.098583  0  4.108809  0  -0.057937  0  -0.018686  0.094216  0  4.066363  0
C  C60  1  0.09284220  0.07437609  0.08175004  1  0  0.087056  0  3.846414  0  0  0.096134  0  4.083633  0  0  0.098716  0  4.108793  0  -0.057936  0  -0.0186  0.094334  0  4.066339  0
C  C61  1  0.40716194  0.42562429  0.58175004  1  0  0.087005  0  3.846446  0  0  0.096078  0  4.083667  0  0  0.09866  0  4.10883  0  -0.058072  0  -0.0186  0.094275  0  4.066372  0
C  C62  1  0.00957290  0.03974598  0.89164421  1  0  -0.133303  0  3.770595  0  0  -0.148607  0  4.017987  0  0  -0.151114  0  4.038294  0  0.010596  0  -0.108051  -0.146679  0  4.004266  0
C  C63  1  0.49042736  0.46025344  0.39164421  1  0  -0.133346  0  3.770606  0  0  -0.148661  0  4.018002  0  0  -0.151171  0  4.038314  0  0.010584  0  -0.108067  -0.146733  0  4.004282  0
C  C64  1  0.99042673  0.96025477  0.10835497  1  0  -0.13341  0  3.770539  0  0  -0.148731  0  4.01797  0  0  -0.15124  0  4.038277  0  -0.019991  0  -0.108101  -0.146803  0  4.00425  0
C  C65  1  0.50957368  0.53974827  0.60835334  1  0  -0.133437  0  3.770535  0  0  -0.148773  0  4.017969  0  0  -0.151282  0  4.038275  0  0.010741  0  -0.108169  -0.146845  0  4.004248  0
C  C66  1  0.81205328  0.84795048  0.83338314  1  0  -0.259076  0  4.003335  0  0  -0.241917  0  4.25212  0  0  -0.257904  0  4.274518  0  0.237167  0  -0.061676  -0.230687  0  4.236355  0
C  C67  1  0.68794840  0.65204589  0.33338396  1  0  -0.259082  0  4.003231  0  0  -0.242037  0  4.252141  0  0  -0.257973  0  4.274475  0  0.237118  0  -0.061714  -0.230806  0  4.236379  0
C  C68  1  0.18794618  0.15204932  0.16661604  1  0  -0.259131  0  4.003357  0  0  -0.24197  0  4.252157  0  0  -0.257968  0  4.274563  0  0.237134  0  -0.061733  -0.230737  0  4.236386  0
C  C69  1  0.31205936  0.34795201  0.66661522  1  0  -0.259126  0  4.003223  0  0  -0.241962  0  4.252016  0  0  -0.257951  0  4.274418  0  0.23717  0  -0.061706  -0.230723  0  4.236238  0
C  C70  1  0.89959823  0.88760114  0.02850097  1  0  -0.13598  0  3.777758  0  0  -0.15208  0  4.026611  0  0  -0.154653  0  4.047506  0  -0.064732  0  -0.108004  -0.1504  0  4.012263  0
C  C71  1  0.60039725  0.61240190  0.52849934  1  0  -0.135829  0  3.777661  0  0  -0.151929  0  4.0265  0  0  -0.154504  0  4.047399  0  -0.064956  0  -0.107927  -0.150249  0  4.012153  0
C  C72  1  0.10040123  0.11239866  0.97149821  1  0  -0.136111  0  3.777868  0  0  -0.152223  0  4.026738  0  0  -0.154796  0  4.047631  0  -0.064819  0  -0.108072  -0.150542  0  4.012392  0
C  C73  1  0.39960273  0.38760076  0.47149903  1  0  -0.136009  0  3.777883  0  0  -0.152114  0  4.026757  0  0  -0.154689  0  4.047652  0  -0.064834  0  -0.108013  -0.150434  0  4.012411  0
C  C74  1  0.66319844  0.10359959  0.47170235  1  0  -0.022902  0  3.676456  0  0  -0.118488  0  3.946746  0  0  -0.111833  0  3.950734  0  0.354831  0  -0.157823  -0.1228  0  3.943947  0
C  C75  1  0.83680127  0.39640079  0.97170235  1  0  -0.022827  0  3.676475  0  0  -0.118408  0  3.946762  0  0  -0.111754  0  3.950754  0  0.354766  0  -0.15781  -0.122724  0  3.943963  0
C  C76  1  0.33680332  0.89639926  0.52829765  1  0  -0.022872  0  3.676405  0  0  -0.118467  0  3.946699  0  0  -0.111812  0  3.950689  0  0.354806  0  -0.15784  -0.12278  0  3.943903  0
C  C77  1  0.16319696  0.60359901  0.02829765  1  0  -0.022846  0  3.676561  0  0  -0.11842  0  3.946841  0  0  -0.111765  0  3.95083  0  0.354869  0  -0.157795  -0.12273  0  3.944041  0
C  C78  1  0.97444664  0.38860163  0.28791665  1  0  -0.366269  0  3.699277  0  0  -0.446795  0  3.934529  0  0  -0.449111  0  3.943079  0  -0.055323  0  -0.238917  -0.444835  0  3.928862  0
C  C79  1  0.52555448  0.11139970  0.78791746  1  0  -0.366323  0  3.699384  0  0  -0.446864  0  3.934633  0  0  -0.449183  0  3.94318  0  -0.055307  0  -0.238881  -0.444905  0  3.928966  0
C  C80  1  0.02555300  0.61139912  0.71208417  1  0  -0.366329  0  3.699282  0  0  -0.44688  0  3.934545  0  0  -0.4492  0  3.943092  0  -0.055337  0  -0.238905  -0.44492  0  3.928878  0
C  C81  1  0.47444622  0.88860010  0.21208417  1  0  -0.366356  0  3.699343  0  0  -0.446912  0  3.934595  0  0  -0.449232  0  3.94314  0  -0.055252  0  -0.238912  -0.444953  0  3.928928  0
C  C82  1  0.98978537  0.44677983  0.39900136  1  0  0.222377  0  3.703312  0  0  0.218787  0  3.961765  0  0  0.222573  0  3.981893  0  0.521643  0  0.126868  0.215904  0  3.948402  0
C  C83  1  0.51021557  0.05322055  0.89900217  1  0  0.22245  0  3.703305  0  0  0.218828  0  3.961772  0  0  0.222613  0  3.981901  0  0.52163  0  0.126898  0.215945  0  3.948411  0
C  C84  1  0.01021673  0.55322093  0.60099864  1  0  0.222402  0  3.70329  0  0  0.218798  0  3.961753  0  0  0.222583  0  3.981883  0  0.521769  0  0.126901  0.215915  0  3.948392  0
C  C85  1  0.48978372  0.94677830  0.10099946  1  0  0.222405  0  3.703337  0  0  0.218773  0  3.961813  0  0  0.222557  0  3.981942  0  0.521675  0  0.12688  0.215889  0  3.948452  0
C  C86  1  0.93327906  0.42734770  0.58494439  1  0  0.21641  0  3.716592  0  0  0.213789  0  3.975979  0  0  0.217344  0  3.996703  0  0.551676  0  0.12693  0.211129  0  3.96219  0
C  C87  1  0.56672047  0.07265173  0.08494521  1  0  0.216395  0  3.716701  0  0  0.213818  0  3.976024  0  0  0.217374  0  3.996745  0  0.551672  0  0.126982  0.211158  0  3.962234  0
C  C88  1  0.06672304  0.57265306  0.41505642  1  0  0.216431  0  3.716576  0  0  0.213792  0  3.975986  0  0  0.217347  0  3.996707  0  0.551758  0  0.12695  0.211132  0  3.962196  0
C  C89  1  0.43327776  0.92734807  0.91505724  1  0  0.216391  0  3.716632  0  0  0.213788  0  3.975997  0  0  0.217344  0  3.996718  0  0.551781  0  0.126955  0.211129  0  3.962207  0
C  C90  1  0.85683829  0.34825608  0.67762236  1  0  -0.360291  0  3.700512  0  0  -0.44275  0  3.934679  0  0  -0.445054  0  3.944293  0  -0.105787  0  -0.235201  -0.440731  0  3.928109  0
C  C91  1  0.64316265  0.15174430  0.17762236  1  0  -0.360281  0  3.700555  0  0  -0.44277  0  3.934711  0  0  -0.445071  0  3.944326  0  -0.105786  0  -0.235194  -0.440749  0  3.92814  0
C  C92  1  0.14316258  0.65174467  0.32237764  1  0  -0.360211  0  3.700446  0  0  -0.442703  0  3.93461  0  0  -0.444992  0  3.944232  0  -0.105794  0  -0.235194  -0.440685  0  3.928041  0
C  C93  1  0.35683699  0.84825646  0.82237764  1  0  -0.360307  0  3.700526  0  0  -0.442786  0  3.934674  0  0  -0.445078  0  3.944295  0  -0.105799  0  -0.235204  -0.440767  0  3.928104  0
N  N94  1  0.63594765  0.64126699  0.89658599  1  0  -0.508294  0  2.846437  0  0  -0.458355  0  3.128223  0  0  -0.477009  0  3.132968  0  -1.281894  0  -0.348703  -0.445545  0  3.125009  0
N  N95  1  0.86405067  0.85873128  0.39658599  1  0  -0.508345  0  2.846525  0  0  -0.458436  0  3.128338  0  0  -0.477088  0  3.133086  0  -1.281811  0  -0.348755  -0.445626  0  3.125127  0
N  N96  1  0.36405288  0.35873186  0.10341319  1  0  -0.508324  0  2.846466  0  0  -0.458394  0  3.12826  0  0  -0.477048  0  3.133002  0  -1.281823  0  -0.348756  -0.445583  0  3.12505  0
N  N97  1  0.13595445  0.14126566  0.60341319  1  0  -0.508327  0  2.846344  0  0  -0.458378  0  3.128115  0  0  -0.47703  0  3.13286  0  -1.281457  0  -0.348744  -0.445568  0  3.124903  0
N  N98  1  0.84110965  0.92962529  0.63615861  1  0  -0.514287  0  2.826001  0  0  -0.464197  0  3.103956  0  0  -0.482748  0  3.108754  0  -1.267299  0  -0.350012  -0.451528  0  3.100644  0
N  N99  1  0.65889149  0.57037489  0.13615779  1  0  -0.514325  0  2.826024  0  0  -0.464241  0  3.103969  0  0  -0.482792  0  3.108768  0  -1.267323  0  -0.350031  -0.451571  0  3.100659  0
N  N100  1  0.15888858  0.07037451  0.36384058  1  0  -0.514263  0  2.825993  0  0  -0.464177  0  3.103961  0  0  -0.482728  0  3.108756  0  -1.267266  0  -0.349981  -0.451509  0  3.100649  0
N  N101  1  0.34110798  0.42962491  0.86383894  1  0  -0.514312  0  2.82606  0  0  -0.464228  0  3.104018  0  0  -0.482778  0  3.108814  0  -1.267315  0  -0.350019  -0.451559  0  3.100709  0
N  N102  1  0.92580492  0.37691814  0.48429360  1  0  -0.338736  0  3.135068  0  0  -0.287046  0  3.373767  0  0  -0.298716  0  3.390494  0  -1.233015  0  -0.289137  -0.279114  0  3.362837  0
N  N103  1  0.57419462  0.12308128  0.98429523  1  0  -0.338795  0  3.135175  0  0  -0.287074  0  3.37382  0  0  -0.298745  0  3.390549  0  -1.232984  0  -0.28919  -0.279143  0  3.362888  0
N  N104  1  0.07419455  0.62308166  0.51570640  1  0  -0.338764  0  3.135108  0  0  -0.287062  0  3.373809  0  0  -0.298731  0  3.390537  0  -1.233052  0  -0.289161  -0.279131  0  3.362878  0
N  N105  1  0.42580467  0.87691757  0.01570722  1  0  -0.338725  0  3.13507  0  0  -0.287048  0  3.373788  0  0  -0.298718  0  3.390517  0  -1.233055  0  -0.289162  -0.279117  0  3.36286  0
O  O106  1  0.83771803  0.13022559  0.45001551  1  0  -0.553611  0  2.293115  0  0  -0.474118  0  2.56074  0  0  -0.495916  0  2.549989  0  -1.198367  0  -0.407996  -0.458799  0  2.567893  0
O  O107  1  0.66228150  0.36977384  0.95001470  1  0  -0.553583  0  2.293084  0  0  -0.474095  0  2.560721  0  0  -0.495891  0  2.549971  0  -1.198372  0  -0.407984  -0.458774  0  2.567875  0
O  O108  1  0.16228267  0.86977421  0.54998449  1  0  -0.553599  0  2.293094  0  0  -0.474107  0  2.560723  0  0  -0.495903  0  2.549973  0  -1.198358  0  -0.407983  -0.458788  0  2.567874  0
O  O109  1  0.33771656  0.63022501  0.04998449  1  0  -0.553611  0  2.293106  0  0  -0.474126  0  2.560724  0  0  -0.495921  0  2.549974  0  -1.198422  0  -0.408  -0.458804  0  2.567877  0
