# generated using pymatgen
data_Co2H25C33N5O9
_symmetry_space_group_name_H-M   'P 1'
_cell_length_a   8.62911469
_cell_length_b   15.64235866
_cell_length_c   16.29161169
_cell_angle_alpha   104.33578533
_cell_angle_beta   102.24233815
_cell_angle_gamma   90.56965293
_symmetry_Int_Tables_number   1
_chemical_formula_structural   Co2H25C33N5O9
_chemical_formula_sum   'Co4 H50 C66 N10 O18'
_cell_volume   2077.57838948
_cell_formula_units_Z   2
loop_
 _symmetry_equiv_pos_site_id
 _symmetry_equiv_pos_as_xyz
  1  'x, y, z'
loop_
 _atom_site_type_symbol
 _atom_site_label
 _atom_site_symmetry_multiplicity
 _atom_site_fract_x
 _atom_site_fract_y
 _atom_site_fract_z
 _atom_site_occupancy
 _atom_site_pbe_bader_charge
 _atom_site_pbe_bader_spin_density
 _atom_site_pbe_cm5_charge
 _atom_site_pbe_ddec_charge
 _atom_site_pbe_ddec_spin_density
 _atom_site_pbe_ddec_sum_bond_order
 _atom_site_pbe_magmom
Co  Co0  1  0.35213759  0.94675441  0.35634836  1  1.31915  2.605999  0.686369  0.927643  2.842261  2.46178  2.589
Co  Co1  1  0.81724877  0.78635784  0.73574857  1  1.318975  2.606551  0.683798  0.909701  2.852274  2.515635  2.59
Co  Co2  1  0.64785794  0.05325027  0.64364610  1  1.319299  2.605902  0.686585  0.927905  2.842185  2.462474  2.589
Co  Co3  1  0.18273357  0.21364545  0.26424416  1  1.319345  2.606516  0.683937  0.910051  2.852319  2.515802  2.59
H  H4  1  0.39020750  0.82078098  0.75846993  1  0.081725  0.000377  0.100206  0.101802  8.2e-05  1.058056  0.0
H  H5  1  0.05275293  0.00697985  0.59998996  1  0.073592  0.00051  0.104068  0.109617  0.000155  1.035019  0.0
H  H6  1  0.23147996  0.95299115  0.16269937  1  0.136593  0.001831  0.116423  0.095327  0.00059  1.030663  0.001
H  H7  1  0.32193828  0.91113370  0.02291421  1  0.175309  0.000857  0.108502  0.136749  0.000382  1.048107  0.001
H  H8  1  0.76708237  0.84898331  0.16918493  1  0.071827  0.000967  0.106162  0.114  0.000446  0.99698  0.0
H  H9  1  0.64783740  0.88166136  0.29941993  1  0.078109  0.001584  0.110942  0.076499  0.000317  1.051253  0.001
H  H10  1  0.13779483  0.79748407  0.23281505  1  0.118088  0.001594  0.12164  0.095883  0.00018  0.993128  0.001
H  H11  1  0.09386037  0.63490353  0.20903919  1  0.064894  0.001014  0.107413  0.112692  0.00055  1.003416  0.0
H  H12  1  0.48843587  0.65251809  0.42852702  1  0.054504  0.001137  0.106623  0.111546  0.000595  1.007843  0.0
H  H13  1  0.50600560  0.81521309  0.44586996  1  0.121383  0.001829  0.121643  0.101889  0.000527  1.022791  0.001
H  H14  1  0.14421372  0.50046235  0.16839080  1  0.066156  0.000988  0.106496  0.109382  0.000561  1.004941  0.0
H  H15  1  0.10594977  0.33954731  0.15563273  1  0.116059  0.001679  0.122137  0.09539  0.000142  0.990052  0.001
H  H16  1  0.34456661  0.36678313  0.40941231  1  0.116279  0.001829  0.115101  0.084095  0.000353  1.003506  0.001
H  H17  1  0.38349236  0.53036988  0.43697535  1  0.076236  0.001054  0.104815  0.108976  0.000554  1.014796  0.0
H  H18  1  0.82930227  0.94266684  0.05786090  1  0.14574  0.001007  0.109279  0.130176  0.000486  1.013866  0.0
H  H19  1  0.92931327  0.89922391  0.92099050  1  0.152138  0.001469  0.119462  0.097928  0.000401  1.022776  0.001
H  H20  1  0.53659360  0.72596131  0.79680344  1  0.079307  0.001825  0.119604  0.087809  0.000397  0.995949  0.001
H  H21  1  0.41684822  0.76376361  0.92750889  1  0.094706  0.001034  0.112183  0.126642  0.000458  0.985024  0.0
H  H22  1  0.76666962  0.83339533  0.54920560  1  0.172135  0.00186  0.127097  0.074228  0.000587  1.028969  0.001
H  H23  1  0.98376613  0.79825482  0.37722187  1  0.083917  2.7e-05  0.107956  0.127453  -0.00015  1.007396  0.0
H  H24  1  0.77915245  0.79542359  0.38247606  1  0.05859  -4.4e-05  0.098449  0.108068  -0.000165  1.011793  0.0
H  H25  1  0.91258300  0.88719773  0.44655616  1  0.107359  0.000215  0.105531  0.124325  7e-05  1.01743  0.0
H  H26  1  0.12819925  0.71087323  0.44014100  1  0.079845  -0.000114  0.098375  0.107973  -0.000211  1.046774  0.0
H  H27  1  0.17025294  0.74891129  0.55586282  1  0.076689  0.000104  0.104465  0.125239  5e-06  1.0058  0.0
H  H28  1  0.04409367  0.65158473  0.50308466  1  0.033291  0.000135  0.10273  0.114933  1.2e-05  0.98207  0.0
H  H29  1  0.60983761  0.17922448  0.24151589  1  0.081009  0.000378  0.10017  0.101839  8.3e-05  1.057951  0.0
H  H30  1  0.94727188  0.99301610  0.39997431  1  0.073909  0.00051  0.104099  0.109721  0.000155  1.035083  0.0
H  H31  1  0.76852417  0.04698311  0.83728224  1  0.136615  0.001832  0.116361  0.095393  0.000591  1.030607  0.001
H  H32  1  0.67805777  0.08883934  0.97708283  1  0.175409  0.000857  0.108576  0.136821  0.000382  1.048101  0.001
H  H33  1  0.23293133  0.15098786  0.83081602  1  0.072319  0.000967  0.106143  0.113958  0.000446  0.997201  0.0
H  H34  1  0.35216436  0.11832287  0.70057171  1  0.078961  0.001583  0.11096  0.076498  0.000317  1.051319  0.001
H  H35  1  0.86218034  0.20251156  0.76721014  1  0.118489  0.001596  0.121579  0.09594  0.000181  0.992994  0.001
H  H36  1  0.90613341  0.36510012  0.79098984  1  0.064927  0.001015  0.107333  0.112596  0.00055  1.003356  0.0
H  H37  1  0.51156958  0.34746558  0.57147409  1  0.054592  0.001137  0.106606  0.111547  0.000596  1.007958  0.0
H  H38  1  0.49400763  0.18478910  0.55413380  1  0.121574  0.00183  0.12154  0.101748  0.000527  1.022565  0.001
H  H39  1  0.85577772  0.49955699  0.83162318  1  0.065977  0.000988  0.106458  0.109306  0.000561  1.005034  0.0
H  H40  1  0.89404619  0.66046135  0.84436393  1  0.115953  0.00168  0.122124  0.09534  0.000142  0.990002  0.001
H  H41  1  0.65546009  0.63322247  0.59059735  1  0.116056  0.001829  0.115123  0.084152  0.000354  1.003627  0.001
H  H42  1  0.61651585  0.46964153  0.56302877  1  0.076305  0.001053  0.10482  0.108958  0.000554  1.014927  0.0
H  H43  1  0.17070207  0.05734378  0.94213096  1  0.14554  0.001008  0.109312  0.130283  0.000486  1.013719  0.0
H  H44  1  0.07067690  0.10080110  0.07899274  1  0.152156  0.001468  0.119481  0.097935  0.000401  1.023033  0.001
H  H45  1  0.46341997  0.27406368  0.20316694  1  0.079425  0.001827  0.119621  0.087926  0.000398  0.995873  0.001
H  H46  1  0.58314129  0.23622167  0.07245774  1  0.094452  0.001034  0.112215  0.126688  0.000458  0.985089  0.0
H  H47  1  0.23332976  0.16658508  0.45080332  1  0.17213  0.001859  0.127172  0.074607  0.000587  1.028787  0.001
H  H48  1  0.01621764  0.20174478  0.62280024  1  0.083561  2.7e-05  0.108007  0.127539  -0.00015  1.007036  0.0
H  H49  1  0.22085619  0.20457737  0.61754043  1  0.058337  -4.5e-05  0.098433  0.108091  -0.000166  1.011632  0.0
H  H50  1  0.08740407  0.11278863  0.55345896  1  0.107254  0.000215  0.105432  0.124211  7e-05  1.017555  0.0
H  H51  1  0.87179081  0.28913668  0.55985040  1  0.080274  -0.000114  0.098398  0.107933  -0.000211  1.046974  0.0
H  H52  1  0.82975159  0.25109815  0.44414414  1  0.076748  0.000103  0.104511  0.125232  5e-06  1.005853  0.0
H  H53  1  0.95592020  0.34841091  0.49692380  1  0.033263  0.000135  0.102751  0.114992  1.2e-05  0.982314  0.0
C  C54  1  0.32542186  0.98258479  0.54667697  1  1.575263  0.005911  0.223237  0.601341  0.0041  4.168081  0.005
C  C55  1  0.53168820  0.86416482  0.64461034  1  1.576063  0.013288  0.212787  0.584634  0.008928  4.174929  0.01
C  C56  1  0.12910115  0.85789376  0.82122544  1  1.60457  0.007767  0.205302  0.580607  0.005597  4.236044  0.005
C  C57  1  0.92506578  0.97016315  0.72316751  1  1.57507  0.007711  0.215464  0.585333  0.005092  4.170569  0.006
C  C58  1  0.27599024  0.94396297  0.61415619  1  -0.056086  0.010042  -0.010778  -0.053633  0.005021  3.954871  0.007
C  C59  1  0.37115465  0.89074511  0.66024722  1  -0.020676  0.006585  -0.014651  -0.059455  0.003221  3.953278  0.004
C  C60  1  0.31594497  0.86238862  0.72447442  1  -0.078235  0.00379  -0.081939  -0.107  0.002005  3.936244  0.002
C  C61  1  0.17289341  0.88718386  0.74693491  1  0.028335  0.004388  -0.003811  -0.024819  0.001957  3.938396  0.003
C  C62  1  0.07921878  0.94110766  0.70169558  1  -0.009486  0.006515  -0.016851  -0.064287  0.003132  3.977918  0.005
C  C63  1  0.13038306  0.96696134  0.63496913  1  0.010927  0.002619  -0.08583  -0.128182  0.00142  3.958791  0.001
C  C64  1  0.34684207  0.92631057  0.16036123  1  0.44094  -0.006085  0.045304  0.104977  -0.006727  3.932702  -0.003
C  C65  1  0.39942963  0.90468559  0.08313797  1  -0.032124  0.005292  -0.082219  -0.173915  0.002468  3.898506  0.004
C  C66  1  0.55361610  0.87696396  0.08445817  1  -0.094617  -0.010342  0.011343  0.106887  -0.011095  3.982831  -0.006
C  C67  1  0.64607007  0.86997983  0.16406805  1  0.039931  0.004726  -0.086404  -0.175547  0.00222  3.962194  0.004
C  C68  1  0.58137940  0.88884995  0.23711936  1  0.479276  -0.00711  0.037148  0.087655  -0.008075  3.98834  -0.004
C  C69  1  0.21254903  0.76173266  0.27414695  1  0.468769  -0.014786  0.044874  0.083607  -0.015836  3.975158  -0.008
C  C70  1  0.19054664  0.67096343  0.26109475  1  -0.019793  -0.002699  -0.088739  -0.18573  -0.003967  3.974383  0.0
C  C71  1  0.28918712  0.62728943  0.31610058  1  -0.053964  -0.027926  0.002284  0.088041  -0.029805  4.010549  -0.016
C  C72  1  0.40627686  0.68088014  0.38338454  1  -0.038363  -0.002878  -0.08511  -0.175779  -0.00418  3.954025  0.0
C  C73  1  0.41894914  0.77156637  0.39332962  1  0.522746  -0.013541  0.047656  0.094659  -0.014214  3.92706  -0.007
C  C74  1  0.26816778  0.53141041  0.30454437  1  -0.020622  -0.032629  0.000664  0.091163  -0.035053  4.006429  -0.019
C  C75  1  0.18889247  0.47485128  0.22472661  1  -0.024968  -0.001608  -0.087947  -0.178189  -0.003208  3.964984  0.001
C  C76  1  0.16905796  0.38476858  0.21619130  1  0.463454  -0.018326  0.047382  0.094524  -0.019749  3.955512  -0.01
C  C77  1  0.30178073  0.40020022  0.35842005  1  0.434495  -0.018053  0.044498  0.099283  -0.018834  3.959377  -0.01
C  C78  1  0.32440017  0.49107188  0.37249667  1  0.006313  -0.000259  -0.08988  -0.185991  -0.002222  3.971417  0.002
C  C79  1  0.61636639  0.85471851  0.00477137  1  -0.026755  -0.007669  0.015211  0.112901  -0.008256  3.976471  -0.005
C  C80  1  0.76270377  0.89243026  0.00216152  1  -0.09098  0.00435  -0.078419  -0.167242  0.002011  3.910921  0.004
C  C81  1  0.81677733  0.87037138  0.92543823  1  0.490916  -0.004248  0.050439  0.107555  -0.004863  3.907985  -0.002
C  C82  1  0.59675752  0.77396068  0.85622293  1  0.456261  -0.004733  0.043007  0.080514  -0.005605  3.994129  -0.003
C  C83  1  0.53186968  0.79443805  0.92927788  1  0.010092  0.003541  -0.082238  -0.175371  0.001652  3.947829  0.003
C  C84  1  0.86213222  0.78717283  0.55408923  1  1.304172  -0.000279  0.166853  0.282882  -0.000821  4.068331  0.0
C  C85  1  0.90111705  0.81534252  0.42022999  1  0.202582  0.001101  -0.131271  -0.269961  0.000629  3.885472  0.001
C  C86  1  0.07891512  0.71737709  0.49768966  1  0.267267  0.000246  -0.134214  -0.257495  5.7e-05  3.892275  0.0
C  C87  1  0.67461174  0.01742757  0.45334850  1  1.575292  0.005895  0.223196  0.601233  0.004089  4.168904  0.005
C  C88  1  0.46832039  0.13585181  0.35538705  1  1.576815  0.013287  0.212816  0.584702  0.008933  4.174705  0.01
C  C89  1  0.87090566  0.14211819  0.17876577  1  1.60425  0.007784  0.205411  0.58068  0.005605  4.235182  0.005
C  C90  1  0.07492636  0.02983540  0.27680676  1  1.575116  0.007713  0.2152  0.584702  0.005089  4.17043  0.006
C  C91  1  0.72401672  0.05604587  0.38585641  1  -0.056121  0.010044  -0.010716  -0.053621  0.005022  3.954727  0.007
C  C92  1  0.62885040  0.10926771  0.33976855  1  -0.02146  0.006579  -0.014868  -0.059728  0.003218  3.953762  0.004
C  C93  1  0.68405046  0.13761285  0.27553034  1  -0.077639  0.003794  -0.081858  -0.10687  0.002007  3.93593  0.002
C  C94  1  0.82709376  0.11280888  0.25305529  1  0.02839  0.004385  -0.003797  -0.024994  0.001956  3.937748  0.003
C  C95  1  0.92076591  0.05888375  0.29829528  1  -0.009858  0.006518  -0.016838  -0.063905  0.003134  3.977855  0.005
C  C96  1  0.86961016  0.03304399  0.36502524  1  0.011298  0.002613  -0.085815  -0.128284  0.001417  3.959184  0.001
C  C97  1  0.65315384  0.07366242  0.83962964  1  0.441127  -0.006085  0.045422  0.104954  -0.006726  3.932621  -0.003
C  C98  1  0.60057571  0.09528679  0.91685377  1  -0.03279  0.005296  -0.082369  -0.174075  0.002469  3.898437  0.004
C  C99  1  0.44638958  0.12301299  0.91552852  1  -0.094  -0.010345  0.011562  0.10709  -0.011098  3.981956  -0.006
C  C100  1  0.35393625  0.12999183  0.83591749  1  0.040134  0.004729  -0.08671  -0.175787  0.002221  3.962219  0.004
C  C101  1  0.41862349  0.11112302  0.76286611  1  0.477786  -0.007111  0.037517  0.087966  -0.008077  3.988223  -0.004
C  C102  1  0.78743984  0.23826028  0.72586681  1  0.468274  -0.014803  0.044987  0.083593  -0.015853  3.975048  -0.008
C  C103  1  0.80945148  0.32903818  0.73892506  1  -0.01998  -0.002689  -0.088679  -0.185576  -0.003959  3.97402  0.0
C  C104  1  0.71081808  0.37271347  0.68391231  1  -0.053862  -0.027949  0.002297  0.088082  -0.029831  4.01033  -0.016
C  C105  1  0.59373715  0.31911556  0.61663008  1  -0.038443  -0.002864  -0.085018  -0.175825  -0.004169  3.954277  0.0
C  C106  1  0.58107085  0.22843001  0.60668519  1  0.522903  -0.013559  0.047674  0.094749  -0.01423  3.926789  -0.007
C  C107  1  0.73182825  0.46859574  0.69546706  1  -0.02095  -0.032604  0.000562  0.091107  -0.035027  4.006152  -0.019
C  C108  1  0.81111089  0.52515816  0.77528084  1  -0.024586  -0.001622  -0.087855  -0.178078  -0.003218  3.965088  0.001
C  C109  1  0.83094705  0.61523424  0.78381296  1  0.464306  -0.018304  0.047381  0.094471  -0.019725  3.955624  -0.01
C  C110  1  0.69821529  0.59979658  0.64157817  1  0.434587  -0.018023  0.044515  0.099169  -0.018804  3.959905  -0.01
C  C111  1  0.67558937  0.50893021  0.62750638  1  0.00621  -0.00027  -0.089803  -0.185866  -0.002228  3.971305  0.002
C  C112  1  0.38363699  0.14528159  0.99522411  1  -0.027288  -0.00766  0.015244  0.112956  -0.008246  3.975514  -0.005
C  C113  1  0.23727836  0.10758166  0.99783748  1  -0.090722  0.004346  -0.078432  -0.167283  0.00201  3.910611  0.004
C  C114  1  0.18320170  0.12965830  0.07455656  1  0.490895  -0.004237  0.050358  0.107453  -0.004854  3.908654  -0.002
C  C115  1  0.40323694  0.22605909  0.14376324  1  0.39351  -0.004672  0.042756  0.080163  -0.005595  3.994396  -0.003
C  C116  1  0.46811868  0.20557909  0.07071194  1  0.073723  0.003491  -0.082122  -0.17526  0.001652  3.947706  0.003
C  C117  1  0.13788594  0.21280632  0.44591833  1  1.303511  -0.000284  0.16674  0.282334  -0.000822  4.067889  0.0
C  C118  1  0.09888273  0.18465501  0.57977494  1  0.203347  0.001101  -0.13122  -0.270131  0.000629  3.885101  0.001
C  C119  1  0.92109099  0.28262570  0.50231041  1  0.266926  0.000246  -0.134307  -0.257624  5.7e-05  3.892938  0.0
N  N120  1  0.43507796  0.91844780  0.23675705  1  -1.210592  0.065889  -0.321395  -0.275935  0.035129  3.580273  0.058
N  N121  1  0.32471022  0.81202047  0.33918190  1  -1.229948  0.042808  -0.327499  -0.240684  0.022253  3.599027  0.041
N  N122  1  0.22534579  0.34688400  0.28158876  1  -1.195726  0.038915  -0.327722  -0.238742  0.019981  3.587028  0.039
N  N123  1  0.73552101  0.81184902  0.85322231  1  -1.223546  0.065885  -0.322144  -0.248589  0.035964  3.565188  0.055
N  N124  1  0.94153567  0.77097534  0.49038777  1  -1.178495  0.005107  -0.280849  0.026008  0.002531  3.691721  0.004
N  N125  1  0.56493437  0.08153580  0.76323373  1  -1.21036  0.065906  -0.321647  -0.276124  0.035141  3.580491  0.058
N  N126  1  0.67529704  0.18796790  0.66082724  1  -1.23014  0.042815  -0.327574  -0.240783  0.022258  3.599113  0.041
N  N127  1  0.77464456  0.65310226  0.71841379  1  -1.196164  0.038928  -0.327671  -0.238448  0.01999  3.587169  0.04
N  N128  1  0.26448423  0.18817148  0.14676702  1  -1.224217  0.065892  -0.322109  -0.248586  0.035975  3.565636  0.055
N  N129  1  0.05845302  0.22901944  0.50960920  1  -1.178458  0.00511  -0.280848  0.026413  0.002532  3.691492  0.004
O  O130  1  0.25553546  0.95106750  0.46823836  1  -1.146946  0.070385  -0.298869  -0.526965  0.03714  2.288459  0.059
O  O131  1  0.42539666  0.04991210  0.57416176  1  -1.139238  0.093716  -0.312003  -0.564452  0.048339  2.432586  0.077
O  O132  1  0.58336586  0.79527761  0.66811516  1  -1.159356  0.071886  -0.325043  -0.581545  0.037322  2.314468  0.058
O  O133  1  0.60604013  0.90996847  0.60914075  1  -1.184549  0.051404  -0.301662  -0.558169  0.026319  2.382548  0.043
O  O134  1  0.18525499  0.90360398  0.89650740  1  -1.169098  0.032031  -0.309203  -0.532933  0.01579  2.145686  0.027
O  O135  1  0.04093194  0.78499650  0.80237435  1  -1.137988  0.10903  -0.338268  -0.584914  0.055501  2.303259  0.089
O  O136  1  0.87399364  0.04146108  0.70467194  1  -1.155424  0.089277  -0.320588  -0.563589  0.046497  2.35009  0.072
O  O137  1  0.85248067  0.92484730  0.75983512  1  -1.176654  0.055267  -0.302809  -0.562211  0.028475  2.40785  0.048
O  O138  1  0.89498830  0.75281056  0.61721281  1  -1.156125  0.056386  -0.292774  -0.467609  0.029874  2.438968  0.048
O  O139  1  0.74443102  0.04893728  0.53178126  1  -1.147557  0.070371  -0.298941  -0.526818  0.037136  2.289317  0.059
O  O140  1  0.57461006  0.95011153  0.42588370  1  -1.13869  0.093665  -0.311977  -0.564546  0.04832  2.432864  0.077
O  O141  1  0.41658303  0.20472225  0.33187812  1  -1.159994  0.07193  -0.324926  -0.581528  0.037331  2.314699  0.058
O  O142  1  0.39395590  0.09005210  0.39086050  1  -1.184312  0.051413  -0.30176  -0.558245  0.026321  2.38192  0.043
O  O143  1  0.81473519  0.09641976  0.10348230  1  -1.169063  0.032019  -0.309125  -0.53287  0.015784  2.145515  0.027
O  O144  1  0.95907528  0.21502559  0.19764564  1  -1.137441  0.109092  -0.338347  -0.584948  0.055533  2.303123  0.089
O  O145  1  0.12599081  0.95853959  0.29532103  1  -1.155672  0.08926  -0.320455  -0.563308  0.046487  2.349839  0.072
O  O146  1  0.14750062  0.07516047  0.24014319  1  -1.176436  0.055218  -0.302701  -0.56196  0.028448  2.407548  0.048
O  O147  1  0.10504713  0.24716658  0.38278139  1  -1.155765  0.056448  -0.292699  -0.467557  0.029895  2.438755  0.048
