# generated using pymatgen
data_ZnH16C19N3O5
_symmetry_space_group_name_H-M   'P 1'
_cell_length_a   7.72525174
_cell_length_b   10.83859643
_cell_length_c   12.43551665
_cell_angle_alpha   67.40357289
_cell_angle_beta   73.65697371
_cell_angle_gamma   80.42309943
_symmetry_Int_Tables_number   1
_chemical_formula_structural   ZnH16C19N3O5
_chemical_formula_sum   'Zn2 H32 C38 N6 O10'
_cell_volume   920.46695879
_cell_formula_units_Z   2
loop_
 _symmetry_equiv_pos_site_id
 _symmetry_equiv_pos_as_xyz
  1  'x, y, z'
loop_
 _atom_site_type_symbol
 _atom_site_label
 _atom_site_symmetry_multiplicity
 _atom_site_fract_x
 _atom_site_fract_y
 _atom_site_fract_z
 _atom_site_occupancy
 _atom_site_hle17_bader_spin_density
 _atom_site_hle17_ddec_charge
 _atom_site_hle17_ddec_spin_density
 _atom_site_hle17_ddec_sum_bond_order
 _atom_site_hle17_magmom
 _atom_site_hse06_10hf_bader_spin_density
 _atom_site_hse06_10hf_ddec_charge
 _atom_site_hse06_10hf_ddec_spin_density
 _atom_site_hse06_10hf_ddec_sum_bond_order
 _atom_site_hse06_10hf_magmom
 _atom_site_hse06_bader_spin_density
 _atom_site_hse06_ddec_charge
 _atom_site_hse06_ddec_spin_density
 _atom_site_hse06_ddec_sum_bond_order
 _atom_site_hse06_magmom
 _atom_site_pbe_bader_spin_density
 _atom_site_pbe_cm5_charge
 _atom_site_pbe_ddec_charge
 _atom_site_pbe_ddec_spin_density
 _atom_site_pbe_ddec_sum_bond_order
 _atom_site_pbe_magmom
Zn  Zn0  1  0.14876932  0.11838615  0.27075678  1  0  1.050186  0  1.862286  0  0  0.874474  0  2.334982  0  0  0.921861  0  2.279079  0  0  0.687979  0.841047  0  2.373491  0
Zn  Zn1  1  0.85123163  0.88161497  0.72924204  1  0  1.05018  0  1.862368  0  0  0.874469  0  2.335077  0  0  0.921855  0  2.279174  0  0  0.687974  0.841036  0  2.373587  0
H  H2  1  0.71769569  0.24756590  0.19141218  1  0  0.094591  0  0.960171  0  0  0.103446  0  1.027715  0  0  0.106236  0  1.026249  0  0  0.098306  0.101526  0  1.02838  0
H  H3  1  0.28230535  0.75243421  0.80858857  1  0  0.094599  0  0.960187  0  0  0.10346  0  1.027725  0  0  0.106248  0  1.02626  0  0  0.098313  0.10154  0  1.028388  0
H  H4  1  0.95453956  0.40096007  0.14545255  1  0  0.117444  0  0.974545  0  0  0.126403  0  1.036869  0  0  0.129912  0  1.035343  0  0  0.103485  0.123774  0  1.038221  0
H  H5  1  0.04546147  0.59904005  0.85454740  1  0  0.117408  0  0.974632  0  0  0.126398  0  1.036914  0  0  0.129908  0  1.035384  0  0  0.103479  0.123768  0  1.038267  0
H  H6  1  0.54958556  0.73101066  0.11581687  1  0  0.085907  0  0.976809  0  0  0.09457  0  1.042907  0  0  0.096556  0  1.043603  0  0  0.095366  0.093098  0  1.042535  0
H  H7  1  0.45041286  0.26898847  0.88418387  1  0  0.0859  0  0.976815  0  0  0.094549  0  1.042929  0  0  0.096533  0  1.043625  0  0  0.095366  0.093078  0  1.042558  0
H  H8  1  0.31528344  0.57765838  0.16331673  1  0  0.108324  0  0.96912  0  0  0.115886  0  1.035459  0  0  0.119783  0  1.031853  0  0  0.102338  0.112975  0  1.038191  0
H  H9  1  0.68471488  0.42234176  0.83668209  1  0  0.108309  0  0.969171  0  0  0.115872  0  1.035513  0  0  0.119768  0  1.031908  0  0  0.102322  0.112969  0  1.038237  0
H  H10  1  0.03167655  0.65342609  0.03973868  1  0  0.109263  0  0.925073  0  0  0.123769  0  0.986521  0  0  0.125042  0  0.985832  0  0  0.123353  0.122781  0  0.986993  0
H  H11  1  0.96832320  0.34657303  0.96026102  1  0  0.109221  0  0.925128  0  0  0.123763  0  0.986558  0  0  0.125034  0  0.985874  0  0  0.123363  0.122774  0  0.987028  0
H  H12  1  0.96581124  0.63475174  0.19265394  1  0  0.103729  0  0.918492  0  0  0.119223  0  0.979237  0  0  0.12115  0  0.976548  0  0  0.119883  0.117805  0  0.981141  0
H  H13  1  0.03418842  0.36524840  0.80734383  1  0  0.103715  0  0.918489  0  0  0.119202  0  0.979266  0  0  0.121128  0  0.976578  0  0  0.119869  0.117783  0  0.98117  0
H  H14  1  0.78988706  0.78862546  0.25762546  1  0  0.090578  0  0.933166  0  0  0.103227  0  0.990717  0  0  0.106567  0  0.986985  0  0  0.128029  0.100652  0  0.993524  0
H  H15  1  0.21011421  0.21137165  0.74237543  1  0  0.090586  0  0.933103  0  0  0.103235  0  0.990659  0  0  0.106576  0  0.986924  0  0  0.128039  0.100662  0  0.993466  0
H  H16  1  0.65141424  0.02784033  0.21345765  1  0  0.122658  0  0.964261  0  0  0.12955  0  1.029204  0  0  0.134177  0  1.026871  0  0  0.107888  0.12638  0  1.030806  0
H  H17  1  0.34858568  0.97215679  0.78654348  1  0  0.122668  0  0.964233  0  0  0.129574  0  1.02916  0  0  0.134203  0  1.026825  0  0  0.107885  0.126402  0  1.030766  0
H  H18  1  0.67734751  0.17433898  0.99882908  1  0  0.110813  0  0.926174  0  0  0.122791  0  0.984688  0  0  0.125979  0  0.98138  0  0  0.116058  0.120577  0  0.986738  0
H  H19  1  0.32265362  0.82566012  0.00117279  1  0  0.110798  0  0.92617  0  0  0.122775  0  0.984694  0  0  0.125962  0  0.981387  0  0  0.116054  0.120559  0  0.986744  0
H  H20  1  0.93863302  0.32892200  0.39280365  1  0  0.110268  0  0.935732  0  0  0.121093  0  0.993553  0  0  0.124074  0  0.989696  0  0  0.142632  0.118826  0  0.996437  0
H  H21  1  0.06136540  0.67107713  0.60719709  1  0  0.110295  0  0.935747  0  0  0.121119  0  0.993561  0  0  0.124099  0  0.989708  0  0  0.142635  0.11885  0  0.996445  0
H  H22  1  0.52152751  0.05932510  0.57394867  1  0  0.111032  0  0.96421  0  0  0.121923  0  1.025762  0  0  0.124025  0  1.025301  0  0  0.123089  0.120414  0  1.026148  0
H  H23  1  0.47847226  0.94067402  0.42605183  1  0  0.11105  0  0.964165  0  0  0.121945  0  1.025716  0  0  0.124047  0  1.025255  0  0  0.123094  0.120436  0  1.026104  0
H  H24  1  0.80710295  0.94746692  0.43820089  1  0  0.106556  0  0.942073  0  0  0.119113  0  0.995766  0  0  0.121558  0  0.994865  0  0  0.121241  0.117334  0  0.996517  0
H  H25  1  0.19289966  0.05253019  0.56179897  1  0  0.10658  0  0.942074  0  0  0.119134  0  0.995765  0  0  0.121579  0  0.994863  0  0  0.121252  0.117358  0  0.996519  0
H  H26  1  0.66492451  0.31659865  0.62135843  1  0  0.097995  0  0.927256  0  0  0.10927  0  0.99112  0  0  0.111233  0  0.989488  0  0  0.113105  0.107707  0  0.992479  0
H  H27  1  0.33508060  0.68340142  0.37864402  1  0  0.097987  0  0.927272  0  0  0.109234  0  0.991148  0  0  0.111195  0  0.989517  0  0  0.1131  0.10767  0  0.992502  0
H  H28  1  0.46415202  0.27054668  0.60880193  1  0  0.063052  0  0.934293  0  0  0.080491  0  0.995068  0  0  0.080519  0  0.995206  0  0  0.10815  0.080386  0  0.995052  0
H  H29  1  0.53584506  0.72945244  0.39119986  1  0  0.063025  0  0.934255  0  0  0.080441  0  0.995053  0  0  0.08047  0  0.99519  0  0  0.108112  0.080332  0  0.99504  0
H  H30  1  0.49973393  0.44824170  0.40041618  1  0  0.080558  0  0.940039  0  0  0.097299  0  0.999265  0  0  0.097465  0  1.001686  0  0  0.09543  0.097112  0  0.99766  0
H  H31  1  0.50026569  0.55175941  0.59958531  1  0  0.080559  0  0.940047  0  0  0.097297  0  0.999274  0  0  0.09746  0  1.001701  0  0  0.095437  0.097108  0  0.997668  0
H  H32  1  0.69105765  0.49978824  0.41864276  1  0  0.066878  0  0.927139  0  0  0.088661  0  0.980808  0  0  0.088661  0  0.982182  0  0  0.093912  0.088534  0  0.979955  0
H  H33  1  0.30894458  0.50021387  0.58135712  1  0  0.066899  0  0.927109  0  0  0.088657  0  0.980807  0  0  0.088674  0  0.982159  0  0  0.093912  0.088531  0  0.979951  0
C  C34  1  0.35007629  0.31260397  0.21814514  1  0  0.629134  0  3.928907  0  0  0.584884  0  4.211167  0  0  0.619307  0  4.204426  0  0  0.193892  0.561656  0  4.214899  0
C  C35  1  0.64992622  0.68739416  0.78185198  1  0  0.629201  0  3.928896  0  0  0.584986  0  4.21111  0  0  0.619411  0  4.204368  0  0  0.193933  0.561755  0  4.214844  0
C  C36  1  0.49973932  0.40222318  0.18148204  1  0  -0.081694  0  3.787626  0  0  -0.05738  0  4.017466  0  0  -0.0673  0  4.041878  0  0  -0.026438  -0.051231  0  4.001383  0
C  C37  1  0.50026151  0.59777897  0.81851326  1  0  -0.081677  0  3.787705  0  0  -0.057382  0  4.017558  0  0  -0.067305  0  4.041973  0  0  -0.026446  -0.051234  0  4.001475  0
C  C38  1  0.68113990  0.35375361  0.17420501  1  0  -0.058973  0  3.73599  0  0  -0.085315  0  3.989183  0  0  -0.083636  0  4.00953  0  0  -0.086793  -0.086129  0  3.975189  0
C  C39  1  0.31885975  0.64624654  0.82579196  1  0  -0.059  0  3.736045  0  0  -0.085352  0  3.989259  0  0  -0.083673  0  4.009614  0  0  -0.086788  -0.086167  0  3.975264  0
C  C40  1  0.81453998  0.44006693  0.14799696  1  0  -0.133672  0  3.718254  0  0  -0.152021  0  3.968297  0  0  -0.157234  0  3.989794  0  0  -0.095535  -0.148499  0  3.953858  0
C  C41  1  0.18545979  0.55993219  0.85200354  1  0  -0.133682  0  3.718366  0  0  -0.152049  0  3.968385  0  0  -0.157262  0  3.989883  0  0  -0.09558  -0.148527  0  3.953945  0
C  C42  1  0.76897021  0.57639095  0.12889451  1  0  0.089611  0  3.725917  0  0  0.107146  0  3.969039  0  0  0.108379  0  3.99268  0  0  -0.006607  0.10629  0  3.952998  0
C  C43  1  0.23102947  0.42360917  0.87110568  1  0  0.089599  0  3.725896  0  0  0.107153  0  3.96902  0  0  0.108387  0  3.992657  0  0  -0.006595  0.106294  0  3.952978  0
C  C44  1  0.58904387  0.62538362  0.13164444  1  0  -0.132405  0  3.755791  0  0  -0.152996  0  4.009304  0  0  -0.15796  0  4.032118  0  0  -0.100535  -0.14989  0  3.994114  0
C  C45  1  0.41095580  0.37461650  0.86835494  1  0  -0.132394  0  3.755815  0  0  -0.152971  0  4.00933  0  0  -0.157932  0  4.03214  0  0  -0.100521  -0.149868  0  3.994145  0
C  C46  1  0.45563635  0.53926546  0.15780150  1  0  -0.058469  0  3.738641  0  0  -0.082977  0  3.986055  0  0  -0.081321  0  4.005468  0  0  -0.084539  -0.083855  0  3.973381  0
C  C47  1  0.54436323  0.46073569  0.84219595  1  0  -0.058418  0  3.738698  0  0  -0.082928  0  3.986115  0  0  -0.081273  0  4.005532  0  0  -0.084509  -0.083815  0  3.973438  0
C  C48  1  0.91584774  0.66365302  0.11134803  1  0  -0.04799  0  3.623092  0  0  -0.120263  0  3.880263  0  0  -0.114713  0  3.887361  0  0  -0.047979  -0.123753  0  3.875127  0
C  C49  1  0.08415048  0.33634813  0.88864967  1  0  -0.047861  0  3.622984  0  0  -0.12025  0  3.880236  0  0  -0.114701  0  3.887336  0  0  -0.047961  -0.123735  0  3.875094  0
C  C50  1  0.78314934  0.85741053  0.16801098  1  0  0.100534  0  3.68074  0  0  0.053691  0  3.944597  0  0  0.064858  0  3.960143  0  0  0.051894  0.04694  0  3.933788  0
C  C51  1  0.21684653  0.14258662  0.83199007  1  0  0.100519  0  3.680702  0  0  0.053634  0  3.944551  0  0  0.0648  0  3.960096  0  0  0.051879  0.046873  0  3.933757  0
C  C52  1  0.71282465  0.98748867  0.14273546  1  0  -0.154813  0  3.764005  0  0  -0.175303  0  4.040789  0  0  -0.18579  0  4.059472  0  0  -0.102973  -0.168685  0  4.027563  0
C  C53  1  0.28717926  0.01250942  0.85726625  1  0  -0.154832  0  3.76393  0  0  -0.175331  0  4.040717  0  0  -0.185818  0  4.059397  0  0  -0.102957  -0.168708  0  4.027488  0
C  C54  1  0.72462394  0.06893290  0.02199666  1  0  0.038025  0  3.693561  0  0  0.00129  0  3.954475  0  0  0.013626  0  3.966559  0  0  -0.058222  -0.006418  0  3.945652  0
C  C55  1  0.27537439  0.93106723  0.97800377  1  0  0.038073  0  3.693456  0  0  0.00135  0  3.954399  0  0  0.01369  0  3.966484  0  0  -0.058236  -0.006355  0  3.945572  0
C  C56  1  0.79878547  0.01979088  0.92998449  1  0  -0.250196  0  3.718175  0  0  -0.229163  0  3.965394  0  0  -0.24766  0  3.98757  0  0  -0.031199  -0.217427  0  3.950988  0
C  C57  1  0.20121660  0.98021323  0.07001476  1  0  -0.250317  0  3.718166  0  0  -0.229335  0  3.965493  0  0  -0.24784  0  3.987679  0  0  -0.031226  -0.217596  0  3.951088  0
C  C58  1  0.86095302  0.88089128  0.95927244  1  0  0.480859  0  3.804919  0  0  0.433358  0  4.07656  0  0  0.460364  0  4.083366  0  0  0.226151  0.415285  0  4.071378  0
C  C59  1  0.13904239  0.11911185  0.04072913  1  0  0.481081  0  3.804845  0  0  0.433543  0  4.076498  0  0  0.460551  0  4.083301  0  0  0.226212  0.415469  0  4.071318  0
C  C60  1  0.81960590  0.11605169  0.80131445  1  0  0.656308  0  3.946432  0  0  0.60861  0  4.243425  0  0  0.643516  0  4.235889  0  0  0.196749  0.584856  0  4.248026  0
C  C61  1  0.18039640  0.88394942  0.19868494  1  0  0.656212  0  3.946483  0  0  0.608537  0  4.24346  0  0  0.643444  0  4.235928  0  0  0.196702  0.584781  0  4.248062  0
C  C62  1  0.86364243  0.24072909  0.42376046  1  0  0.187123  0  3.62412  0  0  0.121251  0  3.892254  0  0  0.136224  0  3.903139  0  0  0.154483  0.11149  0  3.884785  0
C  C63  1  0.13635591  0.75927103  0.57624077  1  0  0.187055  0  3.624256  0  0  0.121184  0  3.892376  0  0  0.136153  0  3.90327  0  0  0.154452  0.111424  0  3.884901  0
C  C64  1  0.64758894  0.09910675  0.51445195  1  0  -0.053978  0  3.677944  0  0  -0.095368  0  3.938215  0  0  -0.093364  0  3.956649  0  0  0.006423  -0.096687  0  3.925947  0
C  C65  1  0.35241100  0.90089035  0.48555079  1  0  -0.053972  0  3.677939  0  0  -0.095381  0  3.938222  0  0  -0.093377  0  3.956658  0  0  0.006456  -0.096702  0  3.925958  0
C  C66  1  0.78938111  0.04416042  0.44811007  1  0  -0.008551  0  3.762105  0  0  -0.044309  0  4.034197  0  0  -0.042748  0  4.054043  0  0  -0.003796  -0.045437  0  4.020974  0
C  C67  1  0.21062001  0.95583868  0.55189100  1  0  -0.008573  0  3.762076  0  0  -0.044324  0  4.034174  0  0  -0.042763  0  4.054017  0  0  -0.003817  -0.045456  0  4.02096  0
C  C68  1  0.59332893  0.31497121  0.55687701  1  0  0.006706  0  3.609769  0  0  -0.053005  0  3.867437  0  0  -0.048692  0  3.878175  0  0  -0.048848  -0.055793  0  3.860248  0
C  C69  1  0.40666944  0.68502889  0.44312664  1  0  0.006744  0  3.609714  0  0  -0.05289  0  3.867295  0  0  -0.04858  0  3.878039  0  0  -0.048801  -0.055671  0  3.860098  0
C  C70  1  0.56052077  0.45499799  0.46794087  1  0  -0.125156  0  3.685439  0  0  -0.165166  0  3.946778  0  0  -0.167001  0  3.961935  0  0  -0.160239  -0.163717  0  3.936279  0
C  C71  1  0.43948020  0.54500311  0.53206037  1  0  -0.125194  0  3.685424  0  0  -0.165212  0  3.946764  0  0  -0.167055  0  3.96192  0  0  -0.160281  -0.163764  0  3.936262  0
N  N72  1  0.85441372  0.80599624  0.07984105  1  0  -0.129257  0  3.488994  0  0  -0.035161  0  3.70374  0  0  -0.054481  0  3.727692  0  0  -0.228798  -0.022452  0  3.687111  0
N  N73  1  0.14558595  0.19400388  0.92015834  1  0  -0.129303  0  3.489024  0  0  -0.035066  0  3.703657  0  0  -0.054386  0  3.727611  0  0  -0.228792  -0.022355  0  3.687026  0
N  N74  1  0.92306302  0.13391329  0.39188478  1  0  -0.391316  0  3.343989  0  0  -0.309975  0  3.647512  0  0  -0.331322  0  3.660926  0  0  -0.360382  -0.295501  0  3.638169  0
N  N75  1  0.07693803  0.86608681  0.60811678  1  0  -0.391283  0  3.34399  0  0  -0.309956  0  3.647533  0  0  -0.331301  0  3.66094  0  0  -0.360355  -0.295483  0  3.638191  0
N  N76  1  0.69664382  0.22318188  0.49754715  1  0  -0.048623  0  3.569247  0  0  0.043967  0  3.789276  0  0  0.029552  0  3.81502  0  0  -0.236718  0.053393  0  3.77188  0
N  N77  1  0.30335472  0.77681621  0.50245793  1  0  -0.048626  0  3.569402  0  0  0.043981  0  3.789356  0  0  0.029563  0  3.815104  0  0  -0.236763  0.053404  0  3.771954  0
O  O78  1  0.39152828  0.18583218  0.23536195  1  0  -0.666245  0  2.003282  0  0  -0.594489  0  2.265951  0  0  -0.624272  0  2.252542  0  0  -0.339246  -0.573772  0  2.274487  0
O  O79  1  0.60847543  0.81416794  0.76463591  1  0  -0.666281  0  2.003264  0  0  -0.59455  0  2.265939  0  0  -0.624337  0  2.252529  0  0  -0.339259  -0.573834  0  2.274476  0
O  O80  1  0.18838866  0.35951379  0.23341194  1  0  -0.622585  0  1.946285  0  0  -0.571372  0  2.171785  0  0  -0.595701  0  2.162431  0  0  -0.319976  -0.554345  0  2.177513  0
O  O81  1  0.81161630  0.64048734  0.76658295  1  0  -0.622632  0  1.946303  0  0  -0.57142  0  2.171781  0  0  -0.595731  0  2.16239  0  0  -0.319983  -0.554395  0  2.177517  0
O  O82  1  0.92514062  0.81934490  0.88647813  1  0  -0.583237  0  2.126872  0  0  -0.516158  0  2.397337  0  0  -0.54149  0  2.386922  0  0  -0.303599  -0.498266  0  2.403303  0
O  O83  1  0.07485351  0.18065725  0.11352238  1  0  -0.58335  0  2.126888  0  0  -0.516252  0  2.397357  0  0  -0.54158  0  2.386936  0  0  -0.303632  -0.498368  0  2.403342  0
O  O84  1  0.82993283  0.07039399  0.71762127  1  0  -0.664818  0  2.07498  0  0  -0.595761  0  2.35077  0  0  -0.624128  0  2.335392  0  0  -0.342565  -0.575792  0  2.360682  0
O  O85  1  0.17006670  0.92960813  0.28237909  1  0  -0.664766  0  2.074828  0  0  -0.595748  0  2.350669  0  0  -0.624097  0  2.335254  0  0  -0.342569  -0.575779  0  2.360582  0
O  O86  1  0.82566085  0.23752367  0.78186800  1  0  -0.606159  0  1.914827  0  0  -0.569183  0  2.143886  0  0  -0.591798  0  2.134224  0  0  -0.32483  -0.553151  0  2.149926  0
O  O87  1  0.17434283  0.76247741  0.21813357  1  0  -0.606097  0  1.914918  0  0  -0.569119  0  2.143966  0  0  -0.591739  0  2.13431  0  0  -0.324789  -0.553087  0  2.150005  0
