# generated using pymatgen
data_MnH16C16(NO2)2
_symmetry_space_group_name_H-M   'P 1'
_cell_length_a   4.35035277
_cell_length_b   10.55100872
_cell_length_c   15.56373288
_cell_angle_alpha   95.70395916
_cell_angle_beta   89.99984341
_cell_angle_gamma   89.99995235
_symmetry_Int_Tables_number   1
_chemical_formula_structural   MnH16C16(NO2)2
_chemical_formula_sum   'Mn2 H32 C32 N4 O8'
_cell_volume   710.84770231
_cell_formula_units_Z   2
loop_
 _symmetry_equiv_pos_site_id
 _symmetry_equiv_pos_as_xyz
  1  'x, y, z'
loop_
 _atom_site_type_symbol
 _atom_site_label
 _atom_site_symmetry_multiplicity
 _atom_site_fract_x
 _atom_site_fract_y
 _atom_site_fract_z
 _atom_site_occupancy
 _atom_site_pbe_cm5_charge
 _atom_site_pbe_ddec_charge
 _atom_site_pbe_ddec_spin_density
 _atom_site_pbe_ddec_sum_bond_order
 _atom_site_pbe_magmom
Mn  Mn0  1  0.50000479  0.50000024  0.50000155  1  0.604551  0.977566  4.637671  2.312709  4.434
Mn  Mn1  1  0.00001073  0.50000410  0.99999681  1  0.604558  0.977537  4.637671  2.312776  4.434
H  H2  1  0.26496518  0.43367161  0.76117959  1  0.108029  0.119895  -8.6e-05  1.024955  0.0
H  H3  1  0.76496829  0.56632976  0.73882158  1  0.108019  0.119898  -8.6e-05  1.024918  0.0
H  H4  1  0.73502831  0.56632789  0.23882151  1  0.108024  0.119889  -8.6e-05  1.024909  0.0
H  H5  1  0.23503440  0.43367164  0.26117836  1  0.108023  0.119892  -8.6e-05  1.02496  0.0
H  H6  1  0.58012395  0.05742661  0.75340638  1  0.094685  0.095412  -4.4e-05  1.049498  0.0
H  H7  1  0.08012455  0.94257295  0.74659482  1  0.094676  0.095426  -4.4e-05  1.049483  0.0
H  H8  1  0.41987414  0.94257290  0.24659408  1  0.094696  0.095437  -4.4e-05  1.049483  0.0
H  H9  1  0.91987584  0.05742751  0.25340506  1  0.094678  0.095424  -4.4e-05  1.049479  0.0
H  H10  1  0.62914118  0.17687145  0.62357692  1  0.09666  0.095833  -5.8e-05  1.035167  0.0
H  H11  1  0.12914306  0.82312713  0.87642418  1  0.09667  0.095782  -5.8e-05  1.035254  0.0
H  H12  1  0.37085462  0.82312614  0.37642277  1  0.096673  0.095826  -5.8e-05  1.0352  0.0
H  H13  1  0.87085963  0.17687333  0.12357570  1  0.096688  0.095859  -5.8e-05  1.035254  0.0
H  H14  1  0.77778954  0.16527701  0.96650535  1  0.091408  0.131475  -3.2e-05  1.047839  0.0
H  H15  1  0.27778783  0.83472245  0.53349568  1  0.091408  0.131467  -3.2e-05  1.047839  0.0
H  H16  1  0.22220855  0.83472345  0.03349581  1  0.091409  0.13147  -3.2e-05  1.047864  0.0
H  H17  1  0.72221027  0.16527705  0.46650349  1  0.091407  0.131479  -3.2e-05  1.04787  0.0
H  H18  1  0.08209453  0.06509916  0.92622290  1  0.090623  0.123637  0.0006  1.006252  0.001
H  H19  1  0.58209389  0.93490134  0.57377836  1  0.090623  0.123633  0.0006  1.006224  0.001
H  H20  1  0.91790356  0.93490130  0.07377827  1  0.090615  0.123624  0.0006  1.006245  0.001
H  H21  1  0.41790421  0.06509816  0.42622145  1  0.090642  0.123667  0.0006  1.006186  0.001
H  H22  1  0.69915502  0.02471505  0.89587914  1  0.090787  0.128935  0.00012  1.010797  0.0
H  H23  1  0.19915234  0.97528446  0.60412260  1  0.090786  0.128912  0.00012  1.010814  0.0
H  H24  1  0.30084307  0.97528446  0.10412196  1  0.090797  0.128934  0.00012  1.010791  0.0
H  H25  1  0.80084805  0.02471600  0.39587727  1  0.090784  0.12893  0.00012  1.010801  0.0
H  H26  1  0.43359457  0.37798288  0.90070042  1  0.301481  0.291829  0.000413  0.989798  0.001
H  H27  1  0.93359431  0.62201746  0.59929991  1  0.301461  0.291806  0.000413  0.989834  0.001
H  H28  1  0.56640353  0.62201663  0.09930004  1  0.301497  0.291806  0.000412  0.989866  0.001
H  H29  1  0.06640608  0.37798299  0.40069932  1  0.301498  0.291814  0.000412  0.989772  0.001
H  H30  1  0.26361971  0.26708219  0.95225631  1  0.307582  0.294527  0.000563  0.943749  0.001
H  H31  1  0.76362433  0.73291822  0.54774416  1  0.307594  0.294554  0.000563  0.943721  0.001
H  H32  1  0.73637839  0.73291826  0.04774421  1  0.307584  0.294518  0.000563  0.943756  0.001
H  H33  1  0.23637836  0.26708127  0.45225566  1  0.307577  0.294521  0.000563  0.943757  0.001
C  C34  1  0.95427530  0.31151262  0.68427583  1  -0.025368  -0.043946  -0.001278  4.030794  -0.002
C  C35  1  0.45427115  0.68848675  0.81572378  1  -0.025391  -0.043971  -0.001277  4.030823  -0.002
C  C36  1  0.04572509  0.68848592  0.31572328  1  -0.025349  -0.043886  -0.001276  4.030742  -0.002
C  C37  1  0.54573154  0.31151370  0.18427610  1  -0.02536  -0.043844  -0.001276  4.030687  -0.002
C  C38  1  0.11252706  0.35163123  0.76024491  1  -0.085201  -0.173725  0.009393  3.925232  0.008
C  C39  1  0.61252539  0.64836925  0.73975568  1  -0.085171  -0.173653  0.009393  3.925053  0.008
C  C40  1  0.88746874  0.64836827  0.23975555  1  -0.085135  -0.173593  0.009391  3.925073  0.008
C  C41  1  0.38747500  0.35163120  0.26024484  1  -0.085208  -0.173766  0.009391  3.925164  0.008
C  C42  1  0.07663083  0.28782806  0.83406196  1  0.088875  0.223305  -0.000598  3.988351  0.0
C  C43  1  0.57662974  0.71217434  0.66593879  1  0.088856  0.223269  -0.000598  3.988301  0.0
C  C44  1  0.92336497  0.71217239  0.16593792  1  0.088833  0.223159  -0.000599  3.988397  0.0
C  C45  1  0.42337065  0.28782706  0.33406180  1  0.088895  0.223379  -0.000598  3.988284  0.0
C  C46  1  0.88646642  0.17918075  0.83187513  1  -0.015173  0.072496  0.010726  3.934803  0.009
C  C47  1  0.38646573  0.82081867  0.66812646  1  -0.015218  0.072487  0.010726  3.934837  0.009
C  C48  1  0.11352707  0.82081876  0.16812597  1  -0.015161  0.072582  0.010724  3.93493  0.009
C  C49  1  0.61353236  0.17918083  0.33187400  1  -0.015192  0.072502  0.010723  3.934916  0.009
C  C50  1  0.72976460  0.14050899  0.75502969  1  -0.099903  -0.145393  -0.003364  4.023165  -0.003
C  C51  1  0.22976308  0.85949146  0.74497209  1  -0.099858  -0.145437  -0.003365  4.022935  -0.003
C  C52  1  0.27023349  0.85949052  0.24497076  1  -0.099908  -0.145421  -0.003364  4.023059  -0.003
C  C53  1  0.77023731  0.14050900  0.25502843  1  -0.099856  -0.145391  -0.003364  4.022941  -0.003
C  C54  1  0.75868438  0.20569038  0.68207915  1  -0.100297  -0.118759  0.012654  4.033904  0.01
C  C55  1  0.25868689  0.79430815  0.81792313  1  -0.1003  -0.118655  0.012655  4.033822  0.01
C  C56  1  0.24131141  0.79430722  0.31792119  1  -0.100333  -0.118815  0.012652  4.033928  0.01
C  C57  1  0.74131580  0.20569231  0.18207739  1  -0.10033  -0.118829  0.012651  4.033949  0.01
C  C58  1  0.98906358  0.38280360  0.60693574  1  0.221194  0.577763  0.031624  4.163636  0.027
C  C59  1  0.48906572  0.61719671  0.89306455  1  0.221197  0.577729  0.031627  4.163708  0.027
C  C60  1  0.01093451  0.61719589  0.39306408  1  0.221161  0.577728  0.031615  4.163729  0.027
C  C61  1  0.51093697  0.38280374  0.10693533  1  0.221201  0.577723  0.031611  4.163712  0.027
C  C62  1  0.85836495  0.10498817  0.90913122  1  -0.242825  -0.41302  0.000239  3.965669  0.0
C  C63  1  0.35836256  0.89501125  0.59086911  1  -0.242814  -0.412972  0.000239  3.965643  0.0
C  C64  1  0.14163314  0.89501134  0.09086988  1  -0.242864  -0.413058  0.000239  3.965793  0.0
C  C65  1  0.64163783  0.10498824  0.40913006  1  -0.242865  -0.413098  0.000239  3.965785  0.0
N  N66  1  0.22668260  0.33526153  0.91143938  1  -0.594421  -0.597982  0.031923  3.383248  0.014
N  N67  1  0.72668236  0.66473891  0.58856112  1  -0.594406  -0.598023  0.031923  3.383255  0.014
N  N68  1  0.77331549  0.66473892  0.08856050  1  -0.594428  -0.597916  0.031922  3.383326  0.014
N  N69  1  0.27331803  0.33526155  0.41143940  1  -0.594447  -0.597998  0.031922  3.383208  0.014
O  O70  1  0.79919885  0.35915844  0.54436969  1  -0.320406  -0.583182  0.042776  2.349962  0.025
O  O71  1  0.29920033  0.64084292  0.95563081  1  -0.320393  -0.583154  0.042779  2.350051  0.025
O  O72  1  0.20079924  0.64084106  0.45562948  1  -0.32038  -0.58317  0.042775  2.350024  0.025
O  O73  1  0.70080006  0.35915849  0.04436913  1  -0.320416  -0.583189  0.042771  2.349981  0.025
O  O74  1  0.20357088  0.46592779  0.60679132  1  -0.309996  -0.567855  0.045598  2.341214  0.03
O  O75  1  0.70357715  0.53407361  0.89320861  1  -0.309998  -0.567852  0.045602  2.341294  0.03
O  O76  1  0.79642492  0.53407267  0.39320856  1  -0.310022  -0.56791  0.045603  2.341269  0.03
O  O77  1  0.29642554  0.46592684  0.10679126  1  -0.310014  -0.567873  0.045601  2.341235  0.03
