# generated using pymatgen
data_CdH14C14(N4O)2
_symmetry_space_group_name_H-M   'P 1'
_cell_length_a   8.48210465
_cell_length_b   8.71044205
_cell_length_c   11.15504004
_cell_angle_alpha   95.72525458
_cell_angle_beta   89.99994314
_cell_angle_gamma   89.99986714
_symmetry_Int_Tables_number   1
_chemical_formula_structural   CdH14C14(N4O)2
_chemical_formula_sum   'Cd2 H28 C28 N16 O4'
_cell_volume   820.05530217
_cell_formula_units_Z   2
loop_
 _symmetry_equiv_pos_site_id
 _symmetry_equiv_pos_as_xyz
  1  'x, y, z'
loop_
 _atom_site_type_symbol
 _atom_site_label
 _atom_site_symmetry_multiplicity
 _atom_site_fract_x
 _atom_site_fract_y
 _atom_site_fract_z
 _atom_site_occupancy
 _atom_site_hle17_bader_spin_density
 _atom_site_hle17_ddec_charge
 _atom_site_hle17_ddec_spin_density
 _atom_site_hle17_ddec_sum_bond_order
 _atom_site_hle17_magmom
 _atom_site_hse06_10hf_bader_spin_density
 _atom_site_hse06_10hf_ddec_charge
 _atom_site_hse06_10hf_ddec_spin_density
 _atom_site_hse06_10hf_ddec_sum_bond_order
 _atom_site_hse06_10hf_magmom
 _atom_site_hse06_bader_spin_density
 _atom_site_hse06_ddec_charge
 _atom_site_hse06_ddec_spin_density
 _atom_site_hse06_ddec_sum_bond_order
 _atom_site_hse06_magmom
 _atom_site_pbe_bader_spin_density
 _atom_site_pbe_cm5_charge
 _atom_site_pbe_ddec_charge
 _atom_site_pbe_ddec_spin_density
 _atom_site_pbe_ddec_sum_bond_order
 _atom_site_pbe_magmom
Cd  Cd0  1  0.00000204  0.00000294  0.50000153  1  0  1.025602  0  1.945427  0  0  0.841521  0  2.433415  0  0  0.888094  0  2.390289  0  0  0.816645  0.805293  0  2.467663  0
Cd  Cd1  1  0.50000116  0.49999830  0.49999957  1  0  1.025636  0  1.945409  0  0  0.841553  0  2.433393  0  0  0.888124  0  2.390265  0  0  0.81667  0.805341  0  2.467628  0
H  H2  1  0.63339541  0.08129275  0.55579114  1  0  0.076338  0  0.951824  0  0  0.082099  0  1.021887  0  0  0.083878  0  1.021113  0  0  0.113147  0.08099  0  1.022015  0
H  H3  1  0.86659872  0.58129774  0.55579715  1  0  0.076334  0  0.951728  0  0  0.082119  0  1.021799  0  0  0.083898  0  1.021023  0  0  0.113139  0.08101  0  1.021928  0
H  H4  1  0.36660337  0.91870267  0.44420523  1  0  0.076292  0  0.951751  0  0  0.082064  0  1.021831  0  0  0.083843  0  1.021056  0  0  0.113117  0.080957  0  1.021959  0
H  H5  1  0.13339888  0.41870351  0.44420502  1  0  0.076298  0  0.951751  0  0  0.082082  0  1.021815  0  0  0.083861  0  1.021041  0  0  0.113124  0.080972  0  1.021944  0
H  H6  1  0.41573833  0.01913785  0.69214102  1  0  0.104646  0  0.98246  0  0  0.113439  0  1.045708  0  0  0.11535  0  1.046888  0  0  0.110269  0.112143  0  1.044738  0
H  H7  1  0.08425514  0.51914465  0.69214738  1  0  0.104618  0  0.98255  0  0  0.113436  0  1.045742  0  0  0.115348  0  1.046922  0  0  0.110273  0.112141  0  1.044771  0
H  H8  1  0.58425809  0.98085409  0.30785241  1  0  0.104618  0  0.982472  0  0  0.113374  0  1.045755  0  0  0.115285  0  1.046936  0  0  0.110259  0.11208  0  1.044784  0
H  H9  1  0.91574364  0.48085546  0.30785560  1  0  0.10463  0  0.982453  0  0  0.113426  0  1.045697  0  0  0.115337  0  1.046879  0  0  0.110259  0.112131  0  1.044726  0
H  H10  1  0.76071885  0.79781167  0.90275210  1  0  0.115168  0  0.974243  0  0  0.11676  0  1.047201  0  0  0.121369  0  1.044098  0  0  0.108608  0.113495  0  1.049262  0
H  H11  1  0.73927666  0.29781695  0.90275929  1  0  0.115123  0  0.974225  0  0  0.116727  0  1.047184  0  0  0.121335  0  1.044084  0  0  0.108597  0.113465  0  1.049243  0
H  H12  1  0.23927993  0.20218259  0.09724330  1  0  0.115162  0  0.97419  0  0  0.116715  0  1.047203  0  0  0.121323  0  1.044104  0  0  0.108592  0.113453  0  1.049261  0
H  H13  1  0.26071858  0.70218776  0.09724312  1  0  0.115123  0  0.974228  0  0  0.116733  0  1.047177  0  0  0.121342  0  1.044075  0  0  0.108602  0.113472  0  1.049236  0
H  H14  1  0.96364727  0.86655823  0.75637682  1  0  0.079435  0  0.948446  0  0  0.089163  0  1.009887  0  0  0.091158  0  1.008637  0  0  0.11585  0.087237  0  1.011801  0
H  H15  1  0.53634826  0.36655588  0.75638094  1  0  0.079445  0  0.94838  0  0  0.089212  0  1.009786  0  0  0.091206  0  1.008537  0  0  0.115872  0.087285  0  1.011703  0
H  H16  1  0.03635033  0.13344647  0.24362380  1  0  0.079482  0  0.948418  0  0  0.089245  0  1.0098  0  0  0.091238  0  1.008552  0  0  0.115884  0.087316  0  1.011715  0
H  H17  1  0.46364933  0.63344651  0.24362042  1  0  0.079413  0  0.948434  0  0  0.089192  0  1.009819  0  0  0.091185  0  1.008573  0  0  0.115896  0.087267  0  1.011734  0
H  H18  1  0.23639374  0.89856890  0.79126176  1  0  0.131996  0  0.969993  0  0  0.149479  0  1.036604  0  0  0.150799  0  1.036764  0  0  0.098439  0.148383  0  1.036833  0
H  H19  1  0.26360222  0.39856366  0.79126011  1  0  0.131985  0  0.969878  0  0  0.149458  0  1.036515  0  0  0.150776  0  1.036674  0  0  0.098439  0.14836  0  1.036745  0
H  H20  1  0.76360504  0.10143693  0.20873805  1  0  0.131991  0  0.969885  0  0  0.149458  0  1.036524  0  0  0.150777  0  1.036683  0  0  0.098442  0.148362  0  1.036752  0
H  H21  1  0.73639302  0.60143415  0.20874360  1  0  0.131971  0  0.969875  0  0  0.149438  0  1.036525  0  0  0.150757  0  1.036683  0  0  0.098438  0.148341  0  1.036756  0
H  H22  1  0.28456552  0.05156509  0.89942304  1  0  0.147361  0  0.934529  0  0  0.167376  0  0.99404  0  0  0.168821  0  0.994411  0  0  0.104899  0.166231  0  0.99409  0
H  H23  1  0.21543467  0.55156576  0.89942437  1  0  0.147396  0  0.934522  0  0  0.167402  0  0.994046  0  0  0.168848  0  0.994416  0  0  0.104912  0.166256  0  0.994097  0
H  H24  1  0.71543797  0.94843382  0.10057537  1  0  0.147387  0  0.934552  0  0  0.167396  0  0.994074  0  0  0.168843  0  0.994443  0  0  0.104911  0.166251  0  0.994124  0
H  H25  1  0.78456529  0.44843551  0.10057959  1  0  0.14731  0  0.934537  0  0  0.167316  0  0.994079  0  0  0.168756  0  0.994451  0  0  0.104881  0.166172  0  0.994127  0
H  H26  1  0.20116184  0.87874359  0.94763775  1  0  0.148121  0  0.948078  0  0  0.164315  0  1.010329  0  0  0.167844  0  1.007562  0  0  0.099978  0.161835  0  1.012378  0
H  H27  1  0.29883986  0.37873944  0.94763794  1  0  0.148091  0  0.948089  0  0  0.164343  0  1.010271  0  0  0.167869  0  1.007508  0  0  0.1  0.161863  0  1.012319  0
H  H28  1  0.79884047  0.12125876  0.05236002  1  0  0.148087  0  0.94808  0  0  0.164336  0  1.010272  0  0  0.167864  0  1.007508  0  0  0.100007  0.161856  0  1.01232  0
H  H29  1  0.70116010  0.62125839  0.05236846  1  0  0.14806  0  0.948163  0  0  0.164275  0  1.010386  0  0  0.167804  0  1.00762  0  0  0.099961  0.161795  0  1.012435  0
C  C30  1  0.65703461  0.01792440  0.63331824  1  0  0.12498  0  3.720164  0  0  0.093164  0  3.980101  0  0  0.099209  0  3.999879  0  0  0.04393  0.089036  0  3.96606  0
C  C31  1  0.84295956  0.51792712  0.63332231  1  0  0.124902  0  3.720113  0  0  0.092991  0  3.980145  0  0  0.099035  0  3.999921  0  0  0.043858  0.088861  0  3.966106  0
C  C32  1  0.34296534  0.98207217  0.36667821  1  0  0.124994  0  3.720075  0  0  0.093114  0  3.980047  0  0  0.099159  0  3.999824  0  0  0.04392  0.088985  0  3.966007  0
C  C33  1  0.15703804  0.48207412  0.36667896  1  0  0.124996  0  3.720105  0  0  0.093102  0  3.980111  0  0  0.099146  0  3.999887  0  0  0.043901  0.088975  0  3.966068  0
C  C34  1  0.53563546  0.98397913  0.71033828  1  0  -0.114286  0  3.687691  0  0  -0.136486  0  3.935285  0  0  -0.142988  0  3.958341  0  0  -0.073987  -0.131665  0  3.919872  0
C  C35  1  0.96435867  0.48398500  0.71034176  1  0  -0.114215  0  3.687641  0  0  -0.136335  0  3.935182  0  0  -0.142841  0  3.958238  0  0  -0.073919  -0.131515  0  3.919766  0
C  C36  1  0.46436214  0.01601515  0.28965890  1  0  -0.114262  0  3.687505  0  0  -0.136342  0  3.935117  0  0  -0.142848  0  3.958173  0  0  -0.073938  -0.131523  0  3.919706  0
C  C37  1  0.03563893  0.51601742  0.28966229  1  0  -0.114237  0  3.687651  0  0  -0.136369  0  3.93524  0  0  -0.142872  0  3.958297  0  0  -0.073959  -0.131548  0  3.919823  0
C  C38  1  0.56993358  0.90288767  0.80922273  1  0  0.005795  0  3.710809  0  0  0.022811  0  3.940097  0  0  0.022188  0  3.961945  0  0  0.003829  0.023217  0  3.924893  0
C  C39  1  0.93006533  0.40289365  0.80922893  1  0  0.005918  0  3.710472  0  0  0.022893  0  3.939895  0  0  0.022282  0  3.961735  0  0  0.003836  0.023299  0  3.924688  0
C  C40  1  0.43006755  0.09710542  0.19077078  1  0  0.005977  0  3.710383  0  0  0.022843  0  3.939826  0  0  0.022232  0  3.961665  0  0  0.003831  0.02325  0  3.924624  0
C  C41  1  0.06993581  0.59710993  0.19077609  1  0  0.005851  0  3.710648  0  0  0.022801  0  3.940062  0  0  0.022182  0  3.961907  0  0  0.0039  0.023206  0  3.924855  0
C  C42  1  0.72670250  0.86036168  0.82706712  1  0  -0.107756  0  3.676279  0  0  -0.130478  0  3.925516  0  0  -0.136138  0  3.945719  0  0  -0.069943  -0.126101  0  3.910637  0
C  C43  1  0.77329296  0.36036686  0.82707159  1  0  -0.107722  0  3.676033  0  0  -0.130436  0  3.925322  0  0  -0.136105  0  3.945529  0  0  -0.069911  -0.126064  0  3.910445  0
C  C44  1  0.27329510  0.13963260  0.17293007  1  0  -0.107739  0  3.676063  0  0  -0.130401  0  3.925373  0  0  -0.136069  0  3.945581  0  0  -0.069931  -0.126028  0  3.910496  0
C  C45  1  0.22670582  0.63963322  0.17292870  1  0  -0.107721  0  3.676061  0  0  -0.130442  0  3.925368  0  0  -0.136106  0  3.945574  0  0  -0.069955  -0.126069  0  3.910492  0
C  C46  1  0.84082041  0.89911429  0.74606104  1  0  0.133658  0  3.690506  0  0  0.106139  0  3.938812  0  0  0.11219  0  3.95768  0  0  0.049308  0.102305  0  3.925304  0
C  C47  1  0.65917388  0.39911743  0.74606545  1  0  0.133645  0  3.690327  0  0  0.106083  0  3.938646  0  0  0.112131  0  3.957521  0  0  0.049267  0.10225  0  3.92514  0
C  C48  1  0.15917837  0.10088345  0.25393640  1  0  0.133512  0  3.690496  0  0  0.10598  0  3.938759  0  0  0.11203  0  3.957633  0  0  0.049225  0.102147  0  3.92525  0
C  C49  1  0.34082372  0.60088612  0.25393598  1  0  0.133762  0  3.690397  0  0  0.106176  0  3.938733  0  0  0.11223  0  3.957596  0  0  0.049312  0.10234  0  3.925232  0
C  C50  1  0.44445411  0.86145659  0.89566750  1  0  0.496509  0  3.656121  0  0  0.48184  0  3.92515  0  0  0.501506  0  3.92864  0  0  0.171391  0.46834  0  3.922681  0
C  C51  1  0.05554416  0.36146341  0.89567046  1  0  0.496472  0  3.655978  0  0  0.481705  0  3.925224  0  0  0.501361  0  3.92872  0  0  0.171422  0.468203  0  3.922755  0
C  C52  1  0.55554703  0.13853538  0.10432863  1  0  0.4964  0  3.656119  0  0  0.481818  0  3.925105  0  0  0.501479  0  3.928593  0  0  0.17138  0.468318  0  3.922638  0
C  C53  1  0.94445108  0.63854248  0.10433383  1  0  0.496385  0  3.656276  0  0  0.4817  0  3.925394  0  0  0.501364  0  3.928886  0  0  0.171379  0.468199  0  3.922923  0
C  C54  1  0.28132354  0.92491248  0.88323973  1  0  -0.439989  0  3.663438  0  0  -0.520981  0  3.8981  0  0  -0.526124  0  3.902398  0  0  -0.247347  -0.516973  0  3.895104  0
C  C55  1  0.21867577  0.42491316  0.88324302  1  0  -0.439989  0  3.663301  0  0  -0.520989  0  3.898055  0  0  -0.526131  0  3.902358  0  0  -0.247381  -0.516981  0  3.895063  0
C  C56  1  0.71867642  0.07508641  0.11675689  1  0  -0.439955  0  3.663413  0  0  -0.520996  0  3.898086  0  0  -0.526139  0  3.902388  0  0  -0.247365  -0.516988  0  3.895091  0
C  C57  1  0.78132182  0.57508812  0.11676183  1  0  -0.439784  0  3.663391  0  0  -0.520772  0  3.898108  0  0  -0.525908  0  3.902408  0  0  -0.247298  -0.516763  0  3.895113  0
N  N58  1  0.83670853  0.84945062  0.36369886  1  0  -0.508245  0  2.568782  0  0  -0.488137  0  2.845216  0  0  -0.505155  0  2.852939  0  0  -0.271454  -0.476136  0  2.840519  0
N  N59  1  0.66329463  0.34943988  0.36369959  1  0  -0.508114  0  2.568657  0  0  -0.488003  0  2.845084  0  0  -0.505021  0  2.852811  0  0  -0.271396  -0.476002  0  2.840381  0
N  N60  1  0.16329732  0.15055523  0.63630184  1  0  -0.50801  0  2.568738  0  0  -0.487887  0  2.845166  0  0  -0.504904  0  2.852891  0  0  -0.271323  -0.475886  0  2.840465  0
N  N61  1  0.33671005  0.65055560  0.63630127  1  0  -0.508182  0  2.568628  0  0  -0.488081  0  2.84508  0  0  -0.505101  0  2.852805  0  0  -0.271471  -0.476076  0  2.840375  0
N  N62  1  0.72733007  0.78525606  0.40273372  1  0  0.393739  0  4.272843  0  0  0.426047  0  4.555526  0  0  0.44301  0  4.58474  0  0  0.072311  0.414594  0  4.534427  0
N  N63  1  0.77267791  0.28525086  0.40273835  1  0  0.39371  0  4.272695  0  0  0.426011  0  4.555399  0  0  0.442974  0  4.584616  0  0  0.072342  0.414559  0  4.534297  0
N  N64  1  0.27267578  0.21474745  0.59726412  1  0  0.393556  0  4.272785  0  0  0.425849  0  4.555496  0  0  0.442811  0  4.584711  0  0  0.072217  0.414398  0  4.534393  0
N  N65  1  0.22732558  0.71474809  0.59726455  1  0  0.393697  0  4.272679  0  0  0.425988  0  4.555392  0  0  0.442952  0  4.584604  0  0  0.072316  0.414536  0  4.534291  0
N  N66  1  0.61360716  0.72652962  0.43876673  1  0  -0.504544  0  2.630524  0  0  -0.486029  0  2.923265  0  0  -0.502813  0  2.930702  0  0  -0.260819  -0.473623  0  2.918424  0
N  N67  1  0.88640091  0.22653459  0.43877647  1  0  -0.504629  0  2.630553  0  0  -0.486108  0  2.923314  0  0  -0.502889  0  2.930751  0  0  -0.2609  -0.473704  0  2.918478  0
N  N68  1  0.38639869  0.27346923  0.56122630  1  0  -0.504557  0  2.630545  0  0  -0.486033  0  2.923298  0  0  -0.502816  0  2.930735  0  0  -0.26084  -0.473631  0  2.91846  0
N  N69  1  0.11360376  0.77346787  0.56123116  1  0  -0.50458  0  2.630582  0  0  -0.48602  0  2.923304  0  0  -0.502802  0  2.93074  0  0  -0.260791  -0.473618  0  2.918474  0
N  N70  1  0.80716599  0.97585565  0.65026007  1  0  -0.323524  0  3.25767  0  0  -0.24781  0  3.518727  0  0  -0.266764  0  3.539326  0  0  -0.324346  -0.234506  0  3.503201  0
N  N71  1  0.69283059  0.47585753  0.65026258  1  0  -0.32356  0  3.257586  0  0  -0.247804  0  3.518656  0  0  -0.266756  0  3.539253  0  0  -0.324332  -0.234504  0  3.503133  0
N  N72  1  0.19283750  0.02414097  0.34973997  1  0  -0.323496  0  3.257634  0  0  -0.247752  0  3.518688  0  0  -0.266706  0  3.539286  0  0  -0.324272  -0.234449  0  3.503161  0
N  N73  1  0.30716819  0.52414368  0.34973600  1  0  -0.323665  0  3.257681  0  0  -0.247875  0  3.518703  0  0  -0.266826  0  3.539298  0  0  -0.324387  -0.234575  0  3.503181  0
O  O74  1  0.47868858  0.78035663  0.97659560  1  0  -0.472206  0  1.893358  0  0  -0.42349  0  2.088054  0  0  -0.441405  0  2.086505  0  0  -0.252402  -0.411466  0  2.089284  0
O  O75  1  0.02131096  0.28036125  0.97660112  1  0  -0.472199  0  1.893226  0  0  -0.423459  0  2.088022  0  0  -0.44136  0  2.086458  0  0  -0.25245  -0.411436  0  2.089251  0
O  O76  1  0.52131137  0.21963647  0.02339881  1  0  -0.472204  0  1.893268  0  0  -0.423511  0  2.087951  0  0  -0.44142  0  2.086391  0  0  -0.252437  -0.411487  0  2.089181  0
O  O77  1  0.97868428  0.71964698  0.02340692  1  0  -0.472204  0  1.893339  0  0  -0.423479  0  2.088082  0  0  -0.441395  0  2.086531  0  0  -0.252433  -0.411456  0  2.089308  0
