# generated using pymatgen
data_SbH21C15(SCl)3
_symmetry_space_group_name_H-M   'P 1'
_cell_length_a   10.49520102
_cell_length_b   11.42943988
_cell_length_c   20.43598484
_cell_angle_alpha   85.79088536
_cell_angle_beta   76.69034911
_cell_angle_gamma   64.97936903
_symmetry_Int_Tables_number   1
_chemical_formula_structural   SbH21C15(SCl)3
_chemical_formula_sum   'Sb4 H84 C60 S12 Cl12'
_cell_volume   2160.87125339
_cell_formula_units_Z   4
loop_
 _symmetry_equiv_pos_site_id
 _symmetry_equiv_pos_as_xyz
  1  'x, y, z'
loop_
 _atom_site_type_symbol
 _atom_site_label
 _atom_site_symmetry_multiplicity
 _atom_site_fract_x
 _atom_site_fract_y
 _atom_site_fract_z
 _atom_site_occupancy
 _atom_site_pbe_bader_charge
 _atom_site_pbe_bader_spin_density
 _atom_site_pbe_cm5_charge
 _atom_site_pbe_ddec_charge
 _atom_site_pbe_ddec_spin_density
 _atom_site_pbe_ddec_sum_bond_order
 _atom_site_pbe_magmom
Sb  Sb0  1  0.51810513  0.23227348  0.31957206  1  1.45054  0  0.436065  0.64052  0  3.46  0
Sb  Sb1  1  0.48189292  0.76772683  0.68042654  1  1.450577  0  0.436054  0.640518  0  3.459946  0
Sb  Sb2  1  0.94354608  0.46235317  0.24807233  1  1.459593  0  0.437425  0.644156  0  3.487568  0
Sb  Sb3  1  0.05645340  0.53764619  0.75192713  1  1.459624  0  0.437431  0.644145  0  3.487571  0
H  H4  1  0.34967436  0.28161126  0.14060778  1  0.134028  0  0.0883  0.147691  0  1.040045  0
H  H5  1  0.65032406  0.71838619  0.85939481  1  0.134029  0  0.088292  0.147709  0  1.039982  0
H  H6  1  0.46652177  0.11389178  0.14391371  1  0.054281  0  0.089656  0.133958  0  1.004751  0
H  H7  1  0.53347860  0.88610568  0.85608915  1  0.054307  0  0.089667  0.133973  0  1.00468  0
H  H8  1  0.49982453  0.20604554  0.07164258  1  0.044135  0  0.095658  0.146847  0  0.992321  0
H  H9  1  0.50016999  0.79395188  0.92835853  1  0.044075  0  0.095625  0.146817  0  0.992329  0
H  H10  1  0.81071832  0.13304978  0.16960102  1  0.103705  0  0.089016  0.107424  0  1.05615  0
H  H11  1  0.18928319  0.86695151  0.83039762  1  0.103684  0  0.089024  0.107428  0  1.056137  0
H  H12  1  0.73730438  0.03759990  0.14107656  1  0.075139  0  0.096325  0.117425  0  0.993142  0
H  H13  1  0.26269661  0.96240043  0.85892219  1  0.07513  0  0.096297  0.117365  0  0.993144  0
H  H14  1  0.75845474  0.00958432  0.02423707  1  0.065467  0  0.092224  0.08762  0  1.025691  0
H  H15  1  0.24154911  0.99041407  0.97576142  1  0.065433  0  0.09222  0.087628  0  1.02567  0
H  H16  1  0.85286905  0.04455620  0.90408406  1  0.070036  0  0.091602  0.086481  0  1.052225  0
H  H17  1  0.14713577  0.95544220  0.09591480  1  0.069979  0  0.091588  0.086464  0  1.052193  0
H  H18  1  0.95401809  0.20895951  0.87656311  1  0.070482  0  0.094603  0.099546  0  1.017531  0
H  H19  1  0.04598719  0.79103793  0.12343574  1  0.07048  0  0.094643  0.099615  0  1.017534  0
H  H20  1  0.95915257  0.33566917  0.96826101  1  0.04652  0  0.084748  0.090615  0  1.046624  0
H  H21  1  0.04085030  0.66432923  0.03173857  1  0.046542  0  0.084721  0.090625  0  1.046558  0
H  H22  1  0.76587355  0.36088447  0.14028335  1  0.094634  0  0.084906  0.098527  0  1.070372  0
H  H23  1  0.23412412  0.63911874  0.85971566  1  0.094661  0  0.084897  0.09851  0  1.070398  0
H  H24  1  0.88604998  0.40867899  0.08043240  1  0.054313  0  0.093294  0.111083  0  0.995703  0
H  H25  1  0.11394958  0.59132229  0.91956549  1  0.054393  0  0.093281  0.111065  0  0.99575  0
H  H26  1  0.25676746  0.13822102  0.10072851  1  0.062088  0  0.097238  0.15009  0  0.999234  0
H  H27  1  0.74323353  0.86177931  0.89927121  1  0.062076  0  0.097269  0.150109  0  0.999264  0
H  H28  1  0.17389091  0.29775128  0.06961861  1  0.098921  0  0.083334  0.136851  0  1.028992  0
H  H29  1  0.82611391  0.70224714  0.93038123  1  0.09893  0  0.083328  0.136775  0  1.028981  0
H  H30  1  0.15429178  0.16429016  0.03796410  1  0.063034  0  0.091561  0.136325  0  1.037203  0
H  H31  1  0.84571116  0.83571018  0.96203588  1  0.063013  0  0.091571  0.136338  0  1.03719  0
H  H32  1  0.17602366  0.53671191  0.44083023  1  0.061802  0  0.092941  0.145935  0  1.011113  0
H  H33  1  0.82397634  0.46328844  0.55917058  1  0.061825  0  0.092959  0.145966  0  1.011088  0
H  H34  1  0.14147862  0.51179731  0.36205841  1  0.07433  0  0.072915  0.122874  0  1.086218  0
H  H35  1  0.85852093  0.48820399  0.63794193  1  0.074327  0  0.072914  0.122897  0  1.086186  0
H  H36  1  0.12271806  0.66779910  0.38524301  1  0.096936  0  0.090414  0.146843  0  1.04608  0
H  H37  1  0.87728051  0.33220221  0.61475842  1  0.096941  0  0.090428  0.146853  0  1.046077  0
H  H38  1  0.47525965  0.51725631  0.23556904  1  0.111613  0  0.085935  0.098358  0  1.055817  0
H  H39  1  0.52474178  0.48274308  0.76443214  1  0.111626  0  0.085938  0.098391  0  1.055807  0
H  H40  1  0.29317912  0.54003192  0.24742522  1  0.079362  0  0.096802  0.124395  0  0.998071  0
H  H41  1  0.70682224  0.45996551  0.75257507  1  0.079368  0  0.096798  0.124381  0  0.998114  0
H  H42  1  0.10982355  0.74637973  0.24271815  1  0.076298  0  0.090767  0.099951  0  1.040617  0
H  H43  1  0.89017676  0.25361579  0.75728333  1  0.076337  0  0.090771  0.099932  0  1.040664  0
H  H44  1  0.02671563  0.98352770  0.22891356  1  0.076373  0  0.09424  0.091086  0  1.02844  0
H  H45  1  0.97328709  0.01646685  0.77108719  1  0.076413  0  0.094246  0.091061  0  1.028349  0
H  H46  1  0.18915911  0.08812574  0.23737843  1  0.079045  0  0.084279  0.084662  0  1.058652  0
H  H47  1  0.81083834  0.91187169  0.76262184  1  0.079025  0  0.084284  0.084657  0  1.058594  0
H  H48  1  0.43401677  0.95358904  0.25663321  1  0.040718  0  0.08861  0.090451  0  1.042598  0
H  H49  1  0.56598279  0.04641225  0.74336566  1  0.040513  0  0.088592  0.090426  0  1.042644  0
H  H50  1  0.56643480  0.61706360  0.30589438  1  0.110986  0  0.094433  0.115961  0  1.025952  0
H  H51  1  0.43356273  0.38293575  0.69410482  1  0.110986  0  0.094429  0.115964  0  1.025987  0
H  H52  1  0.60282037  0.75651204  0.29149612  1  0.089644  0  0.09454  0.115679  0  1.022871  0
H  H53  1  0.39717956  0.24348636  0.70850332  1  0.089607  0  0.094524  0.115659  0  1.022877  0
H  H54  1  0.78889508  0.72487243  0.10604317  1  0.076451  0  0.096312  0.151067  0  0.998028  0
H  H55  1  0.21110199  0.27512790  0.89395702  1  0.076436  0  0.096301  0.151033  0  0.998063  0
H  H56  1  0.75521131  0.79916594  0.18631496  1  0.089643  0  0.088189  0.140944  0  1.034955  0
H  H57  1  0.24478425  0.20083343  0.81368692  1  0.089659  0  0.088193  0.140948  0  1.034918  0
H  H58  1  0.60808693  0.83144545  0.14581788  1  0.052185  0  0.093993  0.143561  0  1.000458  0
H  H59  1  0.39190954  0.16855197  0.85418201  1  0.05222  0  0.094005  0.143558  0  1.000479  0
H  H60  1  0.49141391  0.89501969  0.38790436  1  0.072653  0  0.094546  0.153425  0  1.000065  0
H  H61  1  0.50859060  0.10498356  0.61209580  1  0.072506  0  0.094535  0.153395  0  1.00007  0
H  H62  1  0.35177956  0.94607281  0.46295769  1  0.087994  0  0.089951  0.146034  0  1.038331  0
H  H63  1  0.64822585  0.05392852  0.53704293  1  0.088015  0  0.089943  0.146083  0  1.03836  0
H  H64  1  0.49420590  0.99983936  0.44778277  1  0.081994  0  0.085507  0.135502  0  1.046991  0
H  H65  1  0.50579907  0.00016292  0.55221737  1  0.082092  0  0.08553  0.135559  0  1.046955  0
H  H66  1  0.27675493  0.23748440  0.47679133  1  0.083205  0  0.092395  0.11573  0  1.009167  0
H  H67  1  0.72323980  0.76251884  0.52321048  1  0.082957  0  0.092378  0.115709  0  1.009215  0
H  H68  1  0.15360831  0.31486894  0.42363706  1  0.090645  0  0.092748  0.113167  0  1.035656  0
H  H69  1  0.84638830  0.68513237  0.57636411  1  0.090761  0  0.092742  0.113169  0  1.035651  0
H  H70  1  0.22658580  0.11382055  0.56895050  1  0.062528  0  0.091873  0.097758  0  1.024754  0
H  H71  1  0.77341180  0.88618076  0.43105105  1  0.062557  0  0.091886  0.097784  0  1.024753  0
H  H72  1  0.05797755  0.03989643  0.64492849  1  0.060014  0  0.09207  0.095199  0  1.037036  0
H  H73  1  0.94201666  0.96010583  0.35507293  1  0.059922  0  0.092067  0.095221  0  1.03702  0
H  H74  1  0.82654204  0.07360247  0.61554302  1  0.080654  0  0.091298  0.089475  0  1.042522  0
H  H75  1  0.17345608  0.92639979  0.38445696  1  0.080561  0  0.091281  0.089439  0  1.042486  0
H  H76  1  0.77455294  0.17225803  0.50613426  1  0.066978  0  0.088684  0.092133  0  1.047213  0
H  H77  1  0.22544466  0.82774327  0.49386583  1  0.067068  0  0.088698  0.092174  0  1.0472  0
H  H78  1  0.85679991  0.22473744  0.39604440  1  0.106943  0  0.094883  0.124878  0  1.009352  0
H  H79  1  0.14320100  0.77526096  0.60395493  1  0.106957  0  0.094889  0.124908  0  1.009337  0
H  H80  1  0.03762190  0.20606759  0.36773042  1  0.087695  0  0.089418  0.107798  0  1.03498  0
H  H81  1  0.96237855  0.79393178  0.63227039  1  0.087685  0  0.089414  0.107806  0  1.034966  0
H  H82  1  0.64719583  0.58505939  0.44063032  1  0.061357  0  0.092345  0.149854  0  0.993748  0
H  H83  1  0.35280418  0.41494093  0.55936854  1  0.061362  0  0.09235  0.149849  0  0.993746  0
H  H84  1  0.67774833  0.44600410  0.49130150  1  0.077215  0  0.091081  0.144814  0  1.007839  0
H  H85  1  0.32225070  0.55399622  0.50869796  1  0.077236  0  0.091122  0.144878  0  1.007832  0
H  H86  1  0.63988359  0.44447916  0.41023043  1  0.101008  0  0.07768  0.125123  0  1.075254  0
H  H87  1  0.36011641  0.55552116  0.58976843  1  0.101024  0  0.077659  0.125087  0  1.075317  0
C  C88  1  0.46105978  0.20883383  0.12644938  1  -0.193463  0  -0.234574  -0.407324  0  3.919656  0
C  C89  1  0.53893963  0.79116361  0.87355164  1  -0.193433  0  -0.234528  -0.407285  0  3.919518  0
C  C90  1  0.74550987  0.13057749  0.13519200  1  -0.139542  0  -0.150634  -0.236252  0  3.929543  0
C  C91  1  0.25449105  0.86942090  0.86480683  1  -0.139718  0  -0.150598  -0.23616  0  3.929418  0
C  C92  1  0.80546317  0.15207693  0.06372736  1  -0.021373  0  -0.017511  0.071765  0  3.959695  0
C  C93  1  0.19453827  0.84792242  0.93627137  1  -0.021327  0  -0.017549  0.071703  0  3.959588  0
C  C94  1  0.80236062  0.08162060  0.01142275  1  -0.086609  0  -0.095365  -0.137387  0  4.002115  0
C  C95  1  0.19764074  0.91837683  0.98857657  1  -0.086951  0  -0.095367  -0.137392  0  4.002158  0
C  C96  1  0.85550338  0.10066613  0.94422938  1  -0.032022  0  -0.096819  -0.078014  0  4.018379  0
C  C97  1  0.14450100  0.89933324  0.05576900  1  -0.031623  0  -0.096804  -0.077993  0  4.01843  0
C  C98  1  0.91317543  0.19162856  0.92869267  1  -0.044954  0  -0.096437  -0.078088  0  4.009689  0
C  C99  1  0.08682548  0.80836984  0.07130763  1  -0.044904  0  -0.096504  -0.078229  0  4.009636  0
C  C100  1  0.91661936  0.26265388  0.98049026  1  -0.044563  0  -0.100373  -0.139852  0  3.998172  0
C  C101  1  0.08338215  0.73734741  0.01950838  1  -0.044488  0  -0.100291  -0.139783  0  3.998022  0
C  C102  1  0.86276299  0.24501207  0.04791385  1  -0.011097  0  -0.01929  0.071147  0  3.949645  0
C  C103  1  0.13723604  0.75498826  0.95208611  1  -0.01119  0  -0.019321  0.071124  0  3.949552  0
C  C104  1  0.86672726  0.32500867  0.10174246  1  -0.106644  0  -0.150808  -0.233224  0  3.9294  0
C  C105  1  0.13327230  0.67499261  0.89825592  1  -0.106713  0  -0.150787  -0.233196  0  3.929384  0
C  C106  1  0.16312593  0.20683576  0.08218845  1  -0.193343  0  -0.235896  -0.405705  0  3.89648  0
C  C107  1  0.83687512  0.79316652  0.91781216  1  -0.193315  0  -0.235941  -0.405685  0  3.896518  0
C  C108  1  0.18383515  0.56335031  0.38786754  1  -0.171621  0  -0.241278  -0.404819  0  3.877008  0
C  C109  1  0.81616388  0.43665003  0.61213340  1  -0.171636  0  -0.241321  -0.404875  0  3.876969  0
C  C110  1  0.36502102  0.57248099  0.26452963  1  -0.141849  0  -0.149363  -0.231681  0  3.895949  0
C  C111  1  0.63498132  0.42751647  0.73547153  1  -0.14182  0  -0.14937  -0.231694  0  3.895865  0
C  C112  1  0.31847261  0.71547949  0.25684033  1  0.009024  0  -0.015008  0.0775  0  3.93268  0
C  C113  1  0.68152733  0.28451890  0.74315960  1  0.009056  0  -0.014968  0.077536  0  3.932665  0
C  C114  1  0.18150066  0.79200222  0.24493370  1  -0.06569  0  -0.088944  -0.119688  0  3.943365  0
C  C115  1  0.81850221  0.20799619  0.75506637  1  -0.06567  0  -0.088916  -0.119613  0  3.943134  0
C  C116  1  0.13474136  0.92527087  0.23717043  1  -0.050373  0  -0.091865  -0.07669  0  4.012479  0
C  C117  1  0.86525843  0.07472365  0.76282871  1  -0.05046  0  -0.091908  -0.076687  0  4.012339  0
C  C118  1  0.22537444  0.98377302  0.24142860  1  -0.055121  0  -0.102233  -0.095374  0  4.042061  0
C  C119  1  0.77462850  0.01622732  0.75857089  1  -0.055152  0  -0.102256  -0.095399  0  4.042039  0
C  C120  1  0.36283672  0.90823251  0.25280599  1  -0.075889  0  -0.103089  -0.1515  0  4.018719  0
C  C121  1  0.63716269  0.09176491  0.74719258  1  -0.075566  0  -0.103093  -0.151511  0  4.018619  0
C  C122  1  0.41074683  0.77471189  0.26079757  1  -0.002812  0  -0.019849  0.065932  0  3.957119  0
C  C123  1  0.58925468  0.22528941  0.73920204  1  -0.002915  0  -0.01977  0.066027  0  3.957009  0
C  C124  1  0.56005298  0.69717122  0.27169520  1  -0.156987  0  -0.148593  -0.238096  0  3.905749  0
C  C125  1  0.43994695  0.30282717  0.72830375  1  -0.156963  0  -0.148584  -0.238103  0  3.905714  0
C  C126  1  0.71185955  0.75889136  0.15429023  1  -0.164858  0  -0.230218  -0.404886  0  3.888863  0
C  C127  1  0.28813654  0.24110896  0.84571007  1  -0.164879  0  -0.230248  -0.404884  0  3.888898  0
C  C128  1  0.42452810  0.97453416  0.42461428  1  -0.188641  0  -0.238253  -0.415366  0  3.890818  0
C  C129  1  0.57547732  0.02546716  0.57538536  1  -0.188619  0  -0.238257  -0.415447  0  3.890853  0
C  C130  1  0.20592899  0.22438652  0.44877754  1  -0.135202  0  -0.148538  -0.23299  0  3.904775  0
C  C131  1  0.79406860  0.77561479  0.55122401  1  -0.13506  0  -0.148543  -0.233053  0  3.904847  0
C  C132  1  0.09892669  0.18248168  0.49363763  1  -0.051449  0  -0.019288  0.064004  0  3.948339  0
C  C133  1  0.90107045  0.81752059  0.50636344  1  -0.051394  0  -0.019279  0.064078  0  3.948237  0
C  C134  1  0.12777487  0.12573442  0.55472919  1  -0.019282  0  -0.0953  -0.133602  0  3.988359  0
C  C135  1  0.87221986  0.87426881  0.44527262  1  -0.01928  0  -0.095284  -0.133568  0  3.988174  0
C  C136  1  0.03182774  0.08492339  0.59811284  1  -0.054431  0  -0.096979  -0.083111  0  4.014343  0
C  C137  1  0.96817234  0.91507888  0.40188740  1  -0.054353  0  -0.097  -0.083213  0  4.014444  0
C  C138  1  0.90295836  0.10369265  0.58140423  1  -0.037426  0  -0.092929  -0.073753  0  4.001797  0
C  C139  1  0.09703683  0.89630961  0.41859610  1  -0.037135  0  -0.092872  -0.073626  0  4.001806  0
C  C140  1  0.87341854  0.15965998  0.52048106  1  -0.038342  0  -0.093563  -0.132491  0  3.976854  0
C  C141  1  0.12658003  0.84034133  0.47951988  1  -0.038981  0  -0.093624  -0.132624  0  3.976876  0
C  C142  1  0.97109609  0.19704565  0.47543965  1  -0.024326  0  -0.016541  0.071826  0  3.948521  0
C  C143  1  0.02890007  0.80295661  0.52456104  1  -0.023919  0  -0.016532  0.071858  0  3.94846  0
C  C144  1  0.94042565  0.24757309  0.40818243  1  -0.154  0  -0.151396  -0.23497  0  3.899153  0
C  C145  1  0.05957383  0.75242627  0.59181751  1  -0.154117  0  -0.151425  -0.235064  0  3.899194  0
C  C146  1  0.69307661  0.47917069  0.43948232  1  -0.181186  0  -0.235651  -0.399478  0  3.890801  0
C  C147  1  0.30692196  0.52083060  0.56051715  1  -0.181243  0  -0.235686  -0.399503  0  3.890943  0
S  S148  1  0.56622807  0.25807270  0.16686394  1  0.002914  0  0.010919  0.086444  0  2.890358  0
S  S149  1  0.43377193  0.74192762  0.83313491  1  0.003074  0  0.010906  0.086388  0  2.89039  0
S  S150  1  0.00632435  0.23403505  0.14838365  1  -0.00284  0  0.010782  0.075009  0  2.879497  0
S  S151  1  0.99367385  0.76596914  0.85161575  1  -0.002904  0  0.010806  0.075038  0  2.879532  0
S  S152  1  0.37173038  0.51919609  0.35104277  1  -0.015121  0  0.010211  0.077428  0  2.889368  0
S  S153  1  0.62826910  0.48080329  0.64895864  1  -0.015205  0  0.010183  0.077392  0  2.889299  0
S  S154  1  0.68696225  0.62108300  0.19311613  1  0.002625  0  0.030828  0.110012  0  2.886826  0
S  S155  1  0.31303867  0.37891540  0.80688320  1  0.00264  0  0.030838  0.110025  0  2.886866  0
S  S156  1  0.32095750  0.10867185  0.37947213  1  0.004779  0  0.028207  0.106305  0  2.973064  0
S  S157  1  0.67904257  0.89133043  0.62052908  1  0.004737  0  0.028221  0.106327  0  2.973122  0
S  S158  1  0.88282325  0.42228839  0.40165933  1  -0.013757  0  0.000387  0.065539  0  2.876584  0
S  S159  1  0.11717623  0.57771096  0.59833963  1  -0.013769  0  0.000418  0.065577  0  2.876631  0
Cl  Cl160  1  0.55110126  0.22464084  0.43647122  1  -0.586347  0  -0.189258  -0.336195  0  1.287306  0
Cl  Cl161  1  0.44890049  0.77535366  0.56352573  1  -0.586398  0  -0.189231  -0.336178  0  1.287272  0
Cl  Cl162  1  0.71895930  0.31002950  0.28213838  1  -0.609946  0  -0.213257  -0.385164  0  1.376871  0
Cl  Cl163  1  0.28104063  0.68996890  0.71786155  1  -0.609968  0  -0.21326  -0.385158  0  1.376873  0
Cl  Cl164  1  0.69131134  0.00330032  0.29313540  1  -0.582009  0  -0.206407  -0.342298  0  1.268451  0
Cl  Cl165  1  0.30868919  0.99670096  0.70686238  1  -0.582017  0  -0.206429  -0.34231  0  1.268438  0
Cl  Cl166  1  0.89532415  0.66909604  0.29911951  1  -0.560764  0  -0.183849  -0.315279  0  1.334975  0
Cl  Cl167  1  0.10467533  0.33090333  0.70088092  1  -0.560768  0  -0.18384  -0.315259  0  1.334992  0
Cl  Cl168  1  0.19051916  0.33344325  0.27349765  1  -0.606263  0  -0.198  -0.366695  0  1.395157  0
Cl  Cl169  1  0.80947791  0.66655707  0.72650204  1  -0.606258  0  -0.198008  -0.366713  0  1.395142  0
Cl  Cl170  1  0.06864555  0.52044976  0.14154072  1  -0.582358  0  -0.19877  -0.35075  0  1.306036  0
Cl  Cl171  1  0.93135791  0.47955156  0.85846013  1  -0.582339  0  -0.19877  -0.350738  0  1.306053  0
