# generated using pymatgen
data_TbH4C8N2Cl3
_symmetry_space_group_name_H-M   'P 1'
_cell_length_a   6.25893680
_cell_length_b   7.05717810
_cell_length_c   22.06267955
_cell_angle_alpha   89.99813915
_cell_angle_beta   90.00524948
_cell_angle_gamma   90.00023350
_symmetry_Int_Tables_number   1
_chemical_formula_structural   TbH4C8N2Cl3
_chemical_formula_sum   'Tb4 H16 C32 N8 Cl12'
_cell_volume   974.51807625
_cell_formula_units_Z   4
loop_
 _symmetry_equiv_pos_site_id
 _symmetry_equiv_pos_as_xyz
  1  'x, y, z'
loop_
 _atom_site_type_symbol
 _atom_site_label
 _atom_site_symmetry_multiplicity
 _atom_site_fract_x
 _atom_site_fract_y
 _atom_site_fract_z
 _atom_site_occupancy
 _atom_site_hle17_bader_spin_density
 _atom_site_hle17_ddec_charge
 _atom_site_hle17_ddec_spin_density
 _atom_site_hle17_ddec_sum_bond_order
 _atom_site_hle17_magmom
 _atom_site_hse06_10hf_bader_spin_density
 _atom_site_hse06_10hf_ddec_charge
 _atom_site_hse06_10hf_ddec_spin_density
 _atom_site_hse06_10hf_ddec_sum_bond_order
 _atom_site_hse06_10hf_magmom
 _atom_site_hse06_bader_spin_density
 _atom_site_hse06_ddec_charge
 _atom_site_hse06_ddec_spin_density
 _atom_site_hse06_ddec_sum_bond_order
 _atom_site_hse06_magmom
 _atom_site_pbe_bader_spin_density
 _atom_site_pbe_cm5_charge
 _atom_site_pbe_ddec_charge
 _atom_site_pbe_ddec_spin_density
 _atom_site_pbe_ddec_sum_bond_order
 _atom_site_pbe_magmom
Tb  Tb0  1  0.45318938  0.99164799  0.24999854  1  0  2.019703  0  1.789879  0  0  1.932189  0  2.17749  0  0  1.992959  0  2.109725  0  0  1.049119  1.884819  0  2.233149  0
Tb  Tb1  1  0.95317693  0.50834950  0.75000208  1  0  2.019624  0  1.789939  0  0  1.932113  0  2.177565  0  0  1.992888  0  2.109787  0  0  1.04905  1.884741  0  2.233216  0
Tb  Tb2  1  0.04682077  0.49165403  0.25000036  1  0  2.019623  0  1.789886  0  0  1.932129  0  2.177449  0  0  1.992943  0  2.1096  0  0  1.049026  1.884754  0  2.233108  0
Tb  Tb3  1  0.54681791  0.00833853  0.75000345  1  0  2.019627  0  1.789919  0  0  1.932189  0  2.177401  0  0  1.993008  0  2.109536  0  0  1.049101  1.884824  0  2.233045  0
H  H4  1  0.12679212  0.11006739  0.10152184  1  0  0.135418  0  0.970711  0  0  0.14317  0  1.029413  0  0  0.147242  0  1.026917  0  0  0.101278  0.140143  0  1.031459  0
H  H5  1  0.62680184  0.38992694  0.89848042  1  0  0.135442  0  0.971137  0  0  0.14313  0  1.029906  0  0  0.147202  0  1.027411  0  0  0.101365  0.140109  0  1.031937  0
H  H6  1  0.37318794  0.61007831  0.39846692  1  0  0.135701  0  0.970631  0  0  0.143318  0  1.029454  0  0  0.147393  0  1.026958  0  0  0.101359  0.140292  0  1.031488  0
H  H7  1  0.87318794  0.88993582  0.60151440  1  0  0.135496  0  0.971281  0  0  0.143271  0  1.02988  0  0  0.147342  0  1.027381  0  0  0.101398  0.140243  0  1.031924  0
H  H8  1  0.87319280  0.88993188  0.89848014  1  0  0.135384  0  0.97132  0  0  0.143092  0  1.030032  0  0  0.147162  0  1.027536  0  0  0.101324  0.140072  0  1.03206  0
H  H9  1  0.37319427  0.61007800  0.10152610  1  0  0.135493  0  0.970938  0  0  0.143233  0  1.029641  0  0  0.147308  0  1.027144  0  0  0.10136  0.140207  0  1.031682  0
H  H10  1  0.62678260  0.38993796  0.60151286  1  0  0.135448  0  0.97145  0  0  0.14319  0  1.030084  0  0  0.14726  0  1.027587  0  0  0.101325  0.140162  0  1.03213  0
H  H11  1  0.12682574  0.11005920  0.39848169  1  0  0.135438  0  0.970856  0  0  0.143155  0  1.029572  0  0  0.147228  0  1.027074  0  0  0.101351  0.140125  0  1.031624  0
H  H12  1  0.63862429  0.85610302  0.98832311  1  0  0.102267  0  0.962491  0  0  0.11135  0  1.025714  0  0  0.11332  0  1.026936  0  0  0.105204  0.109935  0  1.024954  0
H  H13  1  0.13866714  0.64387322  0.01168611  1  0  0.102288  0  0.962923  0  0  0.11137  0  1.026126  0  0  0.113337  0  1.027344  0  0  0.105255  0.109956  0  1.025367  0
H  H14  1  0.86138775  0.35612081  0.51167885  1  0  0.102345  0  0.962569  0  0  0.111403  0  1.025801  0  0  0.113373  0  1.027019  0  0  0.105245  0.109989  0  1.025042  0
H  H15  1  0.36136737  0.14388308  0.48832043  1  0  0.102372  0  0.962889  0  0  0.111419  0  1.026089  0  0  0.113389  0  1.027307  0  0  0.105281  0.110006  0  1.025333  0
H  H16  1  0.36136383  0.14387500  0.01168159  1  0  0.10246  0  0.962893  0  0  0.111497  0  1.026089  0  0  0.113469  0  1.027307  0  0  0.105299  0.110083  0  1.025333  0
H  H17  1  0.86136891  0.35610622  0.98831271  1  0  0.102409  0  0.962767  0  0  0.111451  0  1.025983  0  0  0.113421  0  1.027203  0  0  0.105286  0.110037  0  1.025226  0
H  H18  1  0.13863872  0.64388271  0.48831996  1  0  0.102429  0  0.96292  0  0  0.111474  0  1.026121  0  0  0.113443  0  1.027341  0  0  0.105277  0.11006  0  1.025364  0
H  H19  1  0.63863034  0.85612469  0.51168155  1  0  0.102356  0  0.962576  0  0  0.111406  0  1.025815  0  0  0.113375  0  1.027036  0  0  0.105262  0.109993  0  1.025056  0
C  C20  1  0.86794641  0.98026936  0.05046113  1  0  0.023526  0  3.849988  0  0  0.043554  0  4.083547  0  0  0.042742  0  4.102269  0  0  0.011118  0.044034  0  4.071052  0
C  C21  1  0.36797882  0.51972208  0.94954226  1  0  0.023401  0  3.848944  0  0  0.043307  0  4.08278  0  0  0.042491  0  4.1015  0  0  0.011097  0.043788  0  4.070285  0
C  C22  1  0.63206421  0.48028076  0.44954090  1  0  0.023564  0  3.849757  0  0  0.043607  0  4.083288  0  0  0.042799  0  4.102007  0  0  0.01113  0.04408  0  4.070798  0
C  C23  1  0.13203792  0.01974052  0.55045968  1  0  0.023677  0  3.849053  0  0  0.043536  0  4.082923  0  0  0.04272  0  4.101646  0  0  0.011136  0.04402  0  4.070426  0
C  C24  1  0.13203372  0.01971008  0.94953496  1  0  0.023574  0  3.848705  0  0  0.043415  0  4.082633  0  0  0.042599  0  4.101358  0  0  0.011136  0.043896  0  4.070138  0
C  C25  1  0.63201250  0.48027153  0.05045565  1  0  0.023819  0  3.849008  0  0  0.043518  0  4.08309  0  0  0.042706  0  4.101817  0  0  0.011132  0.043996  0  4.070596  0
C  C26  1  0.36794947  0.51972559  0.55046245  1  0  0.023717  0  3.848713  0  0  0.043592  0  4.082536  0  0  0.042777  0  4.101259  0  0  0.011245  0.044078  0  4.070037  0
C  C27  1  0.86795818  0.98027151  0.44954729  1  0  0.023475  0  3.850071  0  0  0.04339  0  4.083765  0  0  0.042578  0  4.102485  0  0  0.011093  0.043867  0  4.071273  0
C  C28  1  0.73310118  0.96476728  0.10225507  1  0  0.341544  0  3.654189  0  0  0.320952  0  3.920394  0  0  0.33397  0  3.936134  0  0  0.22185  0.311999  0  3.910053  0
C  C29  1  0.23312009  0.53521363  0.89774980  1  0  0.341621  0  3.654999  0  0  0.321112  0  3.921186  0  0  0.334129  0  3.936926  0  0  0.221842  0.312158  0  3.910838  0
C  C30  1  0.76689181  0.46477328  0.39774893  1  0  0.341534  0  3.654751  0  0  0.320954  0  3.920904  0  0  0.333969  0  3.936644  0  0  0.221861  0.312008  0  3.910562  0
C  C31  1  0.26693504  0.03525711  0.60223884  1  0  0.341204  0  3.655268  0  0  0.320672  0  3.921533  0  0  0.333688  0  3.937281  0  0  0.221671  0.311719  0  3.911182  0
C  C32  1  0.26688374  0.03523766  0.89775281  1  0  0.341526  0  3.655117  0  0  0.321021  0  3.921345  0  0  0.334041  0  3.937089  0  0  0.221884  0.312067  0  3.910998  0
C  C33  1  0.76688240  0.46477856  0.10224312  1  0  0.341504  0  3.655013  0  0  0.321075  0  3.921263  0  0  0.334089  0  3.937006  0  0  0.221827  0.312124  0  3.910921  0
C  C34  1  0.23311547  0.53522457  0.60225034  1  0  0.341508  0  3.65474  0  0  0.320978  0  3.920961  0  0  0.333997  0  3.936705  0  0  0.221835  0.312022  0  3.910609  0
C  C35  1  0.73313615  0.96476342  0.39775046  1  0  0.341808  0  3.654865  0  0  0.321249  0  3.921061  0  0  0.334268  0  3.936799  0  0  0.221922  0.312298  0  3.910722  0
C  C36  1  0.79688529  0.91862245  0.99320594  1  0  -0.094597  0  3.715893  0  0  -0.116328  0  3.966197  0  0  -0.118556  0  3.986525  0  0  -0.074837  -0.114766  0  3.952482  0
C  C37  1  0.29687522  0.58138567  0.00679833  1  0  -0.094524  0  3.715942  0  0  -0.116186  0  3.966282  0  0  -0.118406  0  3.986602  0  0  -0.074928  -0.114624  0  3.952569  0
C  C38  1  0.70313495  0.41862869  0.50679855  1  0  -0.094603  0  3.715862  0  0  -0.116348  0  3.966172  0  0  -0.118576  0  3.986497  0  0  -0.074952  -0.114782  0  3.952456  0
C  C39  1  0.20314469  0.08138441  0.49319843  1  0  -0.094655  0  3.715862  0  0  -0.116341  0  3.966205  0  0  -0.118567  0  3.98653  0  0  -0.07493  -0.114784  0  3.952495  0
C  C40  1  0.20314437  0.08139100  0.00680420  1  0  -0.094803  0  3.715326  0  0  -0.116463  0  3.965736  0  0  -0.118691  0  3.986059  0  0  -0.075015  -0.114901  0  3.952025  0
C  C41  1  0.70313527  0.41861076  0.99320321  1  0  -0.094909  0  3.716006  0  0  -0.116475  0  3.966384  0  0  -0.118704  0  3.986708  0  0  -0.074964  -0.114912  0  3.952673  0
C  C42  1  0.29686595  0.58139750  0.49319482  1  0  -0.094803  0  3.715805  0  0  -0.116498  0  3.966176  0  0  -0.118725  0  3.986504  0  0  -0.075054  -0.11494  0  3.952466  0
C  C43  1  0.79688337  0.91860778  0.50680083  1  0  -0.094691  0  3.716035  0  0  -0.116382  0  3.966377  0  0  -0.118611  0  3.986706  0  0  -0.074976  -0.114818  0  3.952664  0
C  C44  1  0.07189057  0.06204185  0.05720174  1  0  -0.060007  0  3.654809  0  0  -0.082757  0  3.899694  0  0  -0.083753  0  3.916906  0  0  -0.068078  -0.082099  0  3.888259  0
C  C45  1  0.57194353  0.43793240  0.94279094  1  0  -0.059596  0  3.654411  0  0  -0.082329  0  3.899381  0  0  -0.08332  0  3.916586  0  0  -0.067898  -0.081672  0  3.887948  0
C  C46  1  0.42810850  0.56207255  0.44279341  1  0  -0.060291  0  3.65459  0  0  -0.082923  0  3.899482  0  0  -0.083922  0  3.916696  0  0  -0.068092  -0.082259  0  3.888045  0
C  C47  1  0.92806718  0.93795458  0.55721155  1  0  -0.059799  0  3.654567  0  0  -0.082531  0  3.8995  0  0  -0.083522  0  3.916707  0  0  -0.067931  -0.081874  0  3.888064  0
C  C48  1  0.92804642  0.93792767  0.94279028  1  0  -0.059587  0  3.654299  0  0  -0.082276  0  3.899292  0  0  -0.083265  0  3.916495  0  0  -0.067913  -0.08162  0  3.887859  0
C  C49  1  0.42806376  0.56207254  0.05721014  1  0  -0.059892  0  3.654363  0  0  -0.082629  0  3.899467  0  0  -0.083629  0  3.916675  0  0  -0.067968  -0.08197  0  3.888035  0
C  C50  1  0.57194672  0.43794656  0.55720586  1  0  -0.05983  0  3.654497  0  0  -0.082504  0  3.899355  0  0  -0.083496  0  3.91656  0  0  -0.067943  -0.081848  0  3.887919  0
C  C51  1  0.07188898  0.06206737  0.44279815  1  0  -0.059905  0  3.65487  0  0  -0.082541  0  3.899689  0  0  -0.083535  0  3.916897  0  0  -0.068028  -0.081882  0  3.888255  0
N  N52  1  0.62515047  0.95880494  0.14518412  1  0  -0.429189  0  2.819613  0  0  -0.393779  0  3.073029  0  0  -0.407975  0  3.084256  0  0  -0.343228  -0.384196  0  3.06618  0
N  N53  1  0.12516352  0.54118682  0.85482476  1  0  -0.429375  0  2.820313  0  0  -0.393989  0  3.073706  0  0  -0.408188  0  3.084931  0  0  -0.343309  -0.3844  0  3.066852  0
N  N54  1  0.87483451  0.45881584  0.35482538  1  0  -0.429184  0  2.81998  0  0  -0.393802  0  3.073406  0  0  -0.408002  0  3.08463  0  0  -0.343237  -0.384221  0  3.066552  0
N  N55  1  0.37481495  0.04118386  0.64518150  1  0  -0.429015  0  2.82033  0  0  -0.393604  0  3.073719  0  0  -0.407805  0  3.084945  0  0  -0.343162  -0.384021  0  3.066863  0
N  N56  1  0.37481687  0.04117449  0.85482422  1  0  -0.429285  0  2.820058  0  0  -0.393914  0  3.073471  0  0  -0.408115  0  3.084695  0  0  -0.343277  -0.384326  0  3.066618  0
N  N57  1  0.87481661  0.45880820  0.14517134  1  0  -0.429329  0  2.820289  0  0  -0.393945  0  3.073636  0  0  -0.408147  0  3.084861  0  0  -0.343253  -0.384359  0  3.066788  0
N  N58  1  0.12516319  0.54118768  0.64517615  1  0  -0.42923  0  2.819761  0  0  -0.393834  0  3.073175  0  0  -0.408032  0  3.084404  0  0  -0.343224  -0.384247  0  3.066314  0
N  N59  1  0.62516039  0.95880975  0.35482683  1  0  -0.42944  0  2.820185  0  0  -0.394044  0  3.073608  0  0  -0.408242  0  3.084833  0  0  -0.343308  -0.384461  0  3.06676  0
Cl  Cl60  1  0.32296736  0.28641347  0.17713352  1  0  -0.682798  0  1.040602  0  0  -0.656138  0  1.303285  0  0  -0.676058  0  1.285441  0  0  -0.316971  -0.64045  0  1.31702  0
Cl  Cl61  1  0.82296161  0.21357608  0.82286477  1  0  -0.682702  0  1.040545  0  0  -0.656016  0  1.303219  0  0  -0.675949  0  1.285387  0  0  -0.316952  -0.640331  0  1.316952  0
Cl  Cl62  1  0.17703089  0.78641428  0.32286657  1  0  -0.682763  0  1.040566  0  0  -0.656082  0  1.303276  0  0  -0.676013  0  1.285451  0  0  -0.316926  -0.640394  0  1.317006  0
Cl  Cl63  1  0.67703555  0.71358055  0.67713367  1  0  -0.682713  0  1.040507  0  0  -0.65606  0  1.303191  0  0  -0.675994  0  1.285361  0  0  -0.316963  -0.640375  0  1.31692  0
Cl  Cl64  1  0.67703194  0.71358155  0.82286484  1  0  -0.682745  0  1.040659  0  0  -0.656066  0  1.303325  0  0  -0.675997  0  1.285491  0  0  -0.316949  -0.640383  0  1.317057  0
Cl  Cl65  1  0.17703610  0.78642177  0.17713450  1  0  -0.682735  0  1.040597  0  0  -0.656053  0  1.30327  0  0  -0.675987  0  1.285444  0  0  -0.316956  -0.640365  0  1.317005  0
Cl  Cl66  1  0.82297001  0.21358074  0.67713269  1  0  -0.682784  0  1.040432  0  0  -0.656161  0  1.303158  0  0  -0.676087  0  1.285314  0  0  -0.316964  -0.640473  0  1.316885  0
Cl  Cl67  1  0.32296854  0.28642014  0.32286650  1  0  -0.682716  0  1.040484  0  0  -0.656033  0  1.303161  0  0  -0.675965  0  1.285334  0  0  -0.316951  -0.640349  0  1.316897  0
Cl  Cl68  1  0.84173954  0.15795727  0.25000151  1  0  -0.692498  0  1.100068  0  0  -0.672656  0  1.378577  0  0  -0.695239  0  1.360847  0  0  -0.321958  -0.654426  0  1.391739  0
Cl  Cl69  1  0.34174372  0.34204369  0.74999953  1  0  -0.692465  0  1.099958  0  0  -0.672622  0  1.378457  0  0  -0.695206  0  1.360719  0  0  -0.321948  -0.654429  0  1.391684  0
Cl  Cl70  1  0.65825238  0.65796408  0.25000155  1  0  -0.69244  0  1.100067  0  0  -0.672584  0  1.37856  0  0  -0.695172  0  1.360844  0  0  -0.321953  -0.654377  0  1.391763  0
Cl  Cl71  1  0.15825017  0.84203491  0.74999639  1  0  -0.692427  0  1.100063  0  0  -0.67259  0  1.378581  0  0  -0.695176  0  1.360848  0  0  -0.321952  -0.65437  0  1.391761  0
