# generated using pymatgen
data_ZnH3C5N4ClO2
_symmetry_space_group_name_H-M   'P 1'
_cell_length_a   12.09397907
_cell_length_b   12.09398036
_cell_length_c   12.09398246
_cell_angle_alpha   95.78632478
_cell_angle_beta   95.78609839
_cell_angle_gamma   95.78652606
_symmetry_Int_Tables_number   1
_chemical_formula_structural   ZnH3C5N4ClO2
_chemical_formula_sum   'Zn6 H18 C30 N24 Cl6 O12'
_cell_volume   1739.89763477
_cell_formula_units_Z   6
loop_
 _symmetry_equiv_pos_site_id
 _symmetry_equiv_pos_as_xyz
  1  'x, y, z'
loop_
 _atom_site_type_symbol
 _atom_site_label
 _atom_site_symmetry_multiplicity
 _atom_site_fract_x
 _atom_site_fract_y
 _atom_site_fract_z
 _atom_site_occupancy
 _atom_site_pbe_bader_charge
 _atom_site_pbe_bader_spin_density
 _atom_site_pbe_cm5_charge
 _atom_site_pbe_ddec_charge
 _atom_site_pbe_ddec_spin_density
 _atom_site_pbe_ddec_sum_bond_order
 _atom_site_pbe_magmom
Zn  Zn0  1  0.95168021  0.67598765  0.24028485  1  1.271228  0  0.695245  0.815641  0  2.382096  0
Zn  Zn1  1  0.24028566  0.95167863  0.67598454  1  1.271252  0  0.695249  0.815655  0  2.382054  0
Zn  Zn2  1  0.67598623  0.24028373  0.95168085  1  1.271183  0  0.695253  0.815677  0  2.382048  0
Zn  Zn3  1  0.04831999  0.32401487  0.75971419  1  1.271355  0  0.695259  0.81563  0  2.382033  0
Zn  Zn4  1  0.75971455  0.04831972  0.32401408  1  1.271235  0  0.695269  0.815686  0  2.382034  0
Zn  Zn5  1  0.32401565  0.75971233  0.04831936  1  1.271291  0  0.69527  0.815717  0  2.381963  0
H  H6  1  0.87102606  0.30731331  0.37393504  1  0.533824  0  0.294699  0.312296  0  1.005042  0
H  H7  1  0.37393795  0.87101932  0.30731065  1  0.533817  0  0.294719  0.31233  0  1.005117  0
H  H8  1  0.30731744  0.37393514  0.87102448  1  0.533916  0  0.294721  0.312363  0  1.004916  0
H  H9  1  0.12897916  0.69268976  0.62606373  1  0.53382  0  0.294698  0.312336  0  1.005093  0
H  H10  1  0.62606142  0.12897562  0.69268837  1  0.533807  0  0.294692  0.312257  0  1.005016  0
H  H11  1  0.69269113  0.62606416  0.12897756  1  0.53375  0  0.29471  0.312336  0  1.005062  0
H  H12  1  0.94671180  0.40196128  0.48780645  1  0.497854  0  0.300359  0.323281  0  0.967982  0
H  H13  1  0.48780657  0.94670844  0.40196041  1  0.497872  0  0.300346  0.323287  0  0.96802  0
H  H14  1  0.40196091  0.48780732  0.94671031  1  0.497849  0  0.300364  0.323303  0  0.967971  0
H  H15  1  0.05328924  0.59803967  0.51219335  1  0.497839  0  0.300379  0.323314  0  0.967991  0
H  H16  1  0.51219028  0.05328954  0.59804114  1  0.497821  0  0.300387  0.323282  0  0.967989  0
H  H17  1  0.59804013  0.51219446  0.05328957  1  0.497837  0  0.300347  0.323268  0  0.968029  0
H  H18  1  0.69618703  0.08638121  0.10097873  1  0.462346  0  0.279301  0.285928  0  1.013688  0
H  H19  1  0.10097778  0.69619356  0.08637837  1  0.462369  0  0.279294  0.285884  0  1.013744  0
H  H20  1  0.08637880  0.10097456  0.69619291  1  0.462316  0  0.279308  0.285911  0  1.0137  0
H  H21  1  0.30381066  0.91361936  0.89902234  1  0.462381  0  0.279294  0.285937  0  1.013672  0
H  H22  1  0.89902242  0.30380979  0.91361993  1  0.462371  0  0.279289  0.285877  0  1.013764  0
H  H23  1  0.91362057  0.89902121  0.30380784  1  0.462375  0  0.279301  0.285908  0  1.013719  0
C  C24  1  0.84402338  0.47813324  0.05008002  1  1.168516  0  0.232633  0.369902  0  4.123985  0
C  C25  1  0.05007980  0.84402416  0.47813480  1  1.168541  0  0.232639  0.369912  0  4.124008  0
C  C26  1  0.47813209  0.05007888  0.84402212  1  1.168549  0  0.232594  0.369864  0  4.124002  0
C  C27  1  0.15597515  0.52186493  0.94991924  1  1.168546  0  0.232607  0.369863  0  4.124139  0
C  C28  1  0.94991873  0.15597650  0.52186719  1  1.168535  0  0.232626  0.36988  0  4.123999  0
C  C29  1  0.52186560  0.94992003  0.15597631  1  1.168487  0  0.232606  0.369881  0  4.123922  0
C  C30  1  0.91704488  0.46396284  0.33775450  1  1.385773  0  0.242649  0.540434  0  4.141895  0
C  C31  1  0.33775407  0.91704798  0.46396269  1  1.386285  0  0.242775  0.54073  0  4.141802  0
C  C32  1  0.46396089  0.33775443  0.91704709  1  1.385623  0  0.242731  0.540578  0  4.141939  0
C  C33  1  0.08295282  0.53603856  0.66224582  1  1.386302  0  0.242812  0.540718  0  4.141723  0
C  C34  1  0.66224195  0.08295490  0.53604092  1  1.386523  0  0.242618  0.540329  0  4.142107  0
C  C35  1  0.53603932  0.66224642  0.08295013  1  1.386272  0  0.242814  0.540676  0  4.14177  0
C  C36  1  0.87344767  0.43634370  0.21910699  1  0.448385  0  0.07249  -0.003752  0  3.992109  0
C  C37  1  0.21910736  0.87344701  0.43634016  1  0.448374  0  0.072458  -0.003844  0  3.992047  0
C  C38  1  0.43634260  0.21910674  0.87344953  1  0.448435  0  0.072493  -0.003756  0  3.992006  0
C  C39  1  0.12655337  0.56365891  0.78089214  1  0.448375  0  0.07248  -0.003825  0  3.991992  0
C  C40  1  0.78089117  0.12655116  0.56365828  1  0.448196  0  0.072524  -0.003703  0  3.991992  0
C  C41  1  0.56366095  0.78089366  0.12655129  1  0.448406  0  0.072466  -0.003801  0  3.992079  0
C  C42  1  0.81883310  0.34224368  0.15116133  1  0.397848  0  0.077472  0.0305  0  3.962314  0
C  C43  1  0.15115919  0.81883338  0.34224305  1  0.397678  0  0.077549  0.030651  0  3.962258  0
C  C44  1  0.34224208  0.15115976  0.81883535  1  0.397861  0  0.077512  0.030551  0  3.962284  0
C  C45  1  0.18116710  0.65775717  0.84884085  1  0.397678  0  0.07755  0.030655  0  3.962204  0
C  C46  1  0.84883851  0.18116469  0.65775859  1  0.397856  0  0.077518  0.030572  0  3.962216  0
C  C47  1  0.65775813  0.84884192  0.18116691  1  0.397833  0  0.077564  0.030659  0  3.962321  0
C  C48  1  0.77805113  0.22784621  0.17169896  1  1.412613  0  0.223194  0.522154  0  4.190146  0
C  C49  1  0.17169840  0.77805372  0.22784445  1  1.412551  0  0.223145  0.522098  0  4.190184  0
C  C50  1  0.22784307  0.17169559  0.77805489  1  1.41254  0  0.223133  0.52212  0  4.190199  0
C  C51  1  0.22194741  0.77215445  0.82830138  1  1.412595  0  0.22316  0.522147  0  4.190152  0
C  C52  1  0.82830097  0.22194621  0.77215590  1  1.412526  0  0.22307  0.521976  0  4.19029  0
C  C53  1  0.77215462  0.82830165  0.22194584  1  1.412551  0  0.22311  0.522054  0  4.190273  0
N  N54  1  0.80048945  0.37051193  0.04360652  1  -1.189155  0  -0.349589  -0.398392  0  3.443133  0
N  N55  1  0.04360496  0.80048976  0.37051114  1  -1.188977  0  -0.349631  -0.398525  0  3.443211  0
N  N56  1  0.37051086  0.04360557  0.80048960  1  -1.189252  0  -0.349595  -0.398444  0  3.443334  0
N  N57  1  0.19950992  0.62948882  0.95639557  1  -1.189019  0  -0.349663  -0.398588  0  3.443284  0
N  N58  1  0.95639273  0.19950915  0.62948894  1  -1.189182  0  -0.349627  -0.398472  0  3.443134  0
N  N59  1  0.62948851  0.95639519  0.19951249  1  -1.189214  0  -0.349584  -0.398498  0  3.443153  0
N  N60  1  0.88848963  0.52154122  0.15295730  1  -1.240517  0  -0.361638  -0.396995  0  3.550725  0
N  N61  1  0.15295716  0.88848997  0.52153986  1  -1.240466  0  -0.361651  -0.396964  0  3.550618  0
N  N62  1  0.52154054  0.15295556  0.88848977  1  -1.240464  0  -0.361634  -0.396954  0  3.550607  0
N  N63  1  0.11151141  0.47845889  0.84704241  1  -1.240544  0  -0.361597  -0.39689  0  3.550668  0
N  N64  1  0.84704138  0.11150986  0.47846040  1  -1.24044  0  -0.361667  -0.396996  0  3.550804  0
N  N65  1  0.47846050  0.84704289  0.11150894  1  -1.240431  0  -0.361676  -0.397036  0  3.550686  0
N  N66  1  0.90863092  0.38574928  0.40693714  1  -1.313463  0  -0.554372  -0.603822  0  3.328518  0
N  N67  1  0.40694166  0.90862776  0.38574340  1  -1.313358  0  -0.55449  -0.604054  0  3.328435  0
N  N68  1  0.38575227  0.40693828  0.90863098  1  -1.313435  0  -0.554431  -0.603943  0  3.328503  0
N  N69  1  0.09137096  0.61425674  0.59305912  1  -1.313365  0  -0.554496  -0.604066  0  3.328427  0
N  N70  1  0.59306022  0.09136995  0.61425119  1  -1.31342  0  -0.55434  -0.603667  0  3.328639  0
N  N71  1  0.61425797  0.59305954  0.09136860  1  -1.313273  0  -0.554523  -0.604012  0  3.328403  0
N  N72  1  0.72438149  0.16473520  0.08412908  1  -1.30928  0  -0.558654  -0.692598  0  3.31751  0
N  N73  1  0.08412732  0.72438687  0.16473333  1  -1.309298  0  -0.558638  -0.692494  0  3.317501  0
N  N74  1  0.16473298  0.08412399  0.72438750  1  -1.309233  0  -0.558604  -0.692536  0  3.31756  0
N  N75  1  0.27561537  0.83526528  0.91587190  1  -1.309302  0  -0.558655  -0.692616  0  3.317467  0
N  N76  1  0.91587288  0.27561647  0.83526662  1  -1.3093  0  -0.558592  -0.69246  0  3.317484  0
N  N77  1  0.83526555  0.91587085  0.27561390  1  -1.309305  0  -0.558612  -0.692501  0  3.3175  0
Cl  Cl78  1  0.84452103  0.55216783  0.93749373  1  -0.171161  0  0.029591  -0.046992  0  1.468911  0
Cl  Cl79  1  0.93749296  0.84451993  0.55216821  1  -0.171177  0  0.029602  -0.046972  0  1.468899  0
Cl  Cl80  1  0.55216758  0.93749254  0.84451940  1  -0.171183  0  0.029583  -0.047007  0  1.46888  0
Cl  Cl81  1  0.15547833  0.44783210  0.06250662  1  -0.171167  0  0.029598  -0.046958  0  1.468889  0
Cl  Cl82  1  0.06250557  0.15547658  0.44783336  1  -0.171132  0  0.029608  -0.046968  0  1.468906  0
Cl  Cl83  1  0.44783179  0.06250572  0.15547995  1  -0.171162  0  0.029596  -0.046967  0  1.468923  0
O  O84  1  0.96269937  0.56365013  0.36940252  1  -1.167069  0  -0.302283  -0.5191  0  2.239586  0
O  O85  1  0.36940047  0.96270416  0.56364232  1  -1.167729  0  -0.302316  -0.519234  0  2.239863  0
O  O86  1  0.56364939  0.36939947  0.96270744  1  -1.167055  0  -0.302305  -0.519219  0  2.239627  0
O  O87  1  0.03729665  0.43635773  0.63059912  1  -1.167731  0  -0.302346  -0.519224  0  2.239718  0
O  O88  1  0.63059555  0.03729872  0.43635138  1  -1.167758  0  -0.30232  -0.519153  0  2.239585  0
O  O89  1  0.43636002  0.63059992  0.03729717  1  -1.167707  0  -0.302304  -0.519185  0  2.239777  0
O  O90  1  0.79761106  0.19949262  0.27168135  1  -1.187724  0  -0.321093  -0.538488  0  2.368289  0
O  O91  1  0.27168177  0.79761352  0.19949205  1  -1.187706  0  -0.321094  -0.538499  0  2.368327  0
O  O92  1  0.19948995  0.27167901  0.79761234  1  -1.18771  0  -0.321074  -0.538472  0  2.368335  0
O  O93  1  0.20238831  0.80050564  0.72831801  1  -1.187731  0  -0.321081  -0.538483  0  2.368339  0
O  O94  1  0.72831843  0.20238733  0.80050848  1  -1.187683  0  -0.321065  -0.538418  0  2.368346  0
O  O95  1  0.80050691  0.72831814  0.20238582  1  -1.187682  0  -0.321082  -0.538467  0  2.36838  0
