# generated using pymatgen
data_CdH19C18N3O5
_symmetry_space_group_name_H-M   'P 1'
_cell_length_a   15.97482210
_cell_length_b   16.32028292
_cell_length_c   17.44353703
_cell_angle_alpha   89.99969290
_cell_angle_beta   90.00009658
_cell_angle_gamma   119.31187520
_symmetry_Int_Tables_number   1
_chemical_formula_structural   CdH19C18N3O5
_chemical_formula_sum   'Cd8 H152 C144 N24 O40'
_cell_volume   3965.50703232
_cell_formula_units_Z   8
loop_
 _symmetry_equiv_pos_site_id
 _symmetry_equiv_pos_as_xyz
  1  'x, y, z'
loop_
 _atom_site_type_symbol
 _atom_site_label
 _atom_site_symmetry_multiplicity
 _atom_site_fract_x
 _atom_site_fract_y
 _atom_site_fract_z
 _atom_site_occupancy
 _atom_site_pbe_bader_charge
 _atom_site_pbe_bader_spin_density
 _atom_site_pbe_cm5_charge
 _atom_site_pbe_ddec_charge
 _atom_site_pbe_ddec_spin_density
 _atom_site_pbe_ddec_sum_bond_order
 _atom_site_pbe_magmom
Cd  Cd0  1  0.21352068  0.73750670  0.03222572  1  1.26745  0  0.764906  0.845574  0  2.170523  0
Cd  Cd1  1  0.28648032  0.26249719  0.03223098  1  1.267365  0  0.764885  0.845584  0  2.170534  0
Cd  Cd2  1  0.52401172  0.73757087  0.46777868  1  1.268935  0  0.764915  0.84622  0  2.16929  0
Cd  Cd3  1  0.97599128  0.26242814  0.46777678  1  1.268948  0  0.764875  0.846146  0  2.169377  0
Cd  Cd4  1  0.78648177  0.26249598  0.96777041  1  1.267522  0  0.764914  0.845599  0  2.170522  0
Cd  Cd5  1  0.71352589  0.73750548  0.96777145  1  1.267277  0  0.764906  0.845538  0  2.170487  0
Cd  Cd6  1  0.47599198  0.26243180  0.53222605  1  1.268873  0  0.764917  0.846233  0  2.169221  0
Cd  Cd7  1  0.02401600  0.73756540  0.53221821  1  1.268841  0  0.764886  0.84616  0  2.169291  0
H  H8  1  0.49279758  0.26302424  0.11496149  1  0.525276  0  0.29976  0.279118  0  1.015993  0
H  H9  1  0.41047752  0.11643496  0.00512054  1  0.165855  0  0.108574  0.134571  0  1.053435  0
H  H10  1  0.38773522  0.84258167  0.14213162  1  0.141446  0  0.121081  0.099448  0  1.00644  0
H  H11  1  0.14088231  0.65952093  0.30126591  1  0.067031  0  0.095506  0.112151  0  0.995009  0
H  H12  1  0.04221894  0.67368116  0.26892946  1  0.058997  0  0.094964  0.112796  0  0.996125  0
H  H13  1  0.29210587  0.79960871  0.34932588  1  0.045775  0  0.08999  0.130942  0  1.011458  0
H  H14  1  0.30138360  0.91223637  0.35098352  1  0.007165  0  0.081576  0.108348  0  1.032786  0
H  H15  1  0.30745081  0.86181641  0.26188991  1  0.025179  0  0.082832  0.116682  0  1.032278  0
H  H16  1  0.28613258  0.95101755  0.97521174  1  0.071933  0  0.113177  0.078858  0  1.01321  0
H  H17  1  0.51774842  0.00288239  0.17941182  1  0.053759  0  0.10637  0.112349  0  1.012798  0
H  H18  1  0.55418562  0.17423824  0.18200378  1  0.024803  0  0.109644  0.085632  0  0.982475  0
H  H19  1  0.62221800  0.17958164  0.10092566  1  0.15192  0  0.117614  0.116188  0  1.023397  0
H  H20  1  0.57118439  0.41701257  0.12921802  1  0.097465  0  0.112573  0.119224  0  1.003323  0
H  H21  1  0.62710770  0.38601145  0.89223541  1  0.121886  0  0.119148  0.132356  0  0.985061  0
H  H22  1  0.66496874  0.55431371  0.87172656  1  0.114959  0  0.117829  0.097149  0  1.009285  0
H  H23  1  0.61579720  0.58372113  0.09999306  1  0.110648  0  0.115732  0.090859  0  1.014727  0
H  H24  1  0.16992912  0.88539447  0.20966639  1  0.041478  0  0.087908  0.131278  0  1.001226  0
H  H25  1  0.16433043  0.93533806  0.29872905  1  0.022  0  0.082715  0.1131  0  1.025595  0
H  H26  1  0.05968254  0.83715834  0.26157391  1  0.059562  0  0.083152  0.113676  0  1.037783  0
H  H27  1  0.00720280  0.73697561  0.11495076  1  0.525335  0  0.299784  0.279177  0  1.016121  0
H  H28  1  0.08952109  0.88357050  0.00512296  1  0.166001  0  0.108607  0.134638  0  1.053432  0
H  H29  1  0.11226153  0.15742082  0.14213600  1  0.141109  0  0.121091  0.099514  0  1.0064  0
H  H30  1  0.35911756  0.34047844  0.30126917  1  0.065434  0  0.095452  0.112062  0  0.994939  0
H  H31  1  0.45778605  0.32631982  0.26893753  1  0.058821  0  0.094957  0.112802  0  0.996222  0
H  H32  1  0.20789714  0.20039176  0.34932904  1  0.045657  0  0.090006  0.131043  0  1.011421  0
H  H33  1  0.19861522  0.08776199  0.35098379  1  0.007066  0  0.081581  0.108454  0  1.032699  0
H  H34  1  0.19255994  0.13819235  0.26189164  1  0.025256  0  0.082816  0.11668  0  1.032298  0
H  H35  1  0.21386373  0.04898598  0.97521281  1  0.0729  0  0.11321  0.078925  0  1.013196  0
H  H36  1  0.98224494  0.99711846  0.17941427  1  0.053629  0  0.106336  0.112258  0  1.012777  0
H  H37  1  0.94581960  0.82575626  0.18200245  1  0.024814  0  0.109614  0.085603  0  0.982551  0
H  H38  1  0.87777919  0.82041338  0.10093169  1  0.151923  0  0.117632  0.116158  0  1.023462  0
H  H39  1  0.92881785  0.58298367  0.12921558  1  0.097507  0  0.112554  0.119197  0  1.003229  0
H  H40  1  0.87290251  0.61399540  0.89223159  1  0.121944  0  0.11914  0.13242  0  0.985048  0
H  H41  1  0.83502652  0.44568835  0.87172467  1  0.114857  0  0.117833  0.097176  0  1.009241  0
H  H42  1  0.88419737  0.41627741  0.09998853  1  0.110766  0  0.115767  0.090911  0  1.01472  0
H  H43  1  0.33007270  0.11461040  0.20966902  1  0.041574  0  0.087881  0.131264  0  1.001015  0
H  H44  1  0.33566873  0.06465992  0.29872850  1  0.02186  0  0.082691  0.113066  0  1.025622  0
H  H45  1  0.44031848  0.16283847  0.26157532  1  0.059514  0  0.08312  0.113626  0  1.03784  0
H  H46  1  0.77051256  0.26325873  0.38488231  1  0.54091  0  0.299945  0.279493  0  1.015357  0
H  H47  1  0.70642203  0.11664446  0.49458113  1  0.167561  0  0.108691  0.134924  0  1.05264  0
H  H48  1  0.45465452  0.84266312  0.35807526  1  0.141946  0  0.120992  0.09927  0  1.007354  0
H  H49  1  0.51804575  0.65944337  0.19873137  1  0.032175  0  0.095598  0.112292  0  0.995059  0
H  H50  1  0.63103115  0.67368501  0.23068480  1  0.029185  0  0.094865  0.112577  0  0.996533  0
H  H51  1  0.50681832  0.79958443  0.15061462  1  0.046036  0  0.08979  0.130701  0  1.01195  0
H  H52  1  0.61026874  0.91219982  0.14894159  1  0.041321  0  0.081497  0.108095  0  1.032719  0
H  H53  1  0.55386588  0.86175098  0.23806007  1  0.042274  0  0.082539  0.116243  0  1.0327  0
H  H54  1  0.66516638  0.95121461  0.52465261  1  0.090458  0  0.113147  0.078855  0  1.013399  0
H  H55  1  0.48518419  0.00296251  0.32058615  1  0.055028  0  0.106625  0.112254  0  1.013471  0
H  H56  1  0.62056576  0.17426439  0.31765178  1  0.01968  0  0.109746  0.085372  0  0.982758  0
H  H57  1  0.55760027  0.17960276  0.39855676  1  0.156115  0  0.117661  0.11635  0  1.022534  0
H  H58  1  0.84582672  0.41730659  0.37051448  1  0.108193  0  0.11249  0.118765  0  1.002597  0
H  H59  1  0.75864949  0.38595649  0.60746013  1  0.140435  0  0.119372  0.133031  0  0.984919  0
H  H60  1  0.88937181  0.55417384  0.62818152  1  0.127915  0  0.117976  0.097226  0  1.008582  0
H  H61  1  0.96815308  0.58382478  0.39995084  1  0.105096  0  0.115767  0.090521  0  1.014811  0
H  H62  1  0.71491481  0.88547185  0.29004386  1  0.048293  0  0.087863  0.131112  0  1.001422  0
H  H63  1  0.77041776  0.93531912  0.20095576  1  0.011303  0  0.082805  0.113335  0  1.026177  0
H  H64  1  0.77693388  0.83722755  0.23821566  1  0.024877  0  0.083275  0.114222  0  1.037346  0
H  H65  1  0.72948672  0.73673940  0.38488452  1  0.54089  0  0.299934  0.279514  0  1.015415  0
H  H66  1  0.79357217  0.88335438  0.49458042  1  0.16757  0  0.108654  0.134892  0  1.05268  0
H  H67  1  0.04534289  0.15733237  0.35807094  1  0.142221  0  0.120998  0.09926  0  1.007417  0
H  H68  1  0.98195552  0.34055946  0.19872450  1  0.032048  0  0.095595  0.112305  0  0.995057  0
H  H69  1  0.86897329  0.32631902  0.23068356  1  0.029211  0  0.09488  0.112601  0  0.996554  0
H  H70  1  0.99318405  0.20041448  0.15061707  1  0.045732  0  0.089811  0.130689  0  1.011937  0
H  H71  1  0.88973280  0.08780121  0.14894388  1  0.041384  0  0.081482  0.108064  0  1.032744  0
H  H72  1  0.94613268  0.13824879  0.23806391  1  0.042183  0  0.082535  0.116235  0  1.032626  0
H  H73  1  0.83482590  0.04878404  0.52464583  1  0.088993  0  0.113183  0.078887  0  1.013445  0
H  H74  1  0.01480623  0.99703041  0.32058329  1  0.054437  0  0.106584  0.112186  0  1.013586  0
H  H75  1  0.87943423  0.82573416  0.31765206  1  0.019626  0  0.10975  0.085354  0  0.982811  0
H  H76  1  0.94239852  0.82039809  0.39856175  1  0.156071  0  0.117659  0.116389  0  1.022419  0
H  H77  1  0.65418184  0.58269515  0.37051506  1  0.108004  0  0.112451  0.118699  0  1.002704  0
H  H78  1  0.74134678  0.61404234  0.60746241  1  0.140441  0  0.119361  0.13302  0  0.984957  0
H  H79  1  0.61061701  0.44582626  0.62818444  1  0.127913  0  0.117988  0.097221  0  1.008523  0
H  H80  1  0.53184813  0.41617467  0.39995093  1  0.105109  0  0.115749  0.090491  0  1.014824  0
H  H81  1  0.78508936  0.11453391  0.29004814  1  0.048245  0  0.08784  0.131064  0  1.001477  0
H  H82  1  0.72958198  0.06468439  0.20096193  1  0.011697  0  0.082764  0.113285  0  1.026132  0
H  H83  1  0.72307071  0.16277924  0.23821961  1  0.024881  0  0.083206  0.114132  0  1.037382  0
H  H84  1  0.50720463  0.73697422  0.88504725  1  0.52533  0  0.299757  0.279155  0  1.015986  0
H  H85  1  0.58953169  0.88357122  0.99487616  1  0.165939  0  0.10857  0.13457  0  1.053433  0
H  H86  1  0.61226743  0.15741890  0.85786049  1  0.141365  0  0.121079  0.099521  0  1.006351  0
H  H87  1  0.85911757  0.34046910  0.69872965  1  0.065549  0  0.09549  0.112102  0  0.994894  0
H  H88  1  0.95778269  0.32631238  0.73106781  1  0.058881  0  0.095005  0.112819  0  0.996318  0
H  H89  1  0.70789386  0.20037851  0.65067599  1  0.045803  0  0.090026  0.130979  0  1.011554  0
H  H90  1  0.69861702  0.08775015  0.64902121  1  0.006844  0  0.081587  0.108417  0  1.032811  0
H  H91  1  0.69255869  0.13817783  0.73811425  1  0.025095  0  0.082799  0.116644  0  1.0323  0
H  H92  1  0.71387261  0.04898934  0.02478381  1  0.072057  0  0.113157  0.07887  0  1.013206  0
H  H93  1  0.48225094  0.99711537  0.82058373  1  0.053724  0  0.106377  0.112341  0  1.012714  0
H  H94  1  0.44582020  0.82575740  0.81799521  1  0.024821  0  0.109659  0.085652  0  0.982435  0
H  H95  1  0.37778793  0.82042174  0.89907277  1  0.152043  0  0.117652  0.116282  0  1.023291  0
H  H96  1  0.42881325  0.58298800  0.87079129  1  0.097635  0  0.112486  0.119051  0  1.003372  0
H  H97  1  0.37288934  0.61399544  0.10777276  1  0.121737  0  0.119178  0.132473  0  0.984938  0
H  H98  1  0.33501806  0.44568896  0.12828046  1  0.114664  0  0.117863  0.097155  0  1.009201  0
H  H99  1  0.38419704  0.41628014  0.90001740  1  0.110882  0  0.115721  0.090792  0  1.01466  0
H  H100  1  0.83006801  0.11460258  0.79033604  1  0.041413  0  0.087871  0.131198  0  1.00124  0
H  H101  1  0.83566303  0.06464915  0.70127625  1  0.021387  0  0.08271  0.113086  0  1.025643  0
H  H102  1  0.94031633  0.16282466  0.73843082  1  0.059553  0  0.083104  0.113609  0  1.037821  0
H  H103  1  0.99279629  0.26302285  0.88503849  1  0.525262  0  0.299729  0.27915  0  1.016059  0
H  H104  1  0.91047424  0.11642795  0.99487489  1  0.165991  0  0.108601  0.134618  0  1.053471  0
H  H105  1  0.88774370  0.84258115  0.85786701  1  0.141141  0  0.121141  0.099537  0  1.006605  0
H  H106  1  0.64087918  0.65952283  0.69873327  1  0.065522  0  0.095451  0.112065  0  0.994962  0
H  H107  1  0.54221663  0.67368707  0.73106834  1  0.058924  0  0.094962  0.112803  0  0.996213  0
H  H108  1  0.79210832  0.79961442  0.65067798  1  0.045712  0  0.090011  0.13096  0  1.011513  0
H  H109  1  0.80138605  0.91224209  0.64901922  1  0.006986  0  0.081595  0.108418  0  1.032769  0
H  H110  1  0.80744317  0.86181665  0.73811309  1  0.025089  0  0.082823  0.116655  0  1.03233  0
H  H111  1  0.78613278  0.95101107  0.02478447  1  0.072896  0  0.113199  0.078902  0  1.013167  0
H  H112  1  0.01775521  0.00288211  0.82058473  1  0.053748  0  0.106341  0.112313  0  1.012789  0
H  H113  1  0.05418650  0.17423869  0.81799483  1  0.024745  0  0.109678  0.085683  0  0.982578  0
H  H114  1  0.12221850  0.17958227  0.89907189  1  0.151914  0  0.11763  0.116208  0  1.023407  0
H  H115  1  0.07118355  0.41701689  0.87077711  1  0.097927  0  0.112572  0.119298  0  1.003342  0
H  H116  1  0.12710260  0.38601008  0.10775824  1  0.122081  0  0.119167  0.132347  0  0.98514  0
H  H117  1  0.16496826  0.55431151  0.12826744  1  0.115031  0  0.117861  0.097206  0  1.009246  0
H  H118  1  0.11580411  0.58372457  0.90000359  1  0.110793  0  0.11578  0.090974  0  1.014867  0
H  H119  1  0.66992204  0.88539438  0.79032883  1  0.04168  0  0.087853  0.131195  0  1.000977  0
H  H120  1  0.66432773  0.93534205  0.70126706  1  0.022035  0  0.082687  0.113038  0  1.025712  0
H  H121  1  0.55967818  0.83716139  0.73841967  1  0.059384  0  0.083117  0.113598  0  1.037828  0
H  H122  1  0.22948560  0.73673411  0.61511956  1  0.540875  0  0.299978  0.27957  0  1.015248  0
H  H123  1  0.29357471  0.88335680  0.50542188  1  0.167517  0  0.108681  0.134903  0  1.052735  0
H  H124  1  0.54533996  0.15733112  0.64193348  1  0.141946  0  0.120999  0.099284  0  1.007441  0
H  H125  1  0.48195705  0.34056001  0.80127623  1  0.032081  0  0.095605  0.11233  0  0.995125  0
H  H126  1  0.36897345  0.32631696  0.76931878  1  0.029255  0  0.094892  0.112623  0  0.996542  0
H  H127  1  0.49318308  0.20041613  0.84938438  1  0.045704  0  0.089801  0.130715  0  1.011964  0
H  H128  1  0.38973817  0.08780426  0.85105798  1  0.041363  0  0.081528  0.108156  0  1.032794  0
H  H129  1  0.44613649  0.13825029  0.76194007  1  0.042358  0  0.082548  0.116299  0  1.03266  0
H  H130  1  0.33483063  0.04878596  0.47535499  1  0.089097  0  0.11319  0.078887  0  1.013431  0
H  H131  1  0.51480297  0.99702962  0.67942317  1  0.054527  0  0.106525  0.112083  0  1.013641  0
H  H132  1  0.37943588  0.82572915  0.68234721  1  0.019331  0  0.109758  0.085361  0  0.982869  0
H  H133  1  0.44239925  0.82039780  0.60143880  1  0.156081  0  0.117677  0.116397  0  1.022431  0
H  H134  1  0.15417206  0.58268625  0.62948165  1  0.10823  0  0.112493  0.118802  0  1.002834  0
H  H135  1  0.24135469  0.61403213  0.39253830  1  0.140522  0  0.119386  0.133042  0  0.984878  0
H  H136  1  0.11062953  0.44581408  0.37181977  1  0.127769  0  0.118032  0.097356  0  1.008611  0
H  H137  1  0.03184954  0.41616947  0.60004586  1  0.105061  0  0.115789  0.090462  0  1.014868  0
H  H138  1  0.28508564  0.11453434  0.70995571  1  0.048389  0  0.087852  0.131086  0  1.001215  0
H  H139  1  0.22957885  0.06468566  0.79904495  1  0.011627  0  0.082773  0.11328  0  1.026085  0
H  H140  1  0.22307126  0.16278426  0.76178792  1  0.024699  0  0.083237  0.114172  0  1.037241  0
H  H141  1  0.27051233  0.26326398  0.61511849  1  0.540911  0  0.299988  0.279525  0  1.015326  0
H  H142  1  0.20642556  0.11663635  0.50542087  1  0.167639  0  0.108641  0.134892  0  1.0527  0
H  H143  1  0.95464345  0.84266187  0.64192404  1  0.141848  0  0.120999  0.099304  0  1.007339  0
H  H144  1  0.01804767  0.65943970  0.80127278  1  0.031973  0  0.09558  0.112268  0  0.995063  0
H  H145  1  0.13103314  0.67368787  0.76931142  1  0.029167  0  0.09486  0.11262  0  0.996462  0
H  H146  1  0.00681387  0.79958538  0.84937161  1  0.04584  0  0.089899  0.130769  0  1.011928  0
H  H147  1  0.11026053  0.91220076  0.85104595  1  0.041122  0  0.081489  0.10811  0  1.032645  0
H  H148  1  0.05386508  0.86174826  0.76192592  1  0.042643  0  0.082594  0.116346  0  1.032621  0
H  H149  1  0.16516522  0.95120598  0.47535488  1  0.090511  0  0.113169  0.078869  0  1.013432  0
H  H150  1  0.98518324  0.00296383  0.67941284  1  0.054966  0  0.106596  0.11217  0  1.013586  0
H  H151  1  0.12056401  0.17426008  0.68234808  1  0.019623  0  0.109759  0.085381  0  0.982747  0
H  H152  1  0.05759854  0.17959755  0.60144126  1  0.156132  0  0.117647  0.116375  0  1.022369  0
H  H153  1  0.34582228  0.41732088  0.62948623  1  0.107346  0  0.112476  0.118788  0  1.002861  0
H  H154  1  0.25865210  0.38596947  0.39254003  1  0.14061  0  0.119417  0.133096  0  0.984933  0
H  H155  1  0.38937859  0.55418274  0.37181799  1  0.127947  0  0.118014  0.097301  0  1.008621  0
H  H156  1  0.46815353  0.58383644  0.60004577  1  0.105017  0  0.11575  0.090407  0  1.014959  0
H  H157  1  0.21491164  0.88547087  0.70995143  1  0.048169  0  0.087857  0.131111  0  1.001423  0
H  H158  1  0.27041624  0.93532109  0.79903821  1  0.011401  0  0.082771  0.113331  0  1.026062  0
H  H159  1  0.27693358  0.83722835  0.76177996  1  0.024897  0  0.083249  0.114205  0  1.037287  0
C  C160  1  0.40865925  0.05808988  0.03711133  1  0.048318  0  -0.087405  -0.184135  0  3.914139  0
C  C161  1  0.39578966  0.90540334  0.11360400  1  0.467817  0  0.045877  0.097835  0  3.958348  0
C  C162  1  0.47415017  0.07335219  0.09584485  1  -0.087272  0  0.015763  0.151651  0  3.92792  0
C  C163  1  0.15540200  0.71178164  0.18686697  1  1.53297  0  0.193694  0.624008  0  4.15642  0
C  C164  1  0.12071793  0.70488143  0.26870472  1  -0.079557  0  -0.163402  -0.337274  0  3.862508  0
C  C165  1  0.16379446  0.80196062  0.30989226  1  0.056347  0  -0.011913  0.145685  0  3.789278  0
C  C166  1  0.27269186  0.84638586  0.31836528  1  -0.054605  0  -0.250504  -0.412571  0  3.926393  0
C  C167  1  0.33906910  0.96620109  0.02029131  1  0.427827  0  0.044278  0.09311  0  3.974501  0
C  C168  1  0.46734245  0.99471443  0.13392654  1  -0.017679  0  -0.08789  -0.193631  0  3.955786  0
C  C169  1  0.59590050  0.38849667  0.01223324  1  0.022447  0  0.013496  0.033327  0  3.939763  0
C  C170  1  0.55187913  0.16984513  0.11893803  1  0.346814  0  -0.051273  -0.065173  0  3.931777  0
C  C171  1  0.59003234  0.29520115  0.02674887  1  1.440053  0  0.250999  0.484826  0  4.102947  0
C  C172  1  0.59052811  0.44397883  0.07107896  1  -0.040303  0  -0.076997  -0.145943  0  3.943422  0
C  C173  1  0.62070513  0.42722372  0.93871556  1  -0.087433  0  -0.072261  -0.141156  0  3.939122  0
C  C174  1  0.64209827  0.51974424  0.92732659  1  0.506886  0  0.044988  0.082327  0  3.952989  0
C  C175  1  0.61422374  0.53640823  0.05517543  1  0.501468  0  0.045708  0.091553  0  3.946235  0
C  C176  1  0.13781109  0.86890594  0.26715590  1  -0.104826  0  -0.247505  -0.403701  0  3.896493  0
C  C177  1  0.11411832  0.77934240  0.38894448  1  1.525651  0  0.194034  0.541761  0  4.14195  0
C  C178  1  0.09133604  0.94191258  0.03711116  1  0.048248  0  -0.087375  -0.184079  0  3.914129  0
C  C179  1  0.10420650  0.09459933  0.11360410  1  0.468381  0  0.045905  0.097759  0  3.958406  0
C  C180  1  0.02584356  0.92664568  0.09584351  1  -0.08744  0  0.015729  0.151596  0  3.92799  0
C  C181  1  0.34460991  0.28821846  0.18686990  1  1.533239  0  0.193799  0.624065  0  4.156044  0
C  C182  1  0.37928656  0.29511604  0.26870709  1  -0.07793  0  -0.163305  -0.33713  0  3.862553  0
C  C183  1  0.33621452  0.19803940  0.30989849  1  0.056902  0  -0.011804  0.145769  0  3.789503  0
C  C184  1  0.22731260  0.15361762  0.31836871  1  -0.05471  0  -0.250549  -0.412829  0  3.926406  0
C  C185  1  0.16092566  0.03380287  0.02029122  1  0.428112  0  0.04411  0.092865  0  3.974767  0
C  C186  1  0.03265200  0.00528600  0.13392640  1  -0.017569  0  -0.087819  -0.193424  0  3.955563  0
C  C187  1  0.90410451  0.61150804  0.01223750  1  0.022031  0  0.0136  0.033377  0  3.939819  0
C  C188  1  0.94811604  0.83015328  0.11893839  1  0.346698  0  -0.051312  -0.065063  0  3.931725  0
C  C189  1  0.90995261  0.70480347  0.02672917  1  1.44103  0  0.250965  0.484896  0  4.104098  0
C  C190  1  0.90947236  0.55602411  0.07107376  1  -0.040265  0  -0.077002  -0.145977  0  3.943679  0
C  C191  1  0.87929743  0.57278143  0.93870966  1  -0.087463  0  -0.072305  -0.141253  0  3.938638  0
C  C192  1  0.85790212  0.48025537  0.92732514  1  0.507032  0  0.044969  0.082249  0  3.953134  0
C  C193  1  0.88577722  0.46359200  0.05517468  1  0.501388  0  0.04569  0.091571  0  3.945854  0
C  C194  1  0.36219132  0.13109365  0.26715907  1  -0.104969  0  -0.247432  -0.403591  0  3.896341  0
C  C195  1  0.38589293  0.22066063  0.38894723  1  1.525314  0  0.194  0.541822  0  4.141897  0
C  C196  1  0.64980386  0.05827338  0.46266282  1  0.036266  0  -0.088012  -0.184802  0  3.914625  0
C  C197  1  0.50961930  0.90550024  0.38646618  1  0.471656  0  0.045963  0.097803  0  3.960255  0
C  C198  1  0.59951731  0.07348027  0.40395103  1  -0.063827  0  0.015617  0.150553  0  3.929038  0
C  C199  1  0.55623589  0.71176389  0.31306244  1  1.523126  0  0.194506  0.625069  0  4.15335  0
C  C200  1  0.58371028  0.70484401  0.23113528  1  0.003454  0  -0.163505  -0.337885  0  3.862652  0
C  C201  1  0.63756679  0.80188934  0.18990549  1  0.044645  0  -0.012225  0.147986  0  3.787472  0
C  C202  1  0.57308777  0.84630615  0.18154005  1  -0.107671  0  -0.249743  -0.412063  0  3.925602  0
C  C203  1  0.62737418  0.96637203  0.47957969  1  0.380628  0  0.04478  0.093967  0  3.974473  0
C  C204  1  0.52750247  0.99479731  0.36602975  1  -0.024155  0  -0.088502  -0.192842  0  3.956372  0
C  C205  1  0.79246582  0.38863299  0.48749136  1  0.034575  0  0.013891  0.033947  0  3.940666  0
C  C206  1  0.61828793  0.16991586  0.38072272  1  0.343375  0  -0.051153  -0.064334  0  3.932206  0
C  C207  1  0.70510058  0.29530605  0.47291994  1  1.427186  0  0.250688  0.484535  0  4.103053  0
C  C208  1  0.85341051  0.44414209  0.42870101  1  -0.105876  0  -0.076635  -0.145053  0  3.942073  0
C  C209  1  0.80636758  0.42723876  0.56104975  1  -0.026385  0  -0.073307  -0.143414  0  3.939444  0
C  C210  1  0.87763304  0.51971187  0.57253692  1  0.427391  0  0.04536  0.0831  0  3.952066  0
C  C211  1  0.92228639  0.53650464  0.44471421  1  0.54432  0  0.045921  0.092247  0  3.945112  0
C  C212  1  0.73053203  0.86893123  0.23258538  1  -0.0611  0  -0.247679  -0.40506  0  3.897165  0
C  C213  1  0.66453790  0.77933850  0.11077769  1  1.549166  0  0.194295  0.540491  0  4.141319  0
C  C214  1  0.85018835  0.94172286  0.46265961  1  0.035888  0  -0.087857  -0.184672  0  3.9144  0
C  C215  1  0.99037845  0.09449858  0.38646113  1  0.471611  0  0.045935  0.097778  0  3.9602  0
C  C216  1  0.90047631  0.92651774  0.40394969  1  -0.063657  0  0.015635  0.150687  0  3.929037  0
C  C217  1  0.94377415  0.28824102  0.31306093  1  1.523434  0  0.194476  0.624897  0  4.153522  0
C  C218  1  0.91629346  0.29515861  0.23113198  1  0.003219  0  -0.163552  -0.337979  0  3.862753  0
C  C219  1  0.86243630  0.19811214  0.18990717  1  0.045355  0  -0.012226  0.148023  0  3.787522  0
C  C220  1  0.92691247  0.15369468  0.18154378  1  -0.107371  0  -0.249732  -0.412041  0  3.925655  0
C  C221  1  0.87261949  0.03362831  0.47957419  1  0.380858  0  0.044628  0.093824  0  3.974654  0
C  C222  1  0.97249006  0.00519743  0.36602684  1  -0.02375  0  -0.088444  -0.192788  0  3.956311  0
C  C223  1  0.70753605  0.61136871  0.48749245  1  0.034535  0  0.0139  0.033923  0  3.940689  0
C  C224  1  0.88170661  0.83008160  0.38072355  1  0.34359  0  -0.051235  -0.06451  0  3.932372  0
C  C225  1  0.79490198  0.70469082  0.47292299  1  1.427518  0  0.250745  0.484544  0  4.103481  0
C  C226  1  0.64658871  0.55585576  0.42870172  1  -0.105756  0  -0.076627  -0.145002  0  3.942229  0
C  C227  1  0.69362814  0.57276036  0.56105101  1  -0.026062  0  -0.073269  -0.143363  0  3.93955  0
C  C228  1  0.62236156  0.48028999  0.57253912  1  0.427288  0  0.045327  0.083079  0  3.951764  0
C  C229  1  0.57771413  0.46349452  0.44471470  1  0.544396  0  0.045956  0.092334  0  3.945233  0
C  C230  1  0.76947061  0.13107420  0.23258898  1  -0.061982  0  -0.247556  -0.404854  0  3.897019  0
C  C231  1  0.83546146  0.22066207  0.11078037  1  1.549168  0  0.194233  0.540436  0  4.141498  0
C  C232  1  0.59134989  0.94191491  0.96288480  1  0.049765  0  -0.08741  -0.184118  0  3.914234  0
C  C233  1  0.60421486  0.09459723  0.88639098  1  0.467765  0  0.045893  0.097631  0  3.958348  0
C  C234  1  0.52585616  0.92664698  0.90415415  1  -0.087298  0  0.015764  0.151685  0  3.927939  0
C  C235  1  0.84460206  0.28821049  0.81313031  1  1.533763  0  0.193824  0.624026  0  4.15613  0
C  C236  1  0.87928704  0.29511000  0.73129141  1  -0.07819  0  -0.163382  -0.337219  0  3.8626  0
C  C237  1  0.83621399  0.19803151  0.69010502  1  0.057363  0  -0.011852  0.145847  0  3.78951  0
C  C238  1  0.72731095  0.15360628  0.68163601  1  -0.055326  0  -0.250531  -0.412664  0  3.926385  0
C  C239  1  0.66093683  0.03380228  0.97970425  1  0.425865  0  0.044239  0.092999  0  3.974594  0
C  C240  1  0.53266332  0.00528614  0.86606959  1  -0.017608  0  -0.08785  -0.193484  0  3.955645  0
C  C241  1  0.40409569  0.61150600  0.98777264  1  0.022036  0  0.013331  0.032912  0  3.940526  0
C  C242  1  0.44812708  0.83015754  0.88106269  1  0.346749  0  -0.051339  -0.065327  0  3.931763  0
C  C243  1  0.40996706  0.70480293  0.97325700  1  1.440604  0  0.251033  0.484974  0  4.103158  0
C  C244  1  0.40946628  0.55602525  0.92892978  1  -0.040385  0  -0.076769  -0.145592  0  3.943571  0
C  C245  1  0.37928738  0.57278036  0.06129204  1  -0.087631  0  -0.072276  -0.141137  0  3.939254  0
C  C246  1  0.35789417  0.48025843  0.07268157  1  0.507078  0  0.044852  0.082246  0  3.953019  0
C  C247  1  0.38577119  0.46359445  0.94483331  1  0.502749  0  0.045768  0.091778  0  3.945879  0
C  C248  1  0.86218754  0.13108408  0.73284539  1  -0.104334  0  -0.247467  -0.403601  0  3.896588  0
C  C249  1  0.88588559  0.22064693  0.61105509  1  1.525368  0  0.194044  0.541735  0  4.141927  0
C  C250  1  0.90865973  0.05808799  0.96288611  1  0.04819  0  -0.08743  -0.184093  0  3.914036  0
C  C251  1  0.89579384  0.90539913  0.88639375  1  0.46812  0  0.045903  0.09777  0  3.95846  0
C  C252  1  0.97415142  0.07335208  0.90415377  1  -0.087334  0  0.015732  0.15154  0  3.928108  0
C  C253  1  0.65539876  0.71178914  0.81313197  1  1.533473  0  0.19385  0.624047  0  4.156187  0
C  C254  1  0.62071463  0.70488663  0.73129420  1  -0.078206  0  -0.163384  -0.337278  0  3.862571  0
C  C255  1  0.66379149  0.80196539  0.69010452  1  0.056603  0  -0.011841  0.145891  0  3.789458  0
C  C256  1  0.77269224  0.84638857  0.68163602  1  -0.054441  0  -0.25055  -0.412679  0  3.926454  0
C  C257  1  0.83906960  0.96619418  0.97970491  1  0.428332  0  0.044215  0.092978  0  3.974512  0
C  C258  1  0.96734669  0.99471667  0.86607144  1  -0.017717  0  -0.087817  -0.193487  0  3.955577  0
C  C259  1  0.09590424  0.38850096  0.98775863  1  0.022239  0  0.013531  0.033315  0  3.939632  0
C  C260  1  0.05188067  0.16984166  0.88105831  1  0.346725  0  -0.051356  -0.065167  0  3.931972  0
C  C261  1  0.09004358  0.29519920  0.97325492  1  1.441127  0  0.250987  0.484926  0  4.103539  0
C  C262  1  0.09053240  0.44398068  0.92891434  1  -0.040884  0  -0.077092  -0.146221  0  3.943748  0
C  C263  1  0.12070627  0.42722124  0.06128246  1  -0.087329  0  -0.072257  -0.141013  0  3.938605  0
C  C264  1  0.14209990  0.51974520  0.07266927  1  0.506589  0  0.044932  0.082191  0  3.952722  0
C  C265  1  0.11422879  0.53641279  0.94481744  1  0.502853  0  0.045603  0.091413  0  3.946412  0
C  C266  1  0.63780674  0.86890903  0.73283821  1  -0.104828  0  -0.247418  -0.403538  0  3.896305  0
C  C267  1  0.61412130  0.77934555  0.61104890  1  1.525699  0  0.194105  0.541725  0  4.141977  0
C  C268  1  0.35019007  0.94172227  0.53734248  1  0.036064  0  -0.087979  -0.184764  0  3.914325  0
C  C269  1  0.49037869  0.09450103  0.61354256  1  0.471142  0  0.045935  0.097756  0  3.960017  0
C  C270  1  0.40047635  0.92651608  0.59605370  1  -0.063666  0  0.015702  0.150752  0  3.929024  0
C  C271  1  0.44377137  0.28824089  0.68694114  1  1.523177  0  0.194534  0.624963  0  4.15335  0
C  C272  1  0.41629537  0.29516007  0.76887174  1  0.003408  0  -0.163592  -0.338006  0  3.862766  0
C  C273  1  0.36243703  0.19810982  0.81009810  1  0.044546  0  -0.012208  0.147817  0  3.787756  0
C  C274  1  0.42691695  0.15369231  0.81846067  1  -0.107569  0  -0.24981  -0.412149  0  3.925712  0
C  C275  1  0.37262271  0.03363205  0.52042562  1  0.380876  0  0.044643  0.09381  0  3.974465  0
C  C276  1  0.47248677  0.00519271  0.63397785  1  -0.023201  0  -0.08837  -0.192669  0  3.95613  0
C  C277  1  0.20752788  0.61135844  0.51250764  1  0.034635  0  0.013821  0.033893  0  3.940759  0
C  C278  1  0.38170627  0.83007909  0.61927800  1  0.343845  0  -0.051207  -0.06442  0  3.93241  0
C  C279  1  0.29490039  0.70469241  0.52707791  1  1.427454  0  0.250663  0.484332  0  4.10335  0
C  C280  1  0.14658327  0.55585075  0.57130200  1  -0.105739  0  -0.076702  -0.14519  0  3.942339  0
C  C281  1  0.19363582  0.57275830  0.43895154  1  -0.026474  0  -0.073247  -0.143294  0  3.939595  0
C  C282  1  0.12236817  0.48027957  0.42746208  1  0.427551  0  0.045273  0.082852  0  3.951784  0
C  C283  1  0.07771169  0.46348679  0.55528765  1  0.544619  0  0.045919  0.092366  0  3.945248  0
C  C284  1  0.26947198  0.13107707  0.76741878  1  -0.061098  0  -0.247571  -0.404844  0  3.896736  0
C  C285  1  0.33547492  0.22066487  0.88922876  1  1.549361  0  0.194306  0.540483  0  4.141277  0
C  C286  1  0.14980695  0.05826928  0.53733824  1  0.036666  0  -0.087928  -0.184712  0  3.914666  0
C  C287  1  0.00961192  0.90549496  0.61353328  1  0.472029  0  0.0459  0.097696  0  3.960153  0
C  C288  1  0.09952040  0.07347720  0.59604701  1  -0.064262  0  0.015641  0.150578  0  3.928904  0
C  C289  1  0.05623026  0.71176306  0.68693749  1  1.523774  0  0.194487  0.624883  0  4.153586  0
C  C290  1  0.08370970  0.70484547  0.76886357  1  0.003107  0  -0.163522  -0.337937  0  3.862796  0
C  C291  1  0.13756177  0.80189053  0.81008896  1  0.045536  0  -0.012236  0.147903  0  3.787893  0
C  C292  1  0.07308364  0.84630659  0.81844834  1  -0.107713  0  -0.249882  -0.41222  0  3.925643  0
C  C293  1  0.12737471  0.96636663  0.52042251  1  0.380664  0  0.04466  0.093821  0  3.974449  0
C  C294  1  0.02750003  0.99479682  0.63396929  1  -0.024561  0  -0.088423  -0.192619  0  3.956158  0
C  C295  1  0.29246451  0.38864521  0.51251170  1  0.034804  0  0.013871  0.033995  0  3.940889  0
C  C296  1  0.11829435  0.16991686  0.61927659  1  0.34358  0  -0.051161  -0.064425  0  3.932153  0
C  C297  1  0.20510528  0.29531396  0.52708690  1  1.427543  0  0.250695  0.48444  0  4.103005  0
C  C298  1  0.35340708  0.44415113  0.57130473  1  -0.105012  0  -0.076629  -0.145153  0  3.94226  0
C  C299  1  0.30636359  0.42724090  0.43895543  1  -0.026314  0  -0.073331  -0.143458  0  3.93951  0
C  C300  1  0.37763732  0.51972182  0.42746275  1  0.427501  0  0.045312  0.082959  0  3.951576  0
C  C301  1  0.42228858  0.53651870  0.55528945  1  0.544435  0  0.045912  0.092346  0  3.945128  0
C  C302  1  0.23052851  0.86893059  0.76740944  1  -0.061904  0  -0.247565  -0.404931  0  3.896939  0
C  C303  1  0.16453488  0.77934341  0.88921920  1  1.549338  0  0.194145  0.540228  0  4.141686  0
N  N304  1  0.33161039  0.89112910  0.05796275  1  -1.229946  0  -0.333341  -0.242824  0  3.524337  0
N  N305  1  0.54312275  0.24840294  0.09011856  1  -1.262856  0  -0.412427  -0.337723  0  3.540501  0
N  N306  1  0.64082064  0.57420158  0.98489104  1  -1.221233  0  -0.324044  -0.232378  0  3.507649  0
N  N307  1  0.16838486  0.10887322  0.05796230  1  -1.230437  0  -0.333348  -0.242868  0  3.524679  0
N  N308  1  0.95688701  0.75159847  0.09011761  1  -1.262655  0  -0.412564  -0.338161  0  3.539466  0
N  N309  1  0.85917768  0.42580117  0.98488642  1  -1.221141  0  -0.324109  -0.232447  0  3.507879  0
N  N310  1  0.55959157  0.89126091  0.44206679  1  -1.21738  0  -0.333139  -0.243395  0  3.524654  0
N  N311  1  0.70547591  0.24853163  0.40962097  1  -1.271155  0  -0.412803  -0.338693  0  3.539932  0
N  N312  1  0.93349236  0.57418475  0.51504218  1  -1.223793  0  -0.324201  -0.232952  0  3.508127  0
N  N313  1  0.94040274  0.10873335  0.44206217  1  -1.217341  0  -0.333093  -0.243337  0  3.524865  0
N  N314  1  0.79452040  0.75146423  0.40962149  1  -1.271316  0  -0.412839  -0.338758  0  3.539946  0
N  N315  1  0.56649943  0.42581044  0.51503940  1  -1.223793  0  -0.32426  -0.233076  0  3.507895  0
N  N316  1  0.66839526  0.10887498  0.94203166  1  -1.229592  0  -0.33333  -0.2427  0  3.524149  0
N  N317  1  0.45688017  0.75159692  0.90988732  1  -1.262809  0  -0.412431  -0.337816  0  3.540289  0
N  N318  1  0.35917187  0.42580249  0.01511942  1  -1.222379  0  -0.324018  -0.232531  0  3.50778  0
N  N319  1  0.83161528  0.89112734  0.94203441  1  -1.23043  0  -0.333397  -0.242881  0  3.524715  0
N  N320  1  0.04311842  0.24840140  0.90987566  1  -1.262819  0  -0.412444  -0.338027  0  3.539945  0
N  N321  1  0.14082380  0.57420080  0.01510455  1  -1.222448  0  -0.324003  -0.232309  0  3.507673  0
N  N322  1  0.44040389  0.10873404  0.55793909  1  -1.217417  0  -0.333114  -0.243373  0  3.524848  0
N  N323  1  0.29452107  0.75146261  0.59037975  1  -1.271323  0  -0.412873  -0.338798  0  3.539962  0
N  N324  1  0.06650607  0.42580738  0.48496427  1  -1.224234  0  -0.324174  -0.232859  0  3.507919  0
N  N325  1  0.05958552  0.89125597  0.55793454  1  -1.217372  0  -0.333046  -0.243332  0  3.524516  0
N  N326  1  0.20547591  0.24853493  0.59037750  1  -1.271289  0  -0.412806  -0.338633  0  3.540415  0
N  N327  1  0.43349754  0.57419504  0.48496303  1  -1.224071  0  -0.324168  -0.232827  0  3.507908  0
O  O328  1  0.22965451  0.70540768  0.17258095  1  -1.167211  0  -0.333661  -0.562298  0  2.127209  0
O  O329  1  0.10762168  0.72530445  0.13355718  1  -1.194881  0  -0.335355  -0.585717  0  2.260635  0
O  O330  1  0.16323159  0.79013208  0.44942821  1  -1.181066  0  -0.32893  -0.550178  0  2.218233  0
O  O331  1  0.63370568  0.26858575  0.98266691  1  -1.166659  0  -0.298876  -0.510537  0  2.265616  0
O  O332  1  0.02373100  0.74841575  0.39086898  1  -1.156943  0  -0.337954  -0.571159  0  2.211304  0
O  O333  1  0.27035061  0.29459392  0.17258258  1  -1.167081  0  -0.333784  -0.56242  0  2.126853  0
O  O334  1  0.39238095  0.27469107  0.13356082  1  -1.195314  0  -0.335399  -0.585768  0  2.26072  0
O  O335  1  0.33678314  0.20987268  0.44943381  1  -1.18071  0  -0.328946  -0.550195  0  2.217949  0
O  O336  1  0.86630408  0.73140859  0.98267510  1  -1.167351  0  -0.298619  -0.510082  0  2.267866  0
O  O337  1  0.47627723  0.25158375  0.39087000  1  -1.15713  0  -0.337987  -0.571272  0  2.2115  0
O  O338  1  0.47568500  0.70547163  0.32754913  1  -1.164913  0  -0.334209  -0.563088  0  2.125888  0
O  O339  1  0.61762784  0.72520732  0.36626840  1  -1.190527  0  -0.335418  -0.585891  0  2.258915  0
O  O340  1  0.62599156  0.78984845  0.05034952  1  -1.180998  0  -0.328582  -0.54959  0  2.218116  0
O  O341  1  0.63471493  0.26857819  0.51690530  1  -1.156349  0  -0.299057  -0.510375  0  2.266043  0
O  O342  1  0.72424960  0.74869291  0.10878624  1  -1.188016  0  -0.338458  -0.571012  0  2.210487  0
O  O343  1  0.02432012  0.29452687  0.32754294  1  -1.165062  0  -0.334227  -0.563026  0  2.126138  0
O  O344  1  0.88238076  0.27480076  0.36626572  1  -1.19039  0  -0.33538  -0.585765  0  2.25881  0
O  O345  1  0.87400655  0.21015111  0.05035117  1  -1.180921  0  -0.328559  -0.549564  0  2.218115  0
O  O346  1  0.86528171  0.73141419  0.51690144  1  -1.156583  0  -0.29904  -0.510266  0  2.266489  0
O  O347  1  0.77575304  0.25131049  0.10878982  1  -1.188034  0  -0.338401  -0.570999  0  2.210628  0
O  O348  1  0.77034701  0.29458938  0.82741576  1  -1.166933  0  -0.333735  -0.562371  0  2.126992  0
O  O349  1  0.89237750  0.27468417  0.86644009  1  -1.195719  0  -0.335454  -0.585749  0  2.260739  0
O  O350  1  0.83677408  0.20986076  0.55056850  1  -1.1808  0  -0.328929  -0.550191  0  2.218009  0
O  O351  1  0.36630044  0.73142676  0.01733667  1  -1.166994  0  -0.298865  -0.510506  0  2.265798  0
O  O352  1  0.97626912  0.25156725  0.60912600  1  -1.157022  0  -0.338025  -0.571225  0  2.211601  0
O  O353  1  0.72965500  0.70541508  0.82741699  1  -1.167006  0  -0.333748  -0.562342  0  2.127104  0
O  O354  1  0.60762345  0.72531301  0.86644161  1  -1.195454  0  -0.335419  -0.585723  0  2.260651  0
O  O355  1  0.66323699  0.79013281  0.55056691  1  -1.18126  0  -0.328996  -0.550201  0  2.218203  0
O  O356  1  0.13370315  0.26858987  0.01732332  1  -1.167353  0  -0.298715  -0.510251  0  2.266914  0
O  O357  1  0.52373429  0.74842454  0.60912154  1  -1.156913  0  -0.337994  -0.571189  0  2.211414  0
O  O358  1  0.52431887  0.29452261  0.67245789  1  -1.165016  0  -0.33427  -0.563105  0  2.125989  0
O  O359  1  0.38237946  0.27480378  0.63373862  1  -1.190366  0  -0.335412  -0.585725  0  2.258721  0
O  O360  1  0.37403978  0.21017320  0.94965062  1  -1.1812  0  -0.328621  -0.549559  0  2.217862  0
O  O361  1  0.36528150  0.73141746  0.48309370  1  -1.15661  0  -0.298985  -0.51019  0  2.266336  0
O  O362  1  0.27575126  0.25129782  0.89122422  1  -1.18788  0  -0.338422  -0.570956  0  2.210409  0
O  O363  1  0.97568057  0.70547229  0.67245319  1  -1.165059  0  -0.334262  -0.563018  0  2.125984  0
O  O364  1  0.11762156  0.72520542  0.63373384  1  -1.190448  0  -0.335367  -0.585768  0  2.258887  0
O  O365  1  0.12598009  0.78984876  0.94964668  1  -1.180933  0  -0.328549  -0.549544  0  2.218108  0
O  O366  1  0.13471049  0.26858427  0.48309640  1  -1.156644  0  -0.299092  -0.510423  0  2.265624  0
O  O367  1  0.22424728  0.74869921  0.89121433  1  -1.188274  0  -0.338388  -0.570881  0  2.210691  0
