# generated using pymatgen
data_H28Ru2C38S(NO2)4
_symmetry_space_group_name_H-M   'P 1'
_cell_length_a   11.60288685
_cell_length_b   15.40269566
_cell_length_c   15.66724709
_cell_angle_alpha   95.84624160
_cell_angle_beta   108.65717936
_cell_angle_gamma   107.74996115
_symmetry_Int_Tables_number   1
_chemical_formula_structural   H28Ru2C38S(NO2)4
_chemical_formula_sum   'H56 Ru4 C76 S2 N8 O16'
_cell_volume   2464.10569814
_cell_formula_units_Z   2
loop_
 _symmetry_equiv_pos_site_id
 _symmetry_equiv_pos_as_xyz
  1  'x, y, z'
loop_
 _atom_site_type_symbol
 _atom_site_label
 _atom_site_symmetry_multiplicity
 _atom_site_fract_x
 _atom_site_fract_y
 _atom_site_fract_z
 _atom_site_occupancy
 _atom_site_pbe_bader_charge
 _atom_site_pbe_bader_spin_density
 _atom_site_pbe_cm5_charge
 _atom_site_pbe_ddec_charge
 _atom_site_pbe_ddec_spin_density
 _atom_site_pbe_ddec_sum_bond_order
 _atom_site_pbe_magmom
H  H0  1  0.68146020  0.79733173  0.21018449  1  0.1034  -0.000163  0.110346  0.120337  -0.000102  0.990193  0.0
H  H1  1  0.31852885  0.20266316  0.78980547  1  0.10333  -0.000163  0.11035  0.120394  -0.000102  0.990164  0.0
H  H2  1  0.69196884  0.95751045  0.26098690  1  0.048674  0.000178  0.098427  0.102507  4.7e-05  1.023765  0.0
H  H3  1  0.30801466  0.04247877  0.73901967  1  0.048493  0.000178  0.098423  0.102505  4.7e-05  1.023995  0.0
H  H4  1  0.49103998  0.04906450  0.21906237  1  0.051545  0.000232  0.088723  0.128495  0.000117  1.031307  0.0
H  H5  1  0.50894736  0.95093800  0.78094329  1  0.051569  0.000232  0.088735  0.128508  0.000117  1.031389  0.0
H  H6  1  0.49895303  0.08040676  0.11429908  1  0.030959  5.2e-05  0.08809  0.125638  2.8e-05  1.021347  0.0
H  H7  1  0.50104135  0.91958604  0.88569448  1  0.030861  5.2e-05  0.088045  0.125639  2.8e-05  1.021446  0.0
H  H8  1  0.64423811  0.09811963  0.20993646  1  0.050036  8.5e-05  0.085621  0.119153  2.4e-05  1.021874  0.0
H  H9  1  0.35575763  0.90187039  0.79005713  1  0.04985  8.5e-05  0.085641  0.119187  2.4e-05  1.022107  0.0
H  H10  1  0.38386932  0.92792741  0.00527543  1  0.052634  1e-05  0.100716  0.107719  -7e-06  1.008184  0.0
H  H11  1  0.61610303  0.07206317  0.99472863  1  0.05233  1e-05  0.100693  0.107543  -7e-06  1.008382  0.0
H  H12  1  0.37620832  0.76775644  0.95211004  1  0.073088  -0.000124  0.10468  0.108295  -4.3e-05  1.012386  0.0
H  H13  1  0.62377294  0.23223559  0.04788799  1  0.073086  -0.000124  0.104691  0.108285  -4.3e-05  1.01235  0.0
H  H14  1  0.31547597  0.47007106  0.22824541  1  0.109666  -0.000181  0.110675  0.11854  -8.9e-05  0.985278  0.0
H  H15  1  0.68454179  0.52993225  0.77176435  1  0.109818  -0.000181  0.110587  0.118437  -8.9e-05  0.985503  0.0
H  H16  1  0.13425256  0.44734259  0.28644663  1  0.057821  6e-06  0.102885  0.107162  -5e-06  0.988941  0.0
H  H17  1  0.86575448  0.55265374  0.71355093  1  0.057707  7e-06  0.102949  0.107243  -4e-06  0.989081  0.0
H  H18  1  0.90751859  0.43717465  0.25407204  1  0.056916  -3.3e-05  0.088414  0.129335  -2.5e-05  1.025234  0.0
H  H19  1  0.09246858  0.56280907  0.74591568  1  0.056654  -3.3e-05  0.088352  0.129214  -2.5e-05  1.02536  0.0
H  H20  1  0.84011268  0.31938808  0.19313304  1  0.053307  0.000228  0.086258  0.118399  0.000105  1.018839  0.0
H  H21  1  0.15988684  0.68060961  0.80686479  1  0.05338  0.000229  0.08624  0.118368  0.000106  1.018752  0.0
H  H22  1  0.79161163  0.40499996  0.13931672  1  0.085427  5e-06  0.094806  0.143373  -8e-06  1.023159  0.0
H  H23  1  0.20839377  0.59498936  0.86068420  1  0.085688  4e-06  0.094811  0.143387  -9e-06  1.023129  0.0
H  H24  1  0.85876529  0.37475007  0.00676528  1  0.083727  -8.3e-05  0.10291  0.108757  -5.1e-05  0.992123  0.0
H  H25  1  0.14125427  0.62524768  0.99323668  1  0.083681  -8.3e-05  0.10294  0.108828  -5.1e-05  0.99205  0.0
H  H26  1  0.04054870  0.39957349  0.94883652  1  0.101963  -0.00013  0.10906  0.115262  -5e-05  0.988968  0.0
H  H27  1  0.95945608  0.60042564  0.05115570  1  0.101544  -0.000129  0.109091  0.11529  -5e-05  0.989055  0.0
H  H28  1  0.88541297  0.91192172  0.17175585  1  0.084015  0.000109  0.108135  0.110989  4e-05  0.999435  0.0
H  H29  1  0.11458839  0.08808154  0.82824874  1  0.084036  0.000109  0.108175  0.111013  4e-05  0.999443  0.0
H  H30  1  0.84524888  0.94610343  0.01538275  1  0.066184  -1e-05  0.102425  0.105442  8e-06  0.994095  0.0
H  H31  1  0.15474560  0.05389143  0.98462062  1  0.066289  -1.1e-05  0.102398  0.105412  8e-06  0.994068  0.0
H  H32  1  0.81006034  0.05835235  0.91560106  1  0.063646  -6.7e-05  0.092145  0.129371  -3.1e-05  1.004039  0.0
H  H33  1  0.18993300  0.94163833  0.08439651  1  0.063821  -6.7e-05  0.092132  0.129425  -3.1e-05  1.003969  0.0
H  H34  1  0.97636311  0.13024766  0.95380686  1  0.04188  -0.000323  0.094433  0.133536  -0.00017  0.999983  0.0
H  H35  1  0.02363171  0.86974235  0.04618715  1  0.041834  -0.000323  0.094438  0.133526  -0.00017  1.000039  0.0
H  H36  1  0.86156730  0.17963568  0.96567631  1  0.044533  -7.5e-05  0.091327  0.128852  -3.3e-05  1.013967  0.0
H  H37  1  0.13842205  0.82035430  0.03431704  1  0.04435  -7.4e-05  0.091364  0.128889  -3.3e-05  1.014018  0.0
H  H38  1  0.98072482  0.24001339  0.13517549  1  0.07558  1.4e-05  0.095256  0.098341  3.3e-05  1.053869  0.0
H  H39  1  0.01926843  0.75998081  0.86481603  1  0.075491  1.4e-05  0.095226  0.098325  3.3e-05  1.053898  0.0
H  H40  1  0.01817333  0.20542780  0.29141204  1  0.094913  0.000124  0.106464  0.112284  5.1e-05  0.997452  0.0
H  H41  1  0.98183148  0.79457691  0.70858395  1  0.094943  0.000125  0.10645  0.11227  5.2e-05  0.997289  0.0
H  H42  1  0.53477405  0.86439570  0.34861463  1  0.102605  0.000125  0.109574  0.113607  4.8e-05  0.991882  0.0
H  H43  1  0.46522536  0.13560545  0.65139056  1  0.102541  0.000125  0.109595  0.113639  4.8e-05  0.991839  0.0
H  H44  1  0.31572724  0.87662673  0.28689529  1  0.061985  0.0  0.104406  0.108828  1.4e-05  0.98309  0.0
H  H45  1  0.68427205  0.12337234  0.71310775  1  0.062011  0.0  0.104416  0.108861  1.4e-05  0.983103  0.0
H  H46  1  0.17209034  0.96373055  0.30971425  1  0.038337  7.7e-05  0.095104  0.140518  1.2e-05  0.995639  0.0
H  H47  1  0.82790427  0.03626641  0.69028618  1  0.0383  7.8e-05  0.095145  0.140562  1.2e-05  0.995676  0.0
H  H48  1  0.23076316  0.04678251  0.24905438  1  0.027535  -0.000316  0.093237  0.131805  -0.000164  0.997569  0.0
H  H49  1  0.76923808  0.95321867  0.75094678  1  0.027476  -0.000315  0.093208  0.131777  -0.000164  0.997643  0.0
H  H50  1  0.24258332  0.08519335  0.36285244  1  0.04542  5.8e-05  0.094468  0.139349  1e-05  0.998069  0.0
H  H51  1  0.75741587  0.91480921  0.63715093  1  0.045492  5.8e-05  0.094474  0.139375  1e-05  0.998043  0.0
H  H52  1  0.47790652  0.16416060  0.43385393  1  0.048693  -0.0  0.102576  0.106953  7e-06  0.988835  0.0
H  H53  1  0.52208946  0.83583914  0.56615094  1  0.048575  1e-06  0.102597  0.106973  8e-06  0.988816  0.0
H  H54  1  0.69740550  0.15182891  0.49463869  1  0.097535  7.8e-05  0.103713  0.108357  1.8e-05  1.009086  0.0
H  H55  1  0.30259232  0.84817086  0.50536343  1  0.097302  7.8e-05  0.103729  0.108373  1.8e-05  1.00903  0.0
Ru  Ru56  1  0.56856606  0.50408680  0.07387673  1  1.3153  -1.202234  0.794007  0.836767  -1.317249  3.991502  -1.185
Ru  Ru57  1  0.43144705  0.49591445  0.92611768  1  1.31264  -1.202213  0.793934  0.836832  -1.317298  3.991441  -1.185
Ru  Ru58  1  0.95608355  0.92021532  0.46699297  1  1.30063  1.183826  0.787402  0.830956  1.302293  3.975798  1.169
Ru  Ru59  1  0.04391920  0.07979075  0.53300905  1  1.305301  1.183963  0.787409  0.830843  1.302341  3.975884  1.169
C  C60  1  0.76326148  0.55309237  0.29332508  1  0.872593  -0.024309  0.201564  0.291802  -0.01995  4.067099  -0.022
C  C61  1  0.23674643  0.44691862  0.70667229  1  0.872712  -0.024316  0.201519  0.291774  -0.019953  4.067053  -0.022
C  C62  1  0.85477212  0.59738794  0.38214798  1  0.195736  0.017713  -0.022191  -0.119537  0.012585  4.186995  0.012
C  C63  1  0.14524073  0.40262937  0.61784420  1  0.195269  0.017713  -0.022181  -0.119399  0.012582  4.187008  0.012
C  C64  1  0.87790092  0.69281501  0.40268911  1  0.821017  0.016076  0.19665  0.289574  0.013983  4.066318  0.014
C  C65  1  0.12211898  0.30719815  0.59730367  1  0.820556  0.016081  0.196811  0.289613  0.013984  4.066401  0.014
C  C66  1  0.92407652  0.55016475  0.44130935  1  0.130442  -0.003423  -0.012541  -0.05041  -0.002241  4.046336  -0.003
C  C67  1  0.07594069  0.44985954  0.55868969  1  0.113565  -0.003392  -0.012558  -0.050413  -0.002225  4.046721  -0.003
C  C68  1  0.88223609  0.45101131  0.42623512  1  0.45718  0.004113  0.098477  0.108491  0.00284  4.049966  0.003
C  C69  1  0.11778543  0.54901436  0.57377147  1  0.456609  0.00411  0.098761  0.108552  0.002837  4.050541  0.003
C  C70  1  0.04299483  0.59779605  0.51767643  1  0.462376  0.001536  0.097834  0.111373  0.000949  4.04243  0.001
C  C71  1  0.95702375  0.40223103  0.48232577  1  0.478528  0.001523  0.097851  0.111348  0.000946  4.042752  0.001
C  C72  1  0.52180537  0.67614016  0.04777750  1  1.470628  0.010237  0.216362  0.537034  0.007785  4.13265  0.006
C  C73  1  0.47826950  0.32387745  0.95220453  1  1.471554  0.010225  0.216546  0.53732  0.007779  4.131649  0.006
C  C74  1  0.52793581  0.77202028  0.07766223  1  -0.024753  -0.000581  -0.027371  -0.054687  -7.3e-05  4.021577  -0.001
C  C75  1  0.47200506  0.22794709  0.92235175  1  -0.027343  -0.000578  -0.027348  -0.054926  -7.2e-05  4.021397  -0.001
C  C76  1  0.61645863  0.82605519  0.16518220  1  0.011966  0.002872  -0.078984  -0.079859  0.001993  3.959259  0.002
C  C77  1  0.38351986  0.17393124  0.83481778  1  0.012127  0.002868  -0.079183  -0.080101  0.00199  3.959765  0.002
C  C78  1  0.62156484  0.91600405  0.19356258  1  -0.068446  -0.001013  -0.09234  -0.142756  -0.000665  3.972246  -0.001
C  C79  1  0.37844816  0.08399513  0.80642521  1  -0.067721  -0.001013  -0.092297  -0.142697  -0.000665  3.972492  -0.001
C  C80  1  0.53807075  0.95428492  0.13736481  1  0.018814  0.003268  -0.001087  0.182298  0.002268  3.959642  0.002
C  C81  1  0.46192155  0.04570922  0.86264244  1  0.018472  0.003265  -0.001105  0.182138  0.002266  3.959715  0.002
C  C82  1  0.54323174  0.05069046  0.17125676  1  -0.077983  -5e-06  -0.241496  -0.419253  3.1e-05  3.96749  0.0
C  C83  1  0.45675624  0.94930228  0.82874421  1  -0.07772  -4e-06  -0.241521  -0.419267  3.1e-05  3.96775  0.0
C  C84  1  0.44938464  0.89943363  0.05027585  1  -0.042356  -0.001203  -0.095071  -0.159114  -0.000806  3.978247  -0.001
C  C85  1  0.55062818  0.10057255  0.94970942  1  -0.042477  -0.001201  -0.095039  -0.158837  -0.000805  3.978466  -0.001
C  C86  1  0.44457460  0.80963453  0.02013019  1  -0.045377  0.003148  -0.086158  -0.092529  0.002186  3.988035  0.002
C  C87  1  0.55540687  0.19035609  0.97987157  1  -0.042738  0.003145  -0.086052  -0.09223  0.002184  3.98756  0.002
C  C88  1  0.29786018  0.45353392  0.05216964  1  1.465078  0.010375  0.215815  0.53727  0.007976  4.133415  0.007
C  C89  1  0.70213422  0.54647000  0.94783911  1  1.465601  0.010391  0.215793  0.537372  0.007989  4.133182  0.007
C  C90  1  0.18871268  0.43526671  0.08501962  1  -0.085199  -0.000567  -0.026048  -0.053644  -8.8e-05  4.019735  -0.001
C  C91  1  0.81129133  0.56471980  0.91498515  1  -0.085078  -0.000568  -0.025986  -0.053539  -8.8e-05  4.019519  -0.001
C  C92  1  0.21491921  0.44856726  0.18034702  1  -0.079635  0.002839  -0.081214  -0.084074  0.001974  3.981553  0.002
C  C93  1  0.78508654  0.55142832  0.81965974  1  -0.079348  0.002843  -0.081172  -0.084011  0.001976  3.981494  0.002
C  C94  1  0.11335706  0.43569689  0.21224912  1  0.044575  -0.001132  -0.09476  -0.158208  -0.00075  3.980671  -0.001
C  C95  1  0.88664329  0.56430432  0.78774226  1  0.044611  -0.001133  -0.094773  -0.158258  -0.000751  3.980549  -0.001
C  C96  1  0.98376417  0.40837179  0.15048253  1  -0.064146  0.003129  -0.000179  0.187383  0.002172  3.967901  0.002
C  C97  1  0.01623613  0.59162380  0.84951910  1  -0.064117  0.003134  -0.000266  0.187204  0.002175  3.967294  0.002
C  C98  1  0.87505361  0.39221737  0.18572867  1  -0.103882  -1.6e-05  -0.243635  -0.424708  5.1e-05  3.954556  0.0
C  C99  1  0.12495593  0.60777481  0.81426013  1  -0.10403  -1.7e-05  -0.243585  -0.424526  5.1e-05  3.954072  0.0
C  C100  1  0.95884744  0.39478170  0.05536419  1  -0.055698  -0.001237  -0.092351  -0.155874  -0.000832  3.974559  -0.001
C  C101  1  0.04115925  0.60521947  0.94464464  1  -0.055851  -0.001238  -0.092248  -0.155863  -0.000833  3.974068  -0.001
C  C102  1  0.05983165  0.40833695  0.02258165  1  -0.018751  0.002974  -0.080227  -0.084497  0.002082  3.989251  0.002
C  C103  1  0.94016202  0.59165442  0.97742053  1  -0.01832  0.002977  -0.080327  -0.08458  0.002085  3.98936  0.002
C  C104  1  0.97555021  0.03604692  0.33435205  1  1.478348  -0.011332  0.214352  0.522675  -0.00862  4.149308  -0.008
C  C105  1  0.02444890  0.96395914  0.66564719  1  1.478359  -0.011333  0.214189  0.522503  -0.00862  4.149403  -0.008
C  C106  1  0.95461694  0.05646218  0.24156794  1  -0.040993  0.000684  -0.023065  -0.051596  0.000169  4.010724  0.001
C  C107  1  0.04538713  0.94353551  0.75843290  1  -0.040899  0.000684  -0.023053  -0.051662  0.00017  4.010743  0.001
C  C108  1  0.90639025  0.98371801  0.16326403  1  -0.049213  -0.003286  -0.080246  -0.082378  -0.00227  3.988167  -0.002
C  C109  1  0.09360916  0.01628315  0.83673797  1  -0.049214  -0.003287  -0.0803  -0.082513  -0.002271  3.988085  -0.002
C  C110  1  0.88417114  0.00333461  0.07587365  1  -0.027905  0.001277  -0.093658  -0.158228  0.000864  3.977609  0.001
C  C111  1  0.11582187  0.99666095  0.92412562  1  -0.027986  0.001277  -0.093545  -0.15799  0.000863  3.977748  0.001
C  C112  1  0.91007404  0.09558494  0.06403636  1  -0.032255  -0.003548  -0.001265  0.183507  -0.00245  3.966534  -0.002
C  C113  1  0.08992334  0.90441762  0.93596211  1  -0.03194  -0.003548  -0.001221  0.183505  -0.00245  3.966236  -0.002
C  C114  1  0.88759902  0.11697526  0.96981867  1  -0.093024  8e-06  -0.23708  -0.420627  -3.7e-05  3.973902  0.0
C  C115  1  0.11239317  0.88301682  0.03017941  1  -0.093032  8e-06  -0.237172  -0.420767  -3.7e-05  3.973819  0.0
C  C116  1  0.95925545  0.16787930  0.14294637  1  -0.035562  0.001291  -0.096684  -0.155321  0.000871  3.96209  0.001
C  C117  1  0.04074135  0.83211841  0.85704381  1  -0.035573  0.001292  -0.096687  -0.155401  0.000872  3.962094  0.001
C  C118  1  0.98100411  0.14903652  0.23058044  1  -0.024989  -0.003254  -0.082954  -0.084467  -0.002252  3.972465  -0.002
C  C119  1  0.01900112  0.85096538  0.76941919  1  -0.025221  -0.003251  -0.082949  -0.084319  -0.00225  3.972669  -0.002
C  C120  1  0.76123112  0.00233316  0.45889733  1  1.460771  -0.011141  0.214393  0.531391  -0.00848  4.129277  -0.008
C  C121  1  0.23876990  0.99766941  0.54110392  1  1.460896  -0.011141  0.214465  0.531508  -0.00848  4.128964  -0.008
C  C122  1  0.62987347  0.00769321  0.42488363  1  -0.060173  0.000798  -0.023636  -0.052483  0.000261  4.003348  0.001
C  C123  1  0.37012777  0.99230796  0.57511817  1  -0.059663  0.000798  -0.023646  -0.052615  0.000261  4.003495  0.001
C  C124  1  0.52161027  0.92993752  0.36665081  1  -0.102873  -0.003237  -0.079186  -0.077895  -0.002232  3.983512  -0.002
C  C125  1  0.47838424  0.07006293  0.63335123  1  -0.103448  -0.003237  -0.079174  -0.077862  -0.002232  3.983463  -0.002
C  C126  1  0.39949551  0.93735313  0.33212239  1  -0.000962  0.001327  -0.091943  -0.151693  0.000899  3.965927  0.001
C  C127  1  0.60050528  0.06265083  0.66788278  1  -0.001068  0.001327  -0.091931  -0.151758  0.000899  3.965568  0.001
C  C128  1  0.38172583  0.02165291  0.35504801  1  0.012326  -0.003566  -1.4e-05  0.185381  -0.002468  3.968188  -0.002
C  C129  1  0.61827017  0.97834686  0.64495112  1  0.012426  -0.003566  9e-06  0.185528  -0.002468  3.967821  -0.002
C  C130  1  0.24997448  0.02956400  0.31757691  1  -0.037764  0.000231  -0.241572  -0.428685  8.1e-05  3.963905  0.0
C  C131  1  0.75002515  0.97043577  0.68242691  1  -0.037716  0.000231  -0.24162  -0.428795  8.1e-05  3.96389  0.0
C  C132  1  0.49049020  0.09860800  0.41403419  1  -0.044643  0.001274  -0.093657  -0.157827  0.000844  3.987774  0.001
C  C133  1  0.50950601  0.90139036  0.58596804  1  -0.044355  0.001274  -0.093674  -0.157868  0.000844  3.987656  0.001
C  C134  1  0.61316884  0.09217011  0.44853496  1  -0.002263  -0.003295  -0.08423  -0.089947  -0.002291  4.000017  -0.002
C  C135  1  0.38682326  0.90782544  0.55146728  1  -0.002229  -0.003295  -0.084286  -0.08995  -0.002291  3.999858  -0.002
S  S136  1  0.76350436  0.28721070  0.36999882  1  1.267837  -0.008712  0.398035  0.435151  -0.00602  3.344752  -0.005
S  S137  1  0.23651177  0.71281143  0.63001569  1  1.267913  -0.00871  0.397968  0.434983  -0.006019  3.344542  -0.005
N  N138  1  0.69167401  0.52296177  0.21621803  1  -1.227216  0.011892  -0.351212  -0.374673  0.011136  3.216037  0.026
N  N139  1  0.30834928  0.47704720  0.78377767  1  -1.227107  0.011873  -0.3512  -0.374717  0.011129  3.215995  0.026
N  N140  1  0.88715257  0.77158043  0.41331003  1  -1.196522  0.005883  -0.355776  -0.379906  0.001835  3.209147  -0.009
N  N141  1  0.11283393  0.22842772  0.58667686  1  -1.196015  0.005882  -0.355928  -0.379977  0.001838  3.209404  -0.009
N  N142  1  0.76913075  0.39141964  0.36035477  1  -1.186401  -0.000779  -0.310841  -0.347937  -0.00048  3.195704  -0.001
N  N143  1  0.23087856  0.60859970  0.63965081  1  -1.186981  -0.000769  -0.310967  -0.347897  -0.000473  3.196104  -0.001
N  N144  1  0.89786295  0.30803352  0.45562805  1  -1.188497  -0.000656  -0.30673  -0.337639  -0.000288  3.166151  0.0
N  N145  1  0.10215527  0.69199283  0.54438228  1  -1.189336  -0.000665  -0.306637  -0.337493  -0.000294  3.165887  0.0
O  O146  1  0.58647619  0.64013785  0.10733054  1  -1.081032  -0.038556  -0.295908  -0.455873  -0.026912  2.426419  -0.028
O  O147  1  0.41349405  0.35984294  0.89267329  1  -1.081489  -0.038543  -0.296034  -0.456022  -0.026906  2.426114  -0.028
O  O148  1  0.45068948  0.63136742  0.96377482  1  -1.082693  -0.042811  -0.297038  -0.457803  -0.029976  2.426155  -0.03
O  O149  1  0.54930019  0.36862324  0.03622761  1  -1.083147  -0.042789  -0.297081  -0.457836  -0.029962  2.425741  -0.03
O  O150  1  0.41116095  0.46567449  0.11102221  1  -1.072617  -0.035482  -0.296243  -0.455236  -0.024636  2.433132  -0.025
O  O151  1  0.58883269  0.53431130  0.88897683  1  -1.072996  -0.035518  -0.296234  -0.45532  -0.024659  2.433645  -0.025
O  O152  1  0.27632811  0.45838193  0.96723131  1  -1.075028  -0.03601  -0.298812  -0.463048  -0.025159  2.4134  -0.025
O  O153  1  0.72366468  0.54162057  0.03277947  1  -1.075415  -0.036048  -0.298762  -0.462946  -0.025185  2.413669  -0.025
O  O154  1  0.94129692  0.94994587  0.34106177  1  -1.071007  0.039598  -0.295711  -0.460626  0.027913  2.442118  0.028
O  O155  1  0.05870639  0.05005950  0.65893904  1  -1.071368  0.039604  -0.295619  -0.460474  0.027917  2.442214  0.028
O  O156  1  0.02652984  0.10481596  0.40484496  1  -1.094046  0.037827  -0.294766  -0.456751  0.026732  2.434208  0.027
O  O157  1  0.97347621  0.89518943  0.59515522  1  -1.093929  0.037829  -0.294719  -0.456689  0.026734  2.43422  0.027
O  O158  1  0.77359563  0.92310709  0.43930908  1  -1.072535  0.039496  -0.297476  -0.459466  0.027799  2.419646  0.028
O  O159  1  0.22640699  0.07689688  0.56069397  1  -1.072578  0.039499  -0.297507  -0.459453  0.027801  2.419476  0.028
O  O160  1  0.85872126  0.07773310  0.50463245  1  -1.07069  0.036856  -0.294471  -0.453126  0.025982  2.436801  0.027
O  O161  1  0.14127942  0.92226878  0.49536673  1  -1.070657  0.036853  -0.294498  -0.45318  0.02598  2.43666  0.027
