# generated using pymatgen
data_CdH16C26(SN4)2
_symmetry_space_group_name_H-M   'P 1'
_cell_length_a   9.22988932
_cell_length_b   9.78018656
_cell_length_c   15.10470000
_cell_angle_alpha   103.98855721
_cell_angle_beta   106.03176013
_cell_angle_gamma   97.90772984
_symmetry_Int_Tables_number   1
_chemical_formula_structural   CdH16C26(SN4)2
_chemical_formula_sum   'Cd2 H32 C52 S4 N16'
_cell_volume   1240.71244949
_cell_formula_units_Z   2
loop_
 _symmetry_equiv_pos_site_id
 _symmetry_equiv_pos_as_xyz
  1  'x, y, z'
loop_
 _atom_site_type_symbol
 _atom_site_label
 _atom_site_symmetry_multiplicity
 _atom_site_fract_x
 _atom_site_fract_y
 _atom_site_fract_z
 _atom_site_occupancy
 _atom_site_hle17_bader_spin_density
 _atom_site_hle17_ddec_charge
 _atom_site_hle17_ddec_spin_density
 _atom_site_hle17_ddec_sum_bond_order
 _atom_site_hle17_magmom
 _atom_site_hse06_10hf_bader_spin_density
 _atom_site_hse06_10hf_ddec_charge
 _atom_site_hse06_10hf_ddec_spin_density
 _atom_site_hse06_10hf_ddec_sum_bond_order
 _atom_site_hse06_10hf_magmom
 _atom_site_hse06_bader_spin_density
 _atom_site_hse06_ddec_charge
 _atom_site_hse06_ddec_spin_density
 _atom_site_hse06_ddec_sum_bond_order
 _atom_site_hse06_magmom
 _atom_site_pbe_bader_charge
 _atom_site_pbe_bader_spin_density
 _atom_site_pbe_cm5_charge
 _atom_site_pbe_ddec_charge
 _atom_site_pbe_ddec_spin_density
 _atom_site_pbe_ddec_sum_bond_order
 _atom_site_pbe_magmom
Cd  Cd0  1  0.00774023  0.73632606  0.28277704  1  0  1.031197  0  1.916452  0  0  0.817744  0  2.388673  0  0  0.871254  0  2.345923  0  1.259882  0  0.801887  0.780406  0  2.416569  0
Cd  Cd1  1  0.99226068  0.26367472  0.71722297  1  0  1.031179  0  1.916377  0  0  0.81772  0  2.388596  0  0  0.871228  0  2.345847  0  1.259885  0  0.801875  0.780381  0  2.416492  0
H  H2  1  0.41497740  0.00461901  0.64954324  1  0  0.102721  0  0.973085  0  0  0.108517  0  1.040795  0  0  0.111261  0  1.040904  0  0.109488  0  0.099742  0.1065  0  1.040869  0
H  H3  1  0.58502137  0.99537745  0.35045706  1  0  0.10273  0  0.973052  0  0  0.108527  0  1.040758  0  0  0.111271  0  1.040867  0  0.10949  0  0.099729  0.106508  0  1.04083  0
H  H4  1  0.64149702  0.90839269  0.62935720  1  0  0.097348  0  0.941327  0  0  0.109088  0  1.000632  0  0  0.111014  0  0.999571  0  0.107692  0  0.107936  0.107603  0  1.001569  0
H  H5  1  0.35850288  0.09160378  0.37064395  1  0  0.097353  0  0.941324  0  0  0.109063  0  1.000671  0  0  0.11099  0  0.999609  0  0.107833  0  0.107924  0.107578  0  1.001609  0
H  H6  1  0.61195122  0.72321204  0.47122516  1  0  0.097214  0  0.992941  0  0  0.103005  0  1.06159  0  0  0.105836  0  1.06094  0  0.11366  0  0.096206  0.101066  0  1.061892  0
H  H7  1  0.38804781  0.27678551  0.52877535  1  0  0.097222  0  0.992939  0  0  0.103013  0  1.061588  0  0  0.105844  0  1.060937  0  0.113672  0  0.096211  0.101073  0  1.061891  0
H  H8  1  0.36042270  0.65839681  0.34009288  1  0  0.07774  0  0.928281  0  0  0.087715  0  0.988555  0  0  0.0898  0  0.987504  0  0.09149  0  0.114802  0.086195  0  0.989376  0
H  H9  1  0.63957821  0.34160397  0.65990714  1  0  0.077719  0  0.928313  0  0  0.087713  0  0.988562  0  0  0.089798  0  0.98751  0  0.091499  0  0.114799  0.086196  0  0.989378  0
H  H10  1  0.79841360  0.24210349  0.35834278  1  0  0.105676  0  0.991078  0  0  0.109278  0  1.061673  0  0  0.11248  0  1.061426  0  0.111297  0  0.095264  0.107295  0  1.061549  0
H  H11  1  0.20158731  0.75789730  0.64165789  1  0  0.105689  0  0.99108  0  0  0.109287  0  1.061679  0  0  0.11249  0  1.061431  0  0.11131  0  0.095268  0.107304  0  1.061555  0
H  H12  1  0.70998916  0.25534495  0.19103188  1  0  0.092711  0  0.953158  0  0  0.10215  0  1.014932  0  0  0.103853  0  1.015322  0  0.095546  0  0.103733  0.101014  0  1.014676  0
H  H13  1  0.29001037  0.74465476  0.80896905  1  0  0.092687  0  0.95319  0  0  0.102127  0  1.014965  0  0  0.10383  0  1.015356  0  0.095755  0  0.103725  0.100991  0  1.01471  0
H  H14  1  0.72555167  0.05292912  0.05567260  1  0  0.097224  0  0.970408  0  0  0.101591  0  1.039454  0  0  0.105047  0  1.038485  0  0.087603  0  0.097148  0.099155  0  1.040165  0
H  H15  1  0.27445062  0.94707274  0.94432848  1  0  0.097201  0  0.970444  0  0  0.10157  0  1.03949  0  0  0.105026  0  1.038521  0  0.08759  0  0.097138  0.099134  0  1.0402  0
H  H16  1  0.83071220  0.84423408  0.09856830  1  0  0.075462  0  0.936488  0  0  0.081557  0  1.005862  0  0  0.084175  0  1.003244  0  0.084289  0  0.11262  0.079705  0  1.007625  0
H  H17  1  0.16928896  0.15576778  0.90143258  1  0  0.075479  0  0.936489  0  0  0.081573  0  1.005863  0  0  0.084191  0  1.003246  0  0.084274  0  0.112637  0.079721  0  1.007628  0
H  H18  1  0.14728439  0.22161114  0.09559355  1  0  0.10798  0  0.941738  0  0  0.118512  0  1.000123  0  0  0.121944  0  0.998726  0  0.093132  0  0.109275  0.116059  0  1.001161  0
H  H19  1  0.85271790  0.77839073  0.90440686  1  0  0.107999  0  0.941733  0  0  0.118515  0  1.00013  0  0  0.121948  0  0.99873  0  0.093145  0  0.109281  0.116063  0  1.001167  0
H  H20  1  0.22772012  0.14132000  0.24255061  1  0  0.087596  0  0.981773  0  0  0.09443  0  1.050435  0  0  0.096752  0  1.048893  0  0.104062  0  0.097562  0.093023  0  1.050983  0
H  H21  1  0.77228079  0.85868079  0.75744940  1  0  0.087587  0  0.981793  0  0  0.094443  0  1.050444  0  0  0.096765  0  1.0489  0  0.10405  0  0.097559  0.093036  0  1.050993  0
H  H22  1  0.19414076  0.28978722  0.39682469  1  0  0.104266  0  0.954488  0  0  0.114291  0  1.014473  0  0  0.11693  0  1.014303  0  0.081259  0  0.103788  0.112378  0  1.014868  0
H  H23  1  0.80586015  0.71021357  0.60317532  1  0  0.104251  0  0.954507  0  0  0.114275  0  1.014492  0  0  0.116914  0  1.014322  0  0.081309  0  0.103785  0.112362  0  1.014887  0
H  H24  1  0.08505395  0.50717569  0.39291754  1  0  0.080625  0  0.960319  0  0  0.083618  0  1.031865  0  0  0.085977  0  1.030352  0  0.135402  0  0.109826  0.081839  0  1.03304  0
H  H25  1  0.91494583  0.49282510  0.60708162  1  0  0.080612  0  0.960316  0  0  0.083609  0  1.031855  0  0  0.085964  0  1.030354  0  0.135396  0  0.109823  0.08183  0  1.03303  0
H  H26  1  0.63281302  0.28366489  0.97661048  1  0  0.102769  0  0.998814  0  0  0.106215  0  1.0709  0  0  0.109425  0  1.070668  0  0.130979  0  0.090784  0.103775  0  1.071462  0
H  H27  1  0.36718677  0.71633590  0.02338935  1  0  0.10275  0  0.998817  0  0  0.106193  0  1.07091  0  0  0.109405  0  1.070677  0  0.130965  0  0.090779  0.103753  0  1.071473  0
H  H28  1  0.40415186  0.27981913  0.03586595  1  0  0.090134  0  0.938246  0  0  0.101964  0  0.99888  0  0  0.104477  0  0.996831  0  0.096894  0  0.10635  0.099915  0  1.000734  0
H  H29  1  0.59584767  0.72018058  0.96413432  1  0  0.090128  0  0.938254  0  0  0.101959  0  0.998886  0  0  0.104471  0  0.996837  0  0.096875  0  0.106353  0.09991  0  1.00074  0
H  H30  1  0.40765065  0.48897826  0.17112526  1  0  0.10466  0  0.962482  0  0  0.110631  0  1.029067  0  0  0.113982  0  1.027675  0  0.104433  0  0.10427  0.10814  0  1.030323  0
H  H31  1  0.59234863  0.51102036  0.82887480  1  0  0.104688  0  0.962485  0  0  0.11066  0  1.029067  0  0  0.114008  0  1.027675  0  0.10444  0  0.104278  0.108167  0  1.03033  0
H  H32  1  0.64642495  0.68760125  0.24789038  1  0  0.076988  0  0.932109  0  0  0.085549  0  0.99376  0  0  0.087858  0  0.992177  0  0.079087  0  0.112984  0.083798  0  0.995105  0
H  H33  1  0.35357433  0.31239738  0.75211034  1  0  0.076972  0  0.932104  0  0  0.085534  0  0.993748  0  0  0.087842  0  0.992167  0  0.079022  0  0.112986  0.083782  0  0.995093  0
C  C34  1  0.12910760  0.94385661  0.50705957  1  0  0.144831  0  3.691842  0  0  0.134918  0  3.943454  0  0  0.140088  0  3.958803  0  0.574704  0  0.140012  0.131394  0  3.932504  0
C  C35  1  0.87089331  0.05614418  0.49294110  1  0  0.144769  0  3.69201  0  0  0.134908  0  3.943529  0  0  0.140077  0  3.958877  0  0.574699  0  0.140011  0.131384  0  3.932578  0
C  C36  1  0.92641344  0.01996641  0.41385594  1  0  0.140288  0  3.687311  0  0  0.130572  0  3.937697  0  0  0.135265  0  3.953358  0  0.558137  0  0.139656  0.127258  0  3.926883  0
C  C37  1  0.07358747  0.98003438  0.58614473  1  0  0.140305  0  3.687237  0  0  0.130583  0  3.937663  0  0  0.135276  0  3.953324  0  0.558134  0  0.139652  0.127268  0  3.926848  0
C  C38  1  0.26718303  0.88312365  0.50434091  1  0  0.176915  0  3.751072  0  0  0.173495  0  3.993837  0  0  0.178858  0  4.014664  0  0.45985  0  0.119828  0.16996  0  3.979469  0
C  C39  1  0.73281763  0.11687606  0.49565889  1  0  0.176976  0  3.751015  0  0  0.17354  0  3.993782  0  0  0.178904  0  4.014609  0  0.459809  0  0.119853  0.170005  0  3.979414  0
C  C40  1  0.40514495  0.92719597  0.58169571  1  0  -0.139023  0  3.714133  0  0  -0.156584  0  3.960857  0  0  -0.162939  0  3.982761  0  -0.077959  0  -0.077773  -0.152359  0  3.946001  0
C  C41  1  0.59485520  0.07280157  0.41830433  1  0  -0.139105  0  3.713991  0  0  -0.15667  0  3.960726  0  0  -0.163025  0  3.982629  0  -0.077939  0  -0.077808  -0.152441  0  3.945874  0
C  C42  1  0.53238139  0.87207452  0.57047623  1  0  0.010718  0  3.692595  0  0  -0.008185  0  3.94171  0  0  -0.005211  0  3.960254  0  -0.015065  0  -0.065901  -0.009873  0  3.928915  0
C  C43  1  0.46761789  0.12792411  0.42952383  1  0  0.010774  0  3.692487  0  0  -0.008111  0  3.941609  0  0  -0.005136  0  3.960152  0  -0.015209  0  -0.065864  -0.0098  0  3.928813  0
C  C44  1  0.51794798  0.77311510  0.48332683  1  0  -0.107135  0  3.717736  0  0  -0.119988  0  3.969237  0  0  -0.125238  0  3.988976  0  -0.031662  0  -0.081925  -0.116395  0  3.955141  0
C  C45  1  0.48205242  0.22688353  0.51667409  1  0  -0.107129  0  3.717759  0  0  -0.119984  0  3.969254  0  0  -0.125234  0  3.988994  0  -0.031587  0  -0.081924  -0.11639  0  3.955158  0
C  C46  1  0.37659237  0.73532602  0.40959632  1  0  0.1351  0  3.713999  0  0  0.103492  0  3.971213  0  0  0.109667  0  3.989299  0  0.53746  0  0.050682  0.099503  0  3.95853  0
C  C47  1  0.62340691  0.26467261  0.59040308  1  0  0.135081  0  3.714052  0  0  0.103473  0  3.971251  0  0  0.109648  0  3.989337  0  0.537384  0  0.050692  0.099481  0  3.958569  0
C  C48  1  0.85975974  0.03475006  0.31608499  1  0  0.175696  0  3.763278  0  0  0.174845  0  4.002625  0  0  0.180143  0  4.023595  0  0.493015  0  0.119065  0.171381  0  3.98847  0
C  C49  1  0.14024092  0.96524965  0.68391547  1  0  0.1757  0  3.763194  0  0  0.174852  0  4.002541  0  0  0.180151  0  4.023512  0  0.493001  0  0.119082  0.171388  0  3.988386  0
C  C50  1  0.80299369  0.15457442  0.29937658  1  0  -0.138236  0  3.705918  0  0  -0.156184  0  3.952062  0  0  -0.162548  0  3.972687  0  -0.066636  0  -0.079689  -0.152292  0  3.93837  0
C  C51  1  0.19700610  0.84542637  0.70062390  1  0  -0.138243  0  3.705953  0  0  -0.156185  0  3.952089  0  0  -0.16255  0  3.972714  0  -0.066634  0  -0.079697  -0.152293  0  3.938399  0
C  C52  1  0.75375612  0.16214282  0.20510429  1  0  0.015858  0  3.691499  0  0  -0.001825  0  3.938712  0  0  0.001504  0  3.957024  0  0.031265  0  -0.065182  -0.003817  0  3.926212  0
C  C53  1  0.24624341  0.83785689  0.79489599  1  0  0.015817  0  3.691571  0  0  -0.001862  0  3.938772  0  0  0.001468  0  3.957084  0  0.03106  0  -0.065207  -0.003853  0  3.926271  0
C  C54  1  0.76238062  0.05068171  0.13044102  1  0  -0.114946  0  3.712301  0  0  -0.124187  0  3.959568  0  0  -0.130668  0  3.980493  0  -0.006058  0  -0.083098  -0.119795  0  3.945164  0
C  C55  1  0.23762029  0.94931907  0.86955966  1  0  -0.11487  0  3.712302  0  0  -0.124113  0  3.959569  0  0  -0.130594  0  3.980493  0  -0.006047  0  -0.083058  -0.119722  0  3.945164  0
C  C56  1  0.82065487  0.93482269  0.15359875  1  0  0.135337  0  3.71441  0  0  0.103483  0  3.971554  0  0  0.109407  0  3.990613  0  0.486438  0  0.048738  0.09981  0  3.958095  0
C  C57  1  0.17934491  0.06517809  0.84640107  1  0  0.135292  0  3.714391  0  0  0.103438  0  3.971541  0  0  0.109363  0  3.990601  0  0.48645  0  0.048705  0.099766  0  3.95808  0
C  C58  1  0.03077391  0.45500254  0.07996225  1  0  0.121492  0  3.730291  0  0  0.11575  0  3.981128  0  0  0.11895  0  3.9985  0  0.510787  0  0.134856  0.113428  0  3.969261  0
C  C59  1  0.96922475  0.54499825  0.92003739  1  0  0.121511  0  3.730296  0  0  0.11576  0  3.98113  0  0  0.11896  0  3.998501  0  0.510822  0  0.134864  0.113438  0  3.969262  0
C  C60  1  0.89133262  0.49719140  0.04446217  1  0  0.131786  0  3.707813  0  0  0.127147  0  3.960035  0  0  0.130321  0  3.976898  0  0.588689  0  0.140068  0.124752  0  3.948845  0
C  C61  1  0.10866579  0.50280830  0.95553791  1  0  0.131718  0  3.707888  0  0  0.127111  0  3.960075  0  0  0.130285  0  3.976939  0  0.588742  0  0.140054  0.124716  0  3.948885  0
C  C62  1  0.07286296  0.40472581  0.16688779  1  0  0.18404  0  3.761473  0  0  0.179284  0  4.006721  0  0  0.185676  0  4.027508  0  0.536963  0  0.117865  0.175341  0  3.992132  0
C  C63  1  0.92713683  0.59527497  0.83311137  1  0  0.183998  0  3.761422  0  0  0.17923  0  4.006682  0  0  0.185621  0  4.027469  0  0.536965  0  0.117812  0.175287  0  3.992093  0
C  C64  1  0.13467673  0.28136564  0.16293029  1  0  -0.140047  0  3.707635  0  0  -0.157455  0  3.952327  0  0  -0.16436  0  3.973162  0  -0.037898  0  -0.078588  -0.152832  0  3.938084  0
C  C65  1  0.86532556  0.71863622  0.83707013  1  0  -0.139998  0  3.707647  0  0  -0.157383  0  3.952338  0  0  -0.164287  0  3.973174  0  -0.037876  0  -0.078549  -0.152761  0  3.938094  0
C  C66  1  0.17889865  0.23701901  0.24547881  1  0  0.00214  0  3.725935  0  0  -0.015748  0  3.973358  0  0  -0.012528  0  3.992637  0  -0.03957  0  -0.06586  -0.01762  0  3.959921  0
C  C67  1  0.82110139  0.76298286  0.75452189  1  0  0.002126  0  3.725925  0  0  -0.015793  0  3.973349  0  0  -0.012573  0  3.992632  0  -0.039577  0  -0.065866  -0.017666  0  3.959913  0
C  C68  1  0.16059407  0.31786849  0.32967984  1  0  -0.110072  0  3.719018  0  0  -0.122701  0  3.96839  0  0  -0.129085  0  3.989739  0  0.008187  0  -0.080797  -0.118913  0  3.95443  0
C  C69  1  0.83940571  0.68213230  0.67031999  1  0  -0.11005  0  3.718967  0  0  -0.122677  0  3.968347  0  0  -0.129062  0  3.989695  0  0.008144  0  -0.080793  -0.118891  0  3.954388  0
C  C70  1  0.09880949  0.43984306  0.32804561  1  0  0.131922  0  3.709428  0  0  0.102215  0  3.964769  0  0  0.108826  0  3.982745  0  0.452126  0  0.046568  0.098051  0  3.952566  0
C  C71  1  0.90119142  0.56015773  0.67195440  1  0  0.131923  0  3.709439  0  0  0.102214  0  3.964776  0  0  0.108825  0  3.982748  0  0.452129  0  0.046551  0.098051  0  3.952572  0
C  C72  1  0.75954675  0.48663366  0.08384363  1  0  0.192318  0  3.749063  0  0  0.18629  0  3.995061  0  0  0.193225  0  4.015183  0  0.545593  0  0.121322  0.181704  0  3.981768  0
C  C73  1  0.24045053  0.51336605  0.91615560  1  0  0.192302  0  3.749054  0  0  0.18626  0  3.99506  0  0  0.193194  0  4.015188  0  0.545545  0  0.121318  0.181675  0  3.981765  0
C  C74  1  0.63209175  0.37063669  0.03739523  1  0  -0.148353  0  3.695248  0  0  -0.162232  0  3.937278  0  0  -0.169339  0  3.95829  0  -0.085714  0  -0.083146  -0.157725  0  3.923428  0
C  C75  1  0.36790778  0.62936301  0.96260438  1  0  -0.148286  0  3.695277  0  0  -0.16216  0  3.937306  0  0  -0.169267  0  3.958318  0  -0.085686  0  -0.083121  -0.157653  0  3.923456  0
C  C76  1  0.50490125  0.36915174  0.07017167  1  0  0.005846  0  3.715291  0  0  -0.013803  0  3.966924  0  0  -0.010137  0  3.984281  0  -0.059416  0  -0.065646  -0.016033  0  3.955134  0
C  C77  1  0.49509716  0.63084797  0.92982775  1  0  0.005895  0  3.715343  0  0  -0.01375  0  3.966974  0  0  -0.010083  0  3.98433  0  -0.059345  0  -0.065622  -0.01598  0  3.955184  0
C  C78  1  0.50689407  0.48456876  0.14592640  1  0  -0.113221  0  3.740918  0  0  -0.130503  0  4.001195  0  0  -0.135853  0  4.020609  0  0.021638  0  -0.081631  -0.127024  0  3.988313  0
C  C79  1  0.49310408  0.51542986  0.85407281  1  0  -0.113376  0  3.741005  0  0  -0.130677  0  4.001317  0  0  -0.136022  0  4.020723  0  0.021645  0  -0.081717  -0.1272  0  3.988435  0
C  C80  1  0.63856335  0.59543157  0.18798506  1  0  0.136612  0  3.718629  0  0  0.106464  0  3.97295  0  0  0.112725  0  3.991356  0  0.471619  0  0.046353  0.102369  0  3.960729  0
C  C81  1  0.36143618  0.40456814  0.81201521  1  0  0.136688  0  3.718725  0  0  0.106556  0  3.973028  0  0  0.112818  0  3.991433  0  0.471674  0  0.046392  0.102461  0  3.960807  0
C  C82  1  0.24610118  0.86104159  0.17337616  1  0  0.297879  0  4.068559  0  0  0.282253  0  4.366413  0  0  0.305905  0  4.379177  0  0.534328  0  0.130071  0.266256  0  4.356848  0
C  C83  1  0.75390085  0.13895920  0.82662404  1  0  0.297941  0  4.068608  0  0  0.282313  0  4.366463  0  0  0.305971  0  4.379225  0  0.534217  0  0.130084  0.266319  0  4.356896  0
C  C84  1  0.79821674  0.57777845  0.39639139  1  0  0.281188  0  4.077971  0  0  0.266602  0  4.377001  0  0  0.290219  0  4.390744  0  0.500932  0  0.126276  0.250813  0  4.367345  0
C  C85  1  0.20177615  0.42221694  0.60360907  1  0  0.281339  0  4.078131  0  0  0.266749  0  4.377147  0  0  0.290362  0  4.390883  0  0.501255  0  0.126419  0.250963  0  4.367495  0
S  S86  1  0.38571909  0.95519301  0.15303259  1  0  -0.385432  0  2.006289  0  0  -0.359176  0  2.276717  0  0  -0.374436  0  2.272562  0  0.040698  0  -0.179742  -0.348462  0  2.279346  0
S  S87  1  0.61428469  0.04480562  0.84696757  1  0  -0.385434  0  2.006277  0  0  -0.359176  0  2.276699  0  0  -0.37444  0  2.272544  0  0.040739  0  -0.17973  -0.348463  0  2.279327  0
S  S88  1  0.66897449  0.45982675  0.40773646  1  0  -0.35631  0  2.021848  0  0  -0.331884  0  2.300001  0  0  -0.348851  0  2.299701  0  0.077551  0  -0.166787  -0.320794  0  2.299789  0
S  S89  1  0.33102606  0.54017728  0.59226333  1  0  -0.356468  0  2.021422  0  0  -0.332044  0  2.299577  0  0  -0.349015  0  2.299277  0  0.077371  0  -0.166877  -0.320951  0  2.299368  0
N  N90  1  0.05318909  0.96553800  0.42415294  1  0  -0.322579  0  3.190131  0  0  -0.279741  0  3.455  0  0  -0.290757  0  3.468914  0  -1.201668  0  -0.299913  -0.271754  0  3.445197  0
N  N91  1  0.94681182  0.03446279  0.57584774  1  0  -0.322588  0  3.190187  0  0  -0.279748  0  3.45503  0  0  -0.290764  0  3.468943  0  -1.201609  0  -0.299905  -0.27176  0  3.445225  0
N  N92  1  0.25448248  0.78965261  0.41900700  1  0  -0.343832  0  3.205626  0  0  -0.279759  0  3.465909  0  0  -0.297513  0  3.48554  0  -1.195421  0  -0.310496  -0.267413  0  3.452262  0
N  N93  1  0.74551930  0.21034709  0.58099299  1  0  -0.34384  0  3.205615  0  0  -0.27978  0  3.465918  0  0  -0.297533  0  3.485548  0  -1.195433  0  -0.310514  -0.267435  0  3.452273  0
N  N94  1  0.86857844  0.92705882  0.24394832  1  0  -0.347407  0  3.225976  0  0  -0.284074  0  3.484774  0  0  -0.302034  0  3.505072  0  -1.212283  0  -0.313907  -0.271612  0  3.470284  0
N  N95  1  0.13142135  0.07294197  0.75605216  1  0  -0.347402  0  3.225933  0  0  -0.28407  0  3.484741  0  0  -0.30203  0  3.505034  0  -1.212298  0  -0.313905  -0.271608  0  3.47025  0
N  N96  1  0.05551341  0.48330628  0.24868560  1  0  -0.358982  0  3.175641  0  0  -0.294123  0  3.432275  0  0  -0.312296  0  3.451557  0  -1.233639  0  -0.315528  -0.281775  0  3.418526  0
N  N97  1  0.94448612  0.51669342  0.75131335  1  0  -0.358966  0  3.175553  0  0  -0.294108  0  3.432202  0  0  -0.31228  0  3.451483  0  -1.233681  0  -0.315495  -0.281756  0  3.418443  0
N  N98  1  0.76381087  0.59576420  0.15903743  1  0  -0.360649  0  3.225552  0  0  -0.295989  0  3.485973  0  0  -0.314143  0  3.505002  0  -1.229494  0  -0.321324  -0.283926  0  3.4731  0
N  N99  1  0.23618866  0.40423551  0.84096284  1  0  -0.360623  0  3.225584  0  0  -0.295964  0  3.485996  0  0  -0.314118  0  3.505026  0  -1.229516  0  -0.321308  -0.283901  0  3.473122  0
N  N100  1  0.86386894  0.54266876  0.96597201  1  0  -0.296922  0  3.049224  0  0  -0.273662  0  3.316677  0  0  -0.282126  0  3.33164  0  -1.16634  0  -0.282987  -0.267534  0  3.306383  0
N  N101  1  0.13613084  0.45733203  0.03402781  1  0  -0.29689  0  3.049235  0  0  -0.27364  0  3.316676  0  0  -0.282103  0  3.331641  0  -1.166347  0  -0.28298  -0.267512  0  3.306382  0
N  N102  1  0.14399582  0.79189894  0.18836673  1  0  -0.579336  0  2.919105  0  0  -0.520822  0  3.204031  0  0  -0.544523  0  3.210417  0  -1.328975  0  -0.422727  -0.504317  0  3.198545  0
N  N103  1  0.85600447  0.20810400  0.81163484  1  0  -0.579391  0  2.919175  0  0  -0.520876  0  3.204101  0  0  -0.544579  0  3.210486  0  -1.328908  0  -0.422737  -0.504373  0  3.198615  0
N  N104  1  0.89209033  0.66704626  0.38867841  1  0  -0.589774  0  2.891767  0  0  -0.534025  0  3.167733  0  0  -0.558249  0  3.176114  0  -1.328397  0  -0.422885  -0.517607  0  3.161328  0
N  N105  1  0.10791687  0.33296209  0.61132053  1  0  -0.589762  0  2.892273  0  0  -0.534011  0  3.168229  0  0  -0.558226  0  3.176603  0  -1.328584  0  -0.422966  -0.517598  0  3.161828  0
