# generated using pymatgen
data_ZnH16C12(O2F)4
_symmetry_space_group_name_H-M   'P 1'
_cell_length_a   8.36608388
_cell_length_b   8.36606767
_cell_length_c   13.34319108
_cell_angle_alpha   93.25665999
_cell_angle_beta   93.25678015
_cell_angle_gamma   115.37576875
_symmetry_Int_Tables_number   1
_chemical_formula_structural   ZnH16C12(O2F)4
_chemical_formula_sum   'Zn2 H32 C24 O16 F8'
_cell_volume   839.02077075
_cell_formula_units_Z   2
loop_
 _symmetry_equiv_pos_site_id
 _symmetry_equiv_pos_as_xyz
  1  'x, y, z'
loop_
 _atom_site_type_symbol
 _atom_site_label
 _atom_site_symmetry_multiplicity
 _atom_site_fract_x
 _atom_site_fract_y
 _atom_site_fract_z
 _atom_site_occupancy
 _atom_site_hle17_bader_spin_density
 _atom_site_hle17_ddec_charge
 _atom_site_hle17_ddec_spin_density
 _atom_site_hle17_ddec_sum_bond_order
 _atom_site_hle17_magmom
 _atom_site_hse06_10hf_bader_spin_density
 _atom_site_hse06_10hf_ddec_charge
 _atom_site_hse06_10hf_ddec_spin_density
 _atom_site_hse06_10hf_ddec_sum_bond_order
 _atom_site_hse06_10hf_magmom
 _atom_site_hse06_bader_spin_density
 _atom_site_hse06_ddec_charge
 _atom_site_hse06_ddec_spin_density
 _atom_site_hse06_ddec_sum_bond_order
 _atom_site_hse06_magmom
 _atom_site_pbe_bader_spin_density
 _atom_site_pbe_cm5_charge
 _atom_site_pbe_ddec_charge
 _atom_site_pbe_ddec_spin_density
 _atom_site_pbe_ddec_sum_bond_order
 _atom_site_pbe_magmom
Zn  Zn0  1  0.02663072  0.97336218  0.74999910  1  0  1.143778  0  1.751652  0  0  0.982357  0  2.191288  0  0  1.02952  0  2.133257  0  0  0.690796  0.949115  0  2.231226  0
Zn  Zn1  1  0.97336531  0.02663393  0.25000017  1  0  1.143813  0  1.751615  0  0  0.982371  0  2.191264  0  0  1.029544  0  2.13323  0  0  0.69079  0.949133  0  2.231201  0
H  H2  1  0.34989486  0.31804624  0.73925323  1  0  0.082269  0  0.955711  0  0  0.09933  0  1.021365  0  0  0.1001  0  1.021211  0  0  0.096013  0.098637  0  1.021617  0
H  H3  1  0.68194717  0.65010314  0.76074657  1  0  0.082328  0  0.95567  0  0  0.099384  0  1.02131  0  0  0.100155  0  1.02116  0  0  0.095994  0.09869  0  1.021571  0
H  H4  1  0.65010592  0.68195259  0.26074778  1  0  0.082286  0  0.955676  0  0  0.09935  0  1.021333  0  0  0.100114  0  1.021186  0  0  0.095993  0.098654  0  1.021591  0
H  H5  1  0.31804756  0.34989558  0.23925199  1  0  0.082275  0  0.955676  0  0  0.09934  0  1.021326  0  0  0.100104  0  1.021181  0  0  0.095995  0.098644  0  1.021586  0
H  H6  1  0.47724075  0.37670111  0.85991348  1  0  0.068253  0  0.952228  0  0  0.079544  0  1.027559  0  0  0.080732  0  1.026256  0  0  0.083593  0.078524  0  1.028631  0
H  H7  1  0.62329272  0.52275393  0.64008552  1  0  0.068328  0  0.95225  0  0  0.079546  0  1.027663  0  0  0.080817  0  1.02625  0  0  0.083626  0.078606  0  1.028628  0
H  H8  1  0.52275816  0.62329899  0.14008527  1  0  0.068277  0  0.952268  0  0  0.079566  0  1.027591  0  0  0.080762  0  1.026279  0  0  0.083607  0.078545  0  1.028661  0
H  H9  1  0.37670147  0.47724347  0.35991447  1  0  0.068325  0  0.95222  0  0  0.079624  0  1.027532  0  0  0.080815  0  1.026226  0  0  0.083618  0.078605  0  1.028603  0
H  H10  1  0.30099447  0.44004192  0.83682576  1  0  0.07087  0  0.956625  0  0  0.086387  0  1.027047  0  0  0.087838  0  1.025  0  0  0.09074  0.085214  0  1.028636  0
H  H11  1  0.55995262  0.69900310  0.66317319  1  0  0.070857  0  0.956649  0  0  0.086382  0  1.027051  0  0  0.087833  0  1.025015  0  0  0.090738  0.085212  0  1.028647  0
H  H12  1  0.69900684  0.55995821  0.16317306  1  0  0.070872  0  0.956584  0  0  0.086401  0  1.026996  0  0  0.087851  0  1.024951  0  0  0.090749  0.08523  0  1.028583  0
H  H13  1  0.44004156  0.30099430  0.33682605  1  0  0.070874  0  0.956632  0  0  0.086355  0  1.027132  0  0  0.087841  0  1.025006  0  0  0.09073  0.085218  0  1.028641  0
H  H14  1  0.90411825  0.49477675  0.81994173  1  0  0.07579  0  0.931599  0  0  0.091601  0  0.995639  0  0  0.093147  0  0.993915  0  0  0.091091  0.090322  0  0.997016  0
H  H15  1  0.50522005  0.09588012  0.68005845  1  0  0.075806  0  0.931572  0  0  0.091491  0  0.995746  0  0  0.093128  0  0.993921  0  0  0.091097  0.090307  0  0.997015  0
H  H16  1  0.09587824  0.50522331  0.18005618  1  0  0.075787  0  0.931558  0  0  0.091549  0  0.995652  0  0  0.093094  0  0.993932  0  0  0.091069  0.090271  0  0.997027  0
H  H17  1  0.49477881  0.90412265  0.31994338  1  0  0.075808  0  0.931557  0  0  0.09158  0  0.995647  0  0  0.093128  0  0.993919  0  0  0.091077  0.090303  0  0.997016  0
H  H18  1  0.14133113  0.58778312  0.83081990  1  0  0.064399  0  0.959331  0  0  0.078727  0  1.030639  0  0  0.079775  0  1.029353  0  0  0.085784  0.077823  0  1.031691  0
H  H19  1  0.41221315  0.85866768  0.66918045  1  0  0.064386  0  0.959322  0  0  0.078705  0  1.030631  0  0  0.07976  0  1.029342  0  0  0.085779  0.077803  0  1.031688  0
H  H20  1  0.85866433  0.41221165  0.16917856  1  0  0.064366  0  0.959313  0  0  0.07866  0  1.030656  0  0  0.079734  0  1.029346  0  0  0.085768  0.077756  0  1.03171  0
H  H21  1  0.58778811  0.14133512  0.33082146  1  0  0.064356  0  0.959357  0  0  0.078599  0  1.030793  0  0  0.079734  0  1.029378  0  0  0.085763  0.077778  0  1.031721  0
H  H22  1  0.02501096  0.60173120  0.71750542  1  0  0.078995  0  0.955413  0  0  0.095451  0  1.024139  0  0  0.094567  0  1.026719  0  0  0.095312  0.095962  0  1.022453  0
H  H23  1  0.39826555  0.97498665  0.78249407  1  0  0.078964  0  0.955416  0  0  0.095423  0  1.024123  0  0  0.094538  0  1.026711  0  0  0.095311  0.095932  0  1.022444  0
H  H24  1  0.97498673  0.39826888  0.28249254  1  0  0.07897  0  0.955438  0  0  0.09543  0  1.024148  0  0  0.094547  0  1.026729  0  0  0.095313  0.09594  0  1.022464  0
H  H25  1  0.60173098  0.02501344  0.21750685  1  0  0.078984  0  0.955428  0  0  0.095429  0  1.024152  0  0  0.094545  0  1.026737  0  0  0.095308  0.095938  0  1.02247  0
H  H26  1  0.14757385  0.19159980  0.90492937  1  0  0.37052  0  0.91739  0  0  0.343166  0  0.989265  0  0  0.354463  0  0.977285  0  0  0.294549  0.335234  0  0.997628  0
H  H27  1  0.80839532  0.85242133  0.59507034  1  0  0.370597  0  0.917307  0  0  0.343252  0  0.989162  0  0  0.354555  0  0.97719  0  0  0.294593  0.335318  0  0.997537  0
H  H28  1  0.85242682  0.80840165  0.09507023  1  0  0.370527  0  0.917397  0  0  0.343179  0  0.98926  0  0  0.354481  0  0.97728  0  0  0.294562  0.335245  0  0.997624  0
H  H29  1  0.19159960  0.14757212  0.40492955  1  0  0.370551  0  0.917374  0  0  0.343203  0  0.989237  0  0  0.354511  0  0.977244  0  0  0.294572  0.335274  0  0.997594  0
H  H30  1  0.02631756  0.78161399  0.91086095  1  0  0.381096  0  0.909345  0  0  0.35389  0  0.980957  0  0  0.364605  0  0.969437  0  0  0.296181  0.34631  0  0.98913  0
H  H31  1  0.21838543  0.97368199  0.58913856  1  0  0.381106  0  0.909321  0  0  0.353891  0  0.980963  0  0  0.364611  0  0.969432  0  0  0.296182  0.346318  0  0.989123  0
H  H32  1  0.97368200  0.21838480  0.08913852  1  0  0.381121  0  0.909307  0  0  0.353905  0  0.980952  0  0  0.364618  0  0.969425  0  0  0.296185  0.346326  0  0.989126  0
H  H33  1  0.78161533  0.02631682  0.41086095  1  0  0.381121  0  0.909318  0  0  0.35388  0  0.980999  0  0  0.364607  0  0.969446  0  0  0.296166  0.346314  0  0.98914  0
C  C34  1  0.92952848  0.16170865  0.58330278  1  0  0.708213  0  3.85448  0  0  0.651763  0  4.160966  0  0  0.687086  0  4.150122  0  0  0.22603  0.627896  0  4.167478  0
C  C35  1  0.83829251  0.07047513  0.91669721  1  0  0.708204  0  3.854488  0  0  0.65177  0  4.160834  0  0  0.687034  0  4.150163  0  0  0.226037  0.62785  0  4.167511  0
C  C36  1  0.07048110  0.83829689  0.41669650  1  0  0.708218  0  3.85456  0  0  0.651836  0  4.160832  0  0  0.687103  0  4.150174  0  0  0.226112  0.627916  0  4.167526  0
C  C37  1  0.16171172  0.92952904  0.08330484  1  0  0.708046  0  3.854616  0  0  0.651726  0  4.160804  0  0  0.686995  0  4.150127  0  0  0.226006  0.627806  0  4.167483  0
C  C38  1  0.96444842  0.33551559  0.54036590  1  0  -0.209728  0  3.763331  0  0  -0.219033  0  4.041144  0  0  -0.223819  0  4.053641  0  0  -0.023582  -0.215919  0  4.032776  0
C  C39  1  0.66448474  0.03555734  0.95963255  1  0  -0.209882  0  3.763285  0  0  -0.219004  0  4.040739  0  0  -0.223901  0  4.053539  0  0  -0.02366  -0.21601  0  4.032687  0
C  C40  1  0.03555893  0.66448465  0.45963463  1  0  -0.209817  0  3.763238  0  0  -0.218938  0  4.040628  0  0  -0.223838  0  4.053449  0  0  -0.023591  -0.21594  0  4.032589  0
C  C41  1  0.33551825  0.96444678  0.04036647  1  0  -0.20983  0  3.763335  0  0  -0.219032  0  4.040827  0  0  -0.223934  0  4.053632  0  0  -0.023652  -0.216038  0  4.032775  0
C  C42  1  0.13794691  0.45999060  0.53072409  1  0  0.212647  0  3.783721  0  0  0.172042  0  4.092233  0  0  0.182221  0  4.099382  0  0  0.097267  0.164715  0  4.088131  0
C  C43  1  0.54001135  0.86206027  0.96927606  1  0  0.212988  0  3.783562  0  0  0.172291  0  4.092171  0  0  0.18247  0  4.0993  0  0  0.097453  0.164963  0  4.08805  0
C  C44  1  0.86205988  0.54000831  0.46927638  1  0  0.21292  0  3.783724  0  0  0.1721  0  4.092673  0  0  0.182394  0  4.099474  0  0  0.097438  0.164887  0  4.088218  0
C  C45  1  0.45999279  0.13794654  0.03072608  1  0  0.212867  0  3.783458  0  0  0.172206  0  4.092042  0  0  0.182387  0  4.099171  0  0  0.097371  0.164877  0  4.087924  0
C  C46  1  0.17239838  0.62032710  0.49062949  1  0  0.194213  0  3.786162  0  0  0.157482  0  4.092925  0  0  0.166871  0  4.100842  0  0  0.093428  0.150703  0  4.088319  0
C  C47  1  0.37967390  0.82760682  0.00937090  1  0  0.19421  0  3.786233  0  0  0.157479  0  4.093109  0  0  0.166876  0  4.100995  0  0  0.093452  0.150703  0  4.088473  0
C  C48  1  0.82760723  0.37967181  0.50937243  1  0  0.194189  0  3.78625  0  0  0.157106  0  4.09357  0  0  0.166829  0  4.10105  0  0  0.093436  0.150668  0  4.08852  0
C  C49  1  0.62032802  0.17239468  0.99063174  1  0  0.194157  0  3.786277  0  0  0.157423  0  4.093092  0  0  0.166823  0  4.100976  0  0  0.09345  0.150647  0  4.088457  0
C  C50  1  0.34480948  0.33582224  0.82079920  1  0  -0.013943  0  3.639005  0  0  -0.111631  0  3.911527  0  0  -0.10516  0  3.915949  0  0  -0.155881  -0.115797  0  3.908598  0
C  C51  1  0.66417103  0.65518571  0.67920049  1  0  -0.014119  0  3.639077  0  0  -0.111803  0  3.911642  0  0  -0.105311  0  3.916019  0  0  -0.155908  -0.11595  0  3.908648  0
C  C52  1  0.65518889  0.66417654  0.17920098  1  0  -0.013993  0  3.638983  0  0  -0.111684  0  3.911511  0  0  -0.105201  0  3.915929  0  0  -0.155864  -0.115849  0  3.908578  0
C  C53  1  0.33582437  0.34481171  0.32079955  1  0  -0.014017  0  3.639019  0  0  -0.111722  0  3.911557  0  0  -0.105224  0  3.91595  0  0  -0.155862  -0.115871  0  3.908584  0
C  C54  1  0.02561711  0.60471439  0.79967225  1  0  -0.001115  0  3.644174  0  0  -0.092679  0  3.906464  0  0  -0.086341  0  3.911463  0  0  -0.149184  -0.096836  0  3.903152  0
C  C55  1  0.39528253  0.97438121  0.70032726  1  0  -0.00106  0  3.644146  0  0  -0.092602  0  3.906529  0  0  -0.08624  0  3.911427  0  0  -0.14918  -0.096733  0  3.903121  0
C  C56  1  0.97438003  0.39528436  0.20032639  1  0  -0.001021  0  3.644151  0  0  -0.092504  0  3.906439  0  0  -0.086189  0  3.911416  0  0  -0.149155  -0.096661  0  3.903126  0
C  C57  1  0.60471696  0.02562024  0.29967380  1  0  -0.001096  0  3.64424  0  0  -0.092657  0  3.906665  0  0  -0.086286  0  3.91153  0  0  -0.149203  -0.096773  0  3.903227  0
O  O58  1  0.01388349  0.17498846  0.66706018  1  0  -0.612856  0  2.049184  0  0  -0.554241  0  2.305073  0  0  -0.581732  0  2.29295  0  0  -0.300628  -0.535011  0  2.312666  0
O  O59  1  0.82500641  0.98611611  0.83293810  1  0  -0.612844  0  2.049045  0  0  -0.554206  0  2.304918  0  0  -0.58171  0  2.292838  0  0  -0.300635  -0.53498  0  2.312527  0
O  O60  1  0.98611807  0.82500375  0.33293764  1  0  -0.61291  0  2.049061  0  0  -0.554291  0  2.304911  0  0  -0.581797  0  2.292837  0  0  -0.300686  -0.535064  0  2.312529  0
O  O61  1  0.17499010  0.01388397  0.16706207  1  0  -0.612755  0  2.049204  0  0  -0.55416  0  2.305036  0  0  -0.581653  0  2.29293  0  0  -0.30059  -0.534934  0  2.312648  0
O  O62  1  0.82105163  0.01896749  0.53203349  1  0  -0.596542  0  1.981145  0  0  -0.54231  0  2.192836  0  0  -0.567154  0  2.181885  0  0  -0.296111  -0.524959  0  2.199818  0
O  O63  1  0.98103193  0.17895308  0.96796651  1  0  -0.596482  0  1.98126  0  0  -0.542158  0  2.19283  0  0  -0.567083  0  2.182009  0  0  -0.296075  -0.524897  0  2.199943  0
O  O64  1  0.17895397  0.98103140  0.46796694  1  0  -0.596423  0  1.981324  0  0  -0.542188  0  2.192974  0  0  -0.567086  0  2.182086  0  0  -0.296081  -0.524893  0  2.200018  0
O  O65  1  0.01897044  0.82105236  0.03203402  1  0  -0.596464  0  1.981161  0  0  -0.542183  0  2.192681  0  0  -0.56711  0  2.181856  0  0  -0.296109  -0.524917  0  2.199794  0
O  O66  1  0.22233718  0.17016789  0.85394031  1  0  -0.554073  0  2.233672  0  0  -0.478277  0  2.496005  0  0  -0.50008  0  2.484758  0  0  -0.408458  -0.462962  0  2.503394  0
O  O67  1  0.82982595  0.77765806  0.64605943  1  0  -0.554051  0  2.233579  0  0  -0.478316  0  2.495957  0  0  -0.500149  0  2.484736  0  0  -0.408474  -0.462998  0  2.503363  0
O  O68  1  0.77766172  0.82983221  0.14605843  1  0  -0.554056  0  2.233642  0  0  -0.478278  0  2.495994  0  0  -0.500115  0  2.48477  0  0  -0.408483  -0.462963  0  2.503383  0
O  O69  1  0.17016888  0.22233804  0.35394055  1  0  -0.554113  0  2.233618  0  0  -0.478338  0  2.49597  0  0  -0.500168  0  2.484732  0  0  -0.408496  -0.46302  0  2.503355  0
O  O70  1  0.03540575  0.77330513  0.83611627  1  0  -0.56134  0  2.25087  0  0  -0.484101  0  2.514854  0  0  -0.50528  0  2.502624  0  0  -0.408927  -0.469176  0  2.522924  0
O  O71  1  0.22669357  0.96459178  0.66388391  1  0  -0.561397  0  2.250904  0  0  -0.484148  0  2.514863  0  0  -0.505319  0  2.502618  0  0  -0.408926  -0.469215  0  2.522919  0
O  O72  1  0.96459141  0.22669364  0.16388387  1  0  -0.561404  0  2.250917  0  0  -0.484154  0  2.514867  0  0  -0.505335  0  2.502656  0  0  -0.408914  -0.469229  0  2.522935  0
O  O73  1  0.77330656  0.03540835  0.33611637  1  0  -0.56136  0  2.250923  0  0  -0.484092  0  2.514904  0  0  -0.505265  0  2.502662  0  0  -0.408849  -0.469148  0  2.522925  0
F  F74  1  0.27697867  0.42482613  0.55814459  1  0  -0.161673  0  1.249829  0  0  -0.102725  0  1.411674  0  0  -0.111468  0  1.401893  0  0  -0.072802  -0.096482  0  1.418463  0
F  F75  1  0.57516998  0.72302853  0.94185323  1  0  -0.161809  0  1.249872  0  0  -0.102813  0  1.411723  0  0  -0.111559  0  1.401956  0  0  -0.072888  -0.096575  0  1.418528  0
F  F76  1  0.72303180  0.57517016  0.44185291  1  0  -0.161819  0  1.250026  0  0  -0.102859  0  1.411952  0  0  -0.111524  0  1.402075  0  0  -0.072887  -0.096538  0  1.418645  0
F  F77  1  0.42482999  0.27697689  0.05814797  1  0  -0.161725  0  1.249739  0  0  -0.102734  0  1.411563  0  0  -0.11148  0  1.401795  0  0  -0.072828  -0.096495  0  1.418368  0
F  F78  1  0.34382627  0.73339912  0.48010924  1  0  -0.167944  0  1.22564  0  0  -0.115911  0  1.386803  0  0  -0.125184  0  1.378094  0  0  -0.079887  -0.108826  0  1.392049  0
F  F79  1  0.26660252  0.65617791  0.01989192  1  0  -0.167982  0  1.225712  0  0  -0.115921  0  1.386857  0  0  -0.125215  0  1.378171  0  0  -0.079895  -0.108847  0  1.392119  0
F  F80  1  0.65617876  0.26659844  0.51989112  1  0  -0.167939  0  1.225669  0  0  -0.1146  0  1.385246  0  0  -0.125165  0  1.378135  0  0  -0.079884  -0.108826  0  1.392104  0
F  F81  1  0.73339698  0.34382355  0.98010988  1  0  -0.167944  0  1.225774  0  0  -0.115884  0  1.386909  0  0  -0.125191  0  1.378235  0  0  -0.079891  -0.108805  0  1.392164  0
