# generated using pymatgen
data_CuH6C8S2BrN4
_symmetry_space_group_name_H-M   'P 1'
_cell_length_a   6.73292502
_cell_length_b   10.40070002
_cell_length_c   10.40092116
_cell_angle_alpha   108.88012639
_cell_angle_beta   105.59183609
_cell_angle_gamma   105.59026911
_symmetry_Int_Tables_number   1
_chemical_formula_structural   CuH6C8S2BrN4
_chemical_formula_sum   'Cu2 H12 C16 S4 Br2 N8'
_cell_volume   611.14571794
_cell_formula_units_Z   2
loop_
 _symmetry_equiv_pos_site_id
 _symmetry_equiv_pos_as_xyz
  1  'x, y, z'
loop_
 _atom_site_type_symbol
 _atom_site_label
 _atom_site_symmetry_multiplicity
 _atom_site_fract_x
 _atom_site_fract_y
 _atom_site_fract_z
 _atom_site_occupancy
 _atom_site_pbe_bader_spin_density
 _atom_site_pbe_cm5_charge
 _atom_site_pbe_ddec_charge
 _atom_site_pbe_ddec_spin_density
 _atom_site_pbe_ddec_sum_bond_order
 _atom_site_pbe_magmom
Cu  Cu0  1  0.99999474  0.10499665  0.89500272  1  0  0.483347  0.388652  0  2.5566  0
Cu  Cu1  1  0.00001440  0.89499412  0.10502573  1  0  0.483163  0.388462  0  2.556216  0
H  H2  1  0.72596287  0.65292855  0.30237263  1  0  0.105734  0.072593  0  1.036732  0
H  H3  1  0.27403920  0.69761225  0.34706369  1  0  0.105736  0.072644  0  1.036549  0
H  H4  1  0.27408521  0.34714466  0.69766348  1  0  0.105582  0.07231  0  1.036999  0
H  H5  1  0.72588006  0.30232507  0.65282520  1  0  0.105604  0.072334  0  1.037176  0
H  H6  1  0.81802284  0.42227216  0.23447997  1  0  0.104299  0.124941  0  1.006591  0
H  H7  1  0.18202331  0.76553617  0.57772876  1  0  0.104308  0.124966  0  1.006708  0
H  H8  1  0.18168653  0.57772570  0.76542438  1  0  0.104545  0.125266  0  1.005824  0
H  H9  1  0.81833641  0.23458392  0.42227835  1  0  0.104564  0.125272  0  1.005766  0
H  H10  1  0.50346532  0.18256295  0.04278175  1  0  0.102496  0.085466  0  1.042836  0
H  H11  1  0.49652432  0.95722118  0.81743867  1  0  0.102536  0.085494  0  1.042804  0
H  H12  1  0.49655421  0.81733117  0.95718739  1  0  0.102429  0.085474  0  1.043524  0
H  H13  1  0.50347315  0.04281591  0.18269462  1  0  0.102441  0.085452  0  1.043518  0
C  C14  1  0.24251901  0.40869230  0.05136339  1  0  0.226223  0.308321  0  4.076641  0
C  C15  1  0.75745277  0.94863281  0.59130974  1  0  0.226102  0.308177  0  4.077054  0
C  C16  1  0.75761294  0.59132734  0.94868887  1  0  0.226216  0.308319  0  4.077301  0
C  C17  1  0.24236881  0.05130785  0.40866804  1  0  0.226378  0.308565  0  4.07691  0
C  C18  1  0.60181177  0.54449555  0.21908704  1  0  0.059089  0.147927  0  3.929359  0
C  C19  1  0.39819948  0.78089810  0.45550603  1  0  0.059092  0.147846  0  3.928815  0
C  C20  1  0.39817123  0.45561203  0.78095234  1  0  0.059325  0.148222  0  3.928419  0
C  C21  1  0.60180535  0.21903832  0.54438325  1  0  0.059308  0.148081  0  3.928938  0
C  C22  1  0.65178281  0.41906082  0.18364000  1  0  -0.096194  -0.200914  0  3.969924  0
C  C23  1  0.34826178  0.81635447  0.58094270  1  0  -0.096242  -0.200955  0  3.970407  0
C  C24  1  0.34806058  0.58099244  0.81633112  1  0  -0.096096  -0.200644  0  3.970153  0
C  C25  1  0.65197239  0.18368058  0.41902611  1  0  -0.096133  -0.200541  0  3.969589  0
C  C26  1  0.47952512  0.28623558  0.07724414  1  0  0.061573  0.15981  0  3.880456  0
C  C27  1  0.52044431  0.92273958  0.71377088  1  0  0.061644  0.160041  0  3.880096  0
C  C28  1  0.52038501  0.71369944  0.92271073  1  0  0.061418  0.15966  0  3.881292  0
C  C29  1  0.47960727  0.07729416  0.28632113  1  0  0.061346  0.159589  0  3.881384  0
S  S30  1  0.96920668  0.38295399  0.95420607  1  0  0.028601  -0.060112  0  2.818886  0
S  S31  1  0.03074654  0.04578117  0.61705335  1  0  0.028648  -0.060044  0  2.818839  0
S  S32  1  0.03101412  0.61707478  0.04588144  1  0  0.028498  -0.060207  0  2.817663  0
S  S33  1  0.96897597  0.95410914  0.38292392  1  0  0.028435  -0.060352  0  2.817392  0
Br  Br34  1  0.12958580  0.89103656  0.89104611  1  0  -0.290182  -0.495457  0  1.495425  0
Br  Br35  1  0.87041958  0.10895347  0.10896896  1  0  -0.290153  -0.495409  0  1.495451  0
N  N36  1  0.39744816  0.54012011  0.15235760  1  0  -0.313702  -0.299915  0  3.300053  0
N  N37  1  0.60256742  0.84763989  0.45987233  1  0  -0.313607  -0.299764  0  3.299337  0
N  N38  1  0.60260401  0.45995735  0.84768645  1  0  -0.313615  -0.300068  0  3.299347  0
N  N39  1  0.39738674  0.15230957  0.54003528  1  0  -0.313754  -0.300225  0  3.299446  0
N  N40  1  0.27355472  0.27982919  0.01222416  1  0  -0.374726  -0.284665  0  3.665465  0
N  N41  1  0.72642320  0.98777120  0.72016481  1  0  -0.374758  -0.284841  0  3.665298  0
N  N42  1  0.72643111  0.72010273  0.98776042  1  0  -0.374756  -0.284899  0  3.665031  0
N  N43  1  0.27357757  0.01224152  0.27990079  1  0  -0.37476  -0.284871  0  3.665392  0
