# generated using pymatgen
data_CoH3(C2O)3
_symmetry_space_group_name_H-M   'P 1'
_cell_length_a   6.87633225
_cell_length_b   15.17263838
_cell_length_c   15.18214628
_cell_angle_alpha   117.77426857
_cell_angle_beta   98.70053331
_cell_angle_gamma   98.67065759
_symmetry_Int_Tables_number   1
_chemical_formula_structural   CoH3(C2O)3
_chemical_formula_sum   'Co6 H18 C36 O18'
_cell_volume   1340.30887954
_cell_formula_units_Z   6
loop_
 _symmetry_equiv_pos_site_id
 _symmetry_equiv_pos_as_xyz
  1  'x, y, z'
loop_
 _atom_site_type_symbol
 _atom_site_label
 _atom_site_symmetry_multiplicity
 _atom_site_fract_x
 _atom_site_fract_y
 _atom_site_fract_z
 _atom_site_occupancy
 _atom_site_hle17_ddec_charge
 _atom_site_hle17_ddec_spin_density
 _atom_site_hle17_ddec_sum_bond_order
 _atom_site_hle17_magmom
 _atom_site_hse06_10hf_ddec_charge
 _atom_site_hse06_10hf_ddec_spin_density
 _atom_site_hse06_10hf_ddec_sum_bond_order
 _atom_site_hse06_10hf_magmom
 _atom_site_hse06_ddec_charge
 _atom_site_hse06_ddec_spin_density
 _atom_site_hse06_ddec_sum_bond_order
 _atom_site_hse06_magmom
 _atom_site_pbe_cm5_charge
 _atom_site_pbe_ddec_charge
 _atom_site_pbe_ddec_spin_density
 _atom_site_pbe_ddec_sum_bond_order
 _atom_site_pbe_magmom
Co  Co0  1  0.12059810  0.59059911  0.32024481  1  0.994741  2.783703  2.024096  2.531  1.010509  2.814878  2.39366  2.621  1.091215  2.862877  2.324745  2.708  0.617033  0.925568  2.763557  2.474349  2.529
Co  Co1  1  0.53000664  0.72950248  0.40912096  1  0.99544  2.785549  2.023579  2.531  1.011579  2.817062  2.392921  2.622  1.091999  2.864573  2.32413  2.708  0.617257  0.926583  2.76349  2.47365  2.532
Co  Co2  1  0.80040018  0.67946052  0.27053756  1  0.99528  2.787743  2.024654  2.532  1.010739  2.818367  2.394379  2.621  1.091299  2.865823  2.325502  2.708  0.617283  0.925919  2.76722  2.475046  2.533
Co  Co3  1  0.87940177  0.40939699  0.67974909  1  0.995258  2.784125  2.023814  2.532  1.010474  2.814879  2.39368  2.621  1.091178  2.862868  2.324766  2.708  0.617006  0.925581  2.76278  2.474294  2.532
Co  Co4  1  0.46999330  0.27049670  0.59087701  1  0.995169  2.785336  2.023788  2.531  1.011533  2.817046  2.393011  2.621  1.091955  2.864566  2.324218  2.708  0.617112  0.926332  2.764346  2.473769  2.53
Co  Co5  1  0.19960532  0.32054097  0.72946187  1  0.995242  2.787667  2.024569  2.532  1.010764  2.818365  2.394242  2.621  1.091336  2.865822  2.325343  2.708  0.617327  0.925957  2.767134  2.474951  2.533
H  H6  1  0.37083859  0.02294312  0.55219963  1  0.131645  -0.000862  0.938563  -0.001  0.138076  0.000231  1.002546  0.0  0.141962  8.7e-05  0.999887  0.0  0.108787  0.136055  0.000351  1.003502  0.0
H  H7  1  0.34786242  0.52943216  0.97713053  1  0.130586  -0.000863  0.938437  -0.001  0.136752  0.000231  1.002964  0.0  0.140599  8.6e-05  1.000333  0.0  0.108688  0.134774  0.000337  1.003838  0.0
H  H8  1  0.81851335  0.44767808  0.47076401  1  0.131014  -0.000865  0.938307  -0.001  0.137395  0.000229  1.002342  0.0  0.141332  8.6e-05  0.999591  0.0  0.108654  0.135229  0.000335  1.003447  0.0
H  H9  1  0.62915842  0.97705606  0.44780340  1  0.131619  -0.000862  0.938533  -0.001  0.138074  0.000231  1.002487  0.0  0.141962  8.7e-05  0.99983  0.0  0.108815  0.13606  0.000348  1.003445  0.0
H  H10  1  0.65213451  0.47056394  0.02286645  1  0.130662  -0.000877  0.938376  -0.001  0.136813  0.000231  1.002905  0.0  0.140661  8.7e-05  1.000273  0.0  0.108685  0.134828  0.00034  1.003762  0.0
H  H11  1  0.18149880  0.55232495  0.52923395  1  0.130971  -0.000859  0.938371  -0.001  0.137346  0.000229  1.002423  0.0  0.141276  8.6e-05  0.999682  0.0  0.108611  0.135182  0.000337  1.003538  0.0
H  H12  1  0.92665759  0.37172946  0.23196656  1  0.229808  -0.002347  0.91185  -0.001  0.23791  -0.001328  0.952109  0.0  0.244108  -0.00101  0.94712  0.0  0.156225  0.232913  -0.001777  0.956511  0.0
H  H13  1  0.55538554  0.86063117  0.62798093  1  0.229586  -0.002347  0.910937  -0.001  0.237971  -0.001328  0.951007  0.0  0.244158  -0.001009  0.946037  0.0  0.156206  0.232993  -0.001756  0.955512  0.0
H  H14  1  0.69545152  0.76737022  0.13958629  1  0.229963  -0.002298  0.911289  -0.001  0.237921  -0.001308  0.951862  0.0  0.24408  -0.000995  0.946953  0.0  0.156212  0.232976  -0.001738  0.956268  0.0
H  H15  1  0.07333878  0.62827434  0.76803595  1  0.229815  -0.002342  0.911893  -0.001  0.237916  -0.001327  0.952146  0.0  0.244113  -0.001009  0.947158  0.0  0.156264  0.232957  -0.001765  0.956575  0.0
H  H16  1  0.44460208  0.13935800  0.37203196  1  0.22949  -0.002346  0.911191  -0.001  0.237997  -0.001328  0.95109  0.0  0.244185  -0.001009  0.946118  0.0  0.156181  0.23296  -0.001769  0.955596  0.0
H  H17  1  0.30454138  0.23262665  0.86041012  1  0.229972  -0.002316  0.911308  -0.001  0.237933  -0.001307  0.951877  0.0  0.24409  -0.000994  0.94697  0.0  0.156229  0.233006  -0.00174  0.956269  0.0
H  H18  1  0.38953112  0.46138662  0.21640590  1  0.234002  -0.002458  0.926698  -0.001  0.237984  -0.001439  0.972447  -0.001  0.244821  -0.001241  0.966721  -0.001  0.149356  0.232573  -0.001691  0.977438  -0.001
H  H19  1  0.92800326  0.75478084  0.53825666  1  0.233857  -0.002466  0.926662  -0.001  0.238211  -0.001447  0.971881  -0.001  0.245031  -0.001246  0.966175  -0.001  0.149454  0.232821  -0.001694  0.976894  -0.001
H  H20  1  0.17400485  0.78356732  0.24536854  1  0.234176  -0.002435  0.927107  -0.001  0.238056  -0.001419  0.972799  -0.001  0.244867  -0.001229  0.967116  -0.001  0.14944  0.232696  -0.001651  0.977781  -0.001
H  H21  1  0.61045991  0.53860948  0.78358344  1  0.234005  -0.002446  0.926698  -0.001  0.238003  -0.001438  0.97241  -0.001  0.244839  -0.001241  0.966686  -0.001  0.149395  0.232613  -0.001692  0.977417  -0.001
H  H22  1  0.07199093  0.24522450  0.46174313  1  0.233814  -0.002471  0.926681  -0.001  0.238226  -0.001447  0.971809  -0.001  0.245006  -0.001247  0.966171  -0.001  0.149427  0.232809  -0.0017  0.976838  -0.001
H  H23  1  0.82598474  0.21642878  0.75463190  1  0.234203  -0.002424  0.92704  -0.001  0.238082  -0.001419  0.972731  -0.001  0.244891  -0.001229  0.96705  -0.001  0.149455  0.232736  -0.001652  0.977709  -0.001
C  C24  1  0.17803119  0.82551253  0.43857115  1  0.667612  -0.013816  3.8274  -0.009  0.629145  0.00103  4.122756  0.002  0.670498  0.000733  4.110323  0.002  0.216477  0.598017  -0.000475  4.130832  0.0
C  C25  1  0.35235230  0.61309097  0.17444367  1  0.671423  -0.013818  3.824934  -0.009  0.631832  0.001095  4.119788  0.002  0.672807  0.000766  4.107174  0.002  0.217744  0.600229  -0.000328  4.127884  0.001
C  C26  1  0.73905830  0.56109814  0.38675574  1  0.670016  -0.013576  3.827486  -0.009  0.629846  0.001094  4.123456  0.002  0.671328  0.000775  4.110947  0.002  0.216771  0.598249  -0.000254  4.131549  0.001
C  C27  1  0.82197029  0.17448973  0.56143099  1  0.667613  -0.013826  3.82712  -0.009  0.629106  0.001029  4.122528  0.002  0.67046  0.000733  4.110094  0.002  0.216428  0.597947  -0.000497  4.130611  0.0
C  C28  1  0.64764431  0.38690744  0.82555239  1  0.671522  -0.01381  3.824663  -0.009  0.631926  0.001094  4.119576  0.002  0.6729  0.000766  4.106953  0.002  0.217756  0.600279  -0.000334  4.127736  0.001
C  C29  1  0.26094983  0.43890566  0.61324230  1  0.67006  -0.01355  3.827409  -0.009  0.629845  0.001095  4.123385  0.002  0.671322  0.000776  4.110875  0.002  0.216806  0.598285  -0.000243  4.131531  0.001
C  C30  1  0.08165666  0.91290723  0.46663461  1  -0.161155  0.00944  3.739941  0.013  -0.155542  0.007989  3.993297  0.011  -0.169048  0.005257  4.019634  0.008  -0.031603  -0.145995  0.011456  3.974847  0.015
C  C31  1  0.16868117  0.55378969  0.08706150  1  -0.169196  0.00939  3.749786  0.013  -0.158944  0.008049  3.99668  0.011  -0.171033  0.005306  4.021122  0.008  -0.032105  -0.147718  0.011456  3.975982  0.015
C  C32  1  0.61472770  0.53310496  0.44608337  1  -0.167867  0.009298  3.749293  0.013  -0.157335  0.008021  3.99653  0.011  -0.171087  0.005281  4.02318  0.008  -0.032308  -0.14639  0.011251  3.976295  0.015
C  C33  1  0.91835506  0.08709195  0.53336877  1  -0.161417  0.009462  3.74  0.013  -0.155778  0.007991  3.9933  0.011  -0.169285  0.005258  4.019638  0.008  -0.031674  -0.146246  0.011461  3.974878  0.015
C  C34  1  0.83131877  0.44620949  0.91293779  1  -0.169199  0.009353  3.749677  0.013  -0.158974  0.008049  3.996613  0.011  -0.171049  0.005306  4.021037  0.008  -0.032123  -0.147745  0.011427  3.975951  0.015
C  C35  1  0.38527417  0.46689807  0.55391784  1  -0.168026  0.00931  3.749508  0.013  -0.157427  0.008021  3.996647  0.011  -0.171171  0.005281  4.02328  0.008  -0.032332  -0.146489  0.011291  3.976421  0.015
C  C36  1  0.86762736  0.89951380  0.43573432  1  0.330694  0.006573  3.834046  0.005  0.319947  0.003681  4.106994  0.003  0.333865  0.001634  4.131083  0.002  0.077019  0.311554  0.008829  4.084494  0.008
C  C37  1  0.96801405  0.53616784  0.10038738  1  0.331366  0.006469  3.83591  0.005  0.319453  0.003735  4.108363  0.003  0.332942  0.001705  4.132399  0.002  0.076837  0.31051  0.008842  4.085617  0.008
C  C38  1  0.43174197  0.56412924  0.46365736  1  0.33192  0.00599  3.833357  0.004  0.319261  0.003698  4.107247  0.003  0.333248  0.001667  4.131369  0.002  0.076433  0.31013  0.008551  4.085048  0.008
C  C39  1  0.13238436  0.10048538  0.56426840  1  0.330693  0.00655  3.834223  0.005  0.320041  0.003679  4.106985  0.003  0.333959  0.001634  4.131078  0.002  0.07708  0.311705  0.008811  4.084455  0.008
C  C40  1  0.03198806  0.46382980  0.89961001  1  0.331265  0.006509  3.835713  0.005  0.319343  0.003737  4.108201  0.003  0.332826  0.001706  4.13224  0.002  0.076753  0.310337  0.008865  4.085519  0.008
C  C41  1  0.56825363  0.43587301  0.53634240  1  0.332027  0.005986  3.833207  0.004  0.319385  0.003698  4.107  0.003  0.33337  0.001666  4.131121  0.002  0.076433  0.310249  0.008507  4.084762  0.008
C  C42  1  0.20752238  0.01254684  0.52920932  1  -0.156842  0.017787  3.680575  0.022  -0.19618  0.008115  3.945582  0.01  -0.201293  0.004432  3.967525  0.006  -0.098046  -0.189596  0.013991  3.926881  0.017
C  C43  1  0.19495440  0.51677291  0.98750022  1  -0.151842  0.017847  3.679946  0.022  -0.19258  0.008143  3.944383  0.01  -0.19808  0.004434  3.966009  0.006  -0.097937  -0.186513  0.01417  3.925361  0.017
C  C44  1  0.67820099  0.47070951  0.48333488  1  -0.154112  0.017619  3.680064  0.022  -0.193823  0.008112  3.943922  0.01  -0.198848  0.00444  3.965838  0.006  -0.097589  -0.187911  0.013973  3.925354  0.017
C  C45  1  0.79249011  0.98745387  0.47079417  1  -0.156672  0.017768  3.680503  0.022  -0.196011  0.008111  3.945515  0.01  -0.201124  0.00443  3.967463  0.006  -0.098044  -0.189422  0.01397  3.926858  0.017
C  C46  1  0.80504439  0.48322395  0.01250055  1  -0.151952  0.017903  3.680011  0.022  -0.192657  0.008143  3.944428  0.01  -0.19816  0.004433  3.966045  0.006  -0.097916  -0.186593  0.014195  3.925375  0.017
C  C47  1  0.32179973  0.52929121  0.51666452  1  -0.154002  0.017594  3.680147  0.022  -0.193725  0.008113  3.943993  0.01  -0.198748  0.004442  3.965909  0.006  -0.097582  -0.187815  0.013964  3.925449  0.017
C  C48  1  0.07214618  0.40445924  0.22817065  1  -0.174252  0.005998  3.593774  0.014  -0.186811  0.001136  3.822973  0.007  -0.187856  -0.000105  3.834946  0.005  -0.11518  -0.186355  0.007162  3.81416  0.012
C  C49  1  0.66790740  0.82391935  0.59516063  1  -0.174113  0.005923  3.590905  0.014  -0.186892  0.001205  3.819902  0.007  -0.187903  -6.4e-05  3.831875  0.005  -0.114976  -0.18649  0.007092  3.811505  0.012
C  C50  1  0.84484610  0.77139219  0.17624750  1  -0.174447  0.005666  3.593229  0.013  -0.186867  0.001043  3.822256  0.007  -0.188059  -0.000263  3.834497  0.005  -0.114948  -0.186312  0.006978  3.813555  0.012
C  C51  1  0.92785096  0.59554610  0.77183132  1  -0.174232  0.006011  3.594031  0.014  -0.186774  0.001144  3.823213  0.007  -0.187821  -9.7e-05  3.835191  0.005  -0.115114  -0.186265  0.007128  3.814451  0.012
C  C52  1  0.33209327  0.17607829  0.40485248  1  -0.174115  0.005862  3.591171  0.014  -0.187026  0.001192  3.82011  0.007  -0.188036  -7.7e-05  3.83207  0.005  -0.115115  -0.186637  0.007029  3.811652  0.012
C  C53  1  0.15514194  0.22860083  0.82375338  1  -0.174512  0.00581  3.593166  0.013  -0.186933  0.001045  3.822192  0.007  -0.188124  -0.000261  3.834435  0.005  -0.11495  -0.186363  0.006989  3.813518  0.012
C  C54  1  0.23919301  0.43665420  0.22163706  1  -0.195021  0.008548  3.610231  0.017  -0.212557  0.011718  3.847401  0.017  -0.214982  0.010731  3.86083  0.016  -0.121405  -0.209461  0.009149  3.83765  0.015
C  C55  1  0.80247241  0.78488489  0.56293488  1  -0.194983  0.008512  3.608876  0.017  -0.212669  0.01164  3.845657  0.017  -0.215098  0.010679  3.859089  0.016  -0.121456  -0.209574  0.009106  3.836222  0.015
C  C56  1  0.01846862  0.77822728  0.21523046  1  -0.195203  0.009027  3.610363  0.017  -0.212309  0.01204  3.846937  0.018  -0.214814  0.010994  3.860637  0.016  -0.121437  -0.209247  0.00948  3.837245  0.015
C  C57  1  0.76080373  0.56335037  0.77835661  1  -0.195089  0.008528  3.610441  0.017  -0.212624  0.011714  3.847597  0.017  -0.215052  0.010726  3.861032  0.016  -0.12139  -0.209487  0.009174  3.8379  0.015
C  C58  1  0.19752653  0.21511813  0.43707206  1  -0.194834  0.008565  3.608826  0.017  -0.212568  0.011649  3.845592  0.017  -0.21496  0.010688  3.85907  0.016  -0.121476  -0.209567  0.009095  3.836126  0.015
C  C59  1  0.98152204  0.22176805  0.78476838  1  -0.195182  0.008897  3.61023  0.017  -0.212287  0.01204  3.846812  0.018  -0.214798  0.010994  3.860518  0.016  -0.121408  -0.209217  0.009485  3.837154  0.015
O  O60  1  0.05964621  0.73350803  0.39493343  1  -0.665245  0.05031  2.301682  0.098  -0.636422  0.046572  2.586056  0.08  -0.677935  0.036747  2.572548  0.064  -0.316549  -0.599197  0.054133  2.596913  0.094
O  O61  1  0.32586012  0.66109822  0.26641353  1  -0.665834  0.050415  2.300824  0.098  -0.637239  0.046697  2.586038  0.08  -0.67881  0.03684  2.572693  0.065  -0.316998  -0.600213  0.054136  2.597497  0.094
O  O62  1  0.66446939  0.60499201  0.33864287  1  -0.66573  0.050512  2.301593  0.099  -0.636632  0.046779  2.586626  0.08  -0.678273  0.036845  2.573261  0.065  -0.316652  -0.599595  0.054241  2.597861  0.094
O  O63  1  0.94036186  0.26649269  0.60506581  1  -0.665216  0.050307  2.301652  0.098  -0.636353  0.046568  2.586023  0.08  -0.677856  0.036745  2.572495  0.064  -0.316533  -0.599096  0.054087  2.596818  0.094
O  O64  1  0.67414020  0.33890172  0.73358087  1  -0.665859  0.050415  2.300884  0.098  -0.637221  0.046699  2.586038  0.08  -0.678797  0.036842  2.572695  0.065  -0.316957  -0.600182  0.054118  2.597525  0.094
O  O65  1  0.33552511  0.39501102  0.66135454  1  -0.665736  0.050507  2.301632  0.099  -0.636612  0.046779  2.586619  0.08  -0.67825  0.036844  2.573246  0.065  -0.316581  -0.599588  0.054253  2.597916  0.094
O  O66  1  0.37020808  0.84289796  0.45994607  1  -0.589135  0.035188  2.075666  0.066  -0.552226  0.032122  2.330131  0.055  -0.585636  0.024364  2.31688  0.043  -0.294592  -0.527106  0.037591  2.343382  0.065
O  O67  1  0.52720021  0.61736735  0.15713173  1  -0.589799  0.035115  2.072454  0.066  -0.553265  0.032021  2.327434  0.055  -0.586609  0.024292  2.314134  0.043  -0.295216  -0.528373  0.037587  2.341092  0.065
O  O68  1  0.90970568  0.53955247  0.38255922  1  -0.588959  0.03514  2.073279  0.066  -0.552092  0.032046  2.328332  0.055  -0.585495  0.024309  2.314966  0.043  -0.294603  -0.527151  0.037593  2.341893  0.065
O  O69  1  0.62979296  0.15710045  0.54005754  1  -0.58903  0.035182  2.075564  0.066  -0.552148  0.032119  2.330062  0.055  -0.585554  0.024362  2.316802  0.043  -0.294537  -0.527015  0.037604  2.343281  0.065
O  O70  1  0.47279756  0.38263337  0.84286812  1  -0.58983  0.035108  2.072371  0.066  -0.553316  0.032021  2.327377  0.055  -0.586661  0.024292  2.314075  0.043  -0.295217  -0.528398  0.037548  2.341042  0.065
O  O71  1  0.09030764  0.46045286  0.61744385  1  -0.588987  0.035143  2.07309  0.066  -0.552102  0.032047  2.328165  0.055  -0.585505  0.024309  2.3148  0.043  -0.294659  -0.527166  0.037569  2.341769  0.065
O  O72  1  0.73426891  0.80759457  0.37351743  1  -0.646821  0.100137  2.313376  0.176  -0.634501  0.073149  2.616445  0.118  -0.690154  0.053806  2.617812  0.086  -0.347568  -0.579208  0.096414  2.611614  0.158
O  O73  1  0.92659158  0.56595134  0.19226777  1  -0.645976  0.10053  2.313936  0.176  -0.633869  0.073216  2.617364  0.118  -0.689643  0.053807  2.618918  0.086  -0.34705  -0.578319  0.096956  2.612591  0.159
O  O74  1  0.36043722  0.62626232  0.43385706  1  -0.64672  0.099649  2.31032  0.175  -0.633945  0.073138  2.61415  0.118  -0.689619  0.053798  2.61556  0.086  -0.347668  -0.579158  0.096068  2.609861  0.157
O  O75  1  0.26573583  0.19240537  0.62648386  1  -0.646725  0.100136  2.313379  0.176  -0.634459  0.073153  2.616396  0.118  -0.690115  0.053807  2.617766  0.086  -0.347614  -0.579228  0.09644  2.611597  0.158
O  O76  1  0.07340170  0.43404630  0.80772639  1  -0.645937  0.100534  2.31387  0.176  -0.633762  0.073216  2.617239  0.118  -0.689537  0.053806  2.618796  0.086  -0.346924  -0.578142  0.096875  2.612466  0.159
O  O77  1  0.63956759  0.37374071  0.56614172  1  -0.646723  0.099642  2.310162  0.175  -0.633939  0.073134  2.61396  0.118  -0.689613  0.053795  2.615368  0.086  -0.34761  -0.579068  0.096091  2.609556  0.157
