# generated using pymatgen
data_KH6C8O3
_symmetry_space_group_name_H-M   'P 1'
_cell_length_a   6.52258432
_cell_length_b   6.96342208
_cell_length_c   16.45309718
_cell_angle_alpha   90.00007550
_cell_angle_beta   95.82138999
_cell_angle_gamma   89.99978158
_symmetry_Int_Tables_number   1
_chemical_formula_structural   KH6C8O3
_chemical_formula_sum   'K4 H24 C32 O12'
_cell_volume   743.43772568
_cell_formula_units_Z   4
loop_
 _symmetry_equiv_pos_site_id
 _symmetry_equiv_pos_as_xyz
  1  'x, y, z'
loop_
 _atom_site_type_symbol
 _atom_site_label
 _atom_site_symmetry_multiplicity
 _atom_site_fract_x
 _atom_site_fract_y
 _atom_site_fract_z
 _atom_site_occupancy
 _atom_site_hle17_bader_spin_density
 _atom_site_hle17_ddec_charge
 _atom_site_hle17_ddec_spin_density
 _atom_site_hle17_ddec_sum_bond_order
 _atom_site_hle17_magmom
 _atom_site_hse06_10hf_bader_spin_density
 _atom_site_hse06_10hf_ddec_charge
 _atom_site_hse06_10hf_ddec_spin_density
 _atom_site_hse06_10hf_ddec_sum_bond_order
 _atom_site_hse06_10hf_magmom
 _atom_site_hse06_bader_spin_density
 _atom_site_hse06_ddec_charge
 _atom_site_hse06_ddec_spin_density
 _atom_site_hse06_ddec_sum_bond_order
 _atom_site_hse06_magmom
 _atom_site_pbe_bader_spin_density
 _atom_site_pbe_cm5_charge
 _atom_site_pbe_ddec_charge
 _atom_site_pbe_ddec_spin_density
 _atom_site_pbe_ddec_sum_bond_order
 _atom_site_pbe_magmom
K  K0  1  0.77994180  0.51901013  0.56954198  1  0  0.927208  0  0.503459  0  0  0.876195  0  0.696426  0  0  0.891462  0  0.673011  0  0  0.832042  0.864695  0  0.713194  0
K  K1  1  0.72006114  0.01901016  0.43045899  1  0  0.927203  0  0.50346  0  0  0.876191  0  0.696426  0  0  0.891462  0  0.673009  0  0  0.832044  0.864692  0  0.713191  0
K  K2  1  0.22005839  0.48098506  0.43045823  1  0  0.927215  0  0.503448  0  0  0.876195  0  0.696428  0  0  0.891463  0  0.673011  0  0  0.832044  0.864695  0  0.713195  0
K  K3  1  0.27994521  0.98099076  0.56954208  1  0  0.927195  0  0.50347  0  0  0.876189  0  0.696435  0  0  0.891458  0  0.673019  0  0  0.832037  0.864689  0  0.713201  0
H  H4  1  0.30503431  0.48057182  0.75631074  1  0  0.081148  0  0.931157  0  0  0.094041  0  0.995821  0  0  0.094234  0  0.996015  0  0  0.109499  0.093886  0  0.995893  0
H  H5  1  0.19496312  0.98057107  0.24368932  1  0  0.081127  0  0.931251  0  0  0.094001  0  0.995933  0  0  0.094193  0  0.99613  0  0  0.109482  0.093848  0  0.996003  0
H  H6  1  0.69496433  0.51942767  0.24368941  1  0  0.081154  0  0.93117  0  0  0.094065  0  0.99582  0  0  0.094259  0  0.996012  0  0  0.109502  0.093917  0  0.995895  0
H  H7  1  0.80503552  0.01942842  0.75631083  1  0  0.081163  0  0.931163  0  0  0.09404  0  0.995843  0  0  0.094232  0  0.996039  0  0  0.109505  0.093889  0  0.995916  0
H  H8  1  0.42557705  0.27124775  0.72033055  1  0  0.084891  0  0.942794  0  0  0.092025  0  1.014154  0  0  0.093857  0  1.01251  0  0  0.110257  0.090717  0  1.015464  0
H  H9  1  0.07442276  0.77124610  0.27966949  1  0  0.084871  0  0.942821  0  0  0.092  0  1.01419  0  0  0.093831  0  1.012547  0  0  0.110252  0.090693  0  1.015498  0
H  H10  1  0.57442468  0.72875174  0.27967034  1  0  0.084899  0  0.942783  0  0  0.092032  0  1.014151  0  0  0.093863  0  1.012508  0  0  0.110275  0.090731  0  1.015463  0
H  H11  1  0.92557588  0.22875339  0.72033005  1  0  0.084897  0  0.942812  0  0  0.092026  0  1.014173  0  0  0.093859  0  1.012529  0  0  0.110258  0.090722  0  1.015486  0
H  H12  1  0.47607992  0.35046037  0.86370454  1  0  0.104141  0  0.987728  0  0  0.1128  0  1.053965  0  0  0.114997  0  1.054887  0  0  0.099611  0.111162  0  1.05356  0
H  H13  1  0.02392574  0.85046133  0.13629700  1  0  0.104174  0  0.987597  0  0  0.112872  0  1.053744  0  0  0.115074  0  1.054656  0  0  0.09963  0.111233  0  1.053339  0
H  H14  1  0.52392181  0.64954342  0.13629696  1  0  0.104144  0  0.987671  0  0  0.112839  0  1.053834  0  0  0.115037  0  1.054747  0  0  0.099634  0.1112  0  1.053429  0
H  H15  1  0.97607907  0.14953816  0.86370279  1  0  0.104126  0  0.987747  0  0  0.112785  0  1.053956  0  0  0.114986  0  1.054876  0  0  0.099604  0.111148  0  1.05355  0
H  H16  1  0.67291970  0.35096860  0.99653812  1  0  0.08621  0  0.98542  0  0  0.097441  0  1.047171  0  0  0.099435  0  1.04728  0  0  0.096682  0.096042  0  1.047101  0
H  H17  1  0.82708808  0.85097094  0.00346263  1  0  0.086178  0  0.985468  0  0  0.097408  0  1.047222  0  0  0.099401  0  1.047334  0  0  0.096674  0.096009  0  1.047152  0
H  H18  1  0.32708203  0.64903519  0.00346338  1  0  0.086213  0  0.985428  0  0  0.097441  0  1.047184  0  0  0.099435  0  1.047295  0  0  0.096682  0.096042  0  1.047115  0
H  H19  1  0.17291365  0.14903429  0.99653765  1  0  0.0862  0  0.985398  0  0  0.09743  0  1.047153  0  0  0.099424  0  1.047264  0  0  0.096673  0.096031  0  1.047084  0
H  H20  1  0.16911292  0.65210576  0.89642289  1  0  0.085354  0  0.991028  0  0  0.095878  0  1.055325  0  0  0.097707  0  1.055825  0  0  0.095694  0.094463  0  1.055253  0
H  H21  1  0.33088891  0.15210151  0.10357656  1  0  0.085365  0  0.991028  0  0  0.095883  0  1.055316  0  0  0.097711  0  1.055819  0  0  0.095705  0.094469  0  1.055243  0
H  H22  1  0.83089034  0.34789517  0.10357623  1  0  0.085374  0  0.991019  0  0  0.0959  0  1.055306  0  0  0.097729  0  1.055806  0  0  0.095709  0.094485  0  1.055234  0
H  H23  1  0.66910820  0.84789367  0.89642353  1  0  0.085371  0  0.991031  0  0  0.095899  0  1.055313  0  0  0.097728  0  1.055813  0  0  0.095707  0.094484  0  1.055241  0
H  H24  1  0.96647498  0.65743772  0.76271721  1  0  0.114807  0  0.953358  0  0  0.123508  0  1.015658  0  0  0.128178  0  1.01247  0  0  0.110701  0.120106  0  1.018125  0
H  H25  1  0.53352124  0.15743495  0.23728175  1  0  0.114773  0  0.953432  0  0  0.123489  0  1.015711  0  0  0.128159  0  1.012524  0  0  0.110704  0.120089  0  1.018179  0
H  H26  1  0.03352675  0.34256177  0.23728186  1  0  0.114816  0  0.953378  0  0  0.123516  0  1.015676  0  0  0.128186  0  1.012488  0  0  0.110682  0.120114  0  1.018143  0
H  H27  1  0.46647432  0.84255880  0.76271767  1  0  0.114803  0  0.953341  0  0  0.123499  0  1.015653  0  0  0.12817  0  1.012465  0  0  0.110688  0.120098  0  1.01812  0
C  C28  1  0.30995321  0.47112367  0.62591836  1  0  0.678089  0  3.952954  0  0  0.634234  0  4.258288  0  0  0.666686  0  4.248592  0  0  0.173688  0.612162  0  4.264205  0
C  C29  1  0.19004888  0.97112191  0.37408189  1  0  0.678051  0  3.953002  0  0  0.634185  0  4.258357  0  0  0.666636  0  4.248663  0  0  0.173655  0.612116  0  4.264271  0
C  C30  1  0.69004852  0.52887582  0.37408192  1  0  0.678076  0  3.953013  0  0  0.634205  0  4.258377  0  0  0.666658  0  4.24868  0  0  0.173667  0.612144  0  4.264293  0
C  C31  1  0.80995284  0.02887471  0.62591778  1  0  0.678  0  3.953053  0  0  0.634129  0  4.258415  0  0  0.666582  0  4.248719  0  0  0.173645  0.612064  0  4.26433  0
C  C32  1  0.40885096  0.42730609  0.71235336  1  0  -0.06136  0  3.606985  0  0  -0.117091  0  3.869702  0  0  -0.112455  0  3.869157  0  0  -0.067961  -0.120517  0  3.870345  0
C  C33  1  0.09114823  0.92730441  0.28764674  1  0  -0.061359  0  3.607135  0  0  -0.117091  0  3.86984  0  0  -0.112456  0  3.8693  0  0  -0.067938  -0.120517  0  3.870493  0
C  C34  1  0.59114923  0.57269340  0.28764685  1  0  -0.061396  0  3.606965  0  0  -0.117159  0  3.869695  0  0  -0.112525  0  3.869152  0  0  -0.067995  -0.120624  0  3.870386  0
C  C35  1  0.90885042  0.07269652  0.71235280  1  0  -0.061368  0  3.607017  0  0  -0.117094  0  3.869736  0  0  -0.112456  0  3.869191  0  0  -0.06795  -0.120537  0  3.870411  0
C  C36  1  0.70801566  0.50443589  0.80333321  1  0  0.260406  0  3.830223  0  0  0.254283  0  4.087275  0  0  0.265334  0  4.102952  0  0  0.078632  0.246666  0  4.076542  0
C  C37  1  0.79198426  0.00443207  0.19666460  1  0  0.260299  0  3.830318  0  0  0.254113  0  4.08744  0  0  0.265157  0  4.103121  0  0  0.07858  0.246507  0  4.076703  0
C  C38  1  0.29198453  0.49556791  0.19666701  1  0  0.260399  0  3.830209  0  0  0.254254  0  4.087273  0  0  0.265304  0  4.10295  0  0  0.078646  0.246639  0  4.076534  0
C  C39  1  0.20801593  0.99556455  0.80333258  1  0  0.260305  0  3.830268  0  0  0.254184  0  4.087297  0  0  0.265235  0  4.102974  0  0  0.078608  0.246573  0  4.076562  0
C  C40  1  0.62739856  0.41782929  0.86993628  1  0  -0.204032  0  3.770169  0  0  -0.221992  0  4.018944  0  0  -0.227995  0  4.040623  0  0  -0.111567  -0.217948  0  4.00441  0
C  C41  1  0.87260279  0.91783186  0.13006546  1  0  -0.204102  0  3.770099  0  0  -0.222047  0  4.018897  0  0  -0.228046  0  4.04057  0  0  -0.111587  -0.218002  0  4.004359  0
C  C42  1  0.37259701  0.58217164  0.13006436  1  0  -0.203977  0  3.770233  0  0  -0.22194  0  4.019017  0  0  -0.227935  0  4.040687  0  0  -0.111547  -0.217894  0  4.004477  0
C  C43  1  0.12739740  0.08217481  0.86993475  1  0  -0.204001  0  3.770218  0  0  -0.22195  0  4.019009  0  0  -0.227954  0  4.040688  0  0  -0.111559  -0.217906  0  4.004474  0
C  C44  1  0.74210154  0.41862336  0.94633486  1  0  -0.078935  0  3.72864  0  0  -0.095573  0  3.971518  0  0  -0.095857  0  3.991786  0  0  -0.089204  -0.095172  0  3.957577  0
C  C45  1  0.75789980  0.91862179  0.05366323  1  0  -0.078834  0  3.728527  0  0  -0.095448  0  3.971428  0  0  -0.095733  0  3.991699  0  0  -0.089174  -0.095046  0  3.957488  0
C  C46  1  0.25790173  0.58138044  0.05366608  1  0  -0.078922  0  3.728717  0  0  -0.095582  0  3.971596  0  0  -0.095866  0  3.991866  0  0  -0.089213  -0.095181  0  3.957655  0
C  C47  1  0.24209730  0.08137914  0.94633382  1  0  -0.078884  0  3.728597  0  0  -0.095518  0  3.97146  0  0  -0.095803  0  3.991732  0  0  -0.089182  -0.095116  0  3.957519  0
C  C48  1  0.93968216  0.50089579  0.95931572  1  0  0.021556  0  3.790011  0  0  0.036053  0  4.021553  0  0  0.034903  0  4.044789  0  0  -0.021203  0.036768  0  4.005735  0
C  C49  1  0.56031931  0.00089518  0.04068701  1  0  0.021569  0  3.789904  0  0  0.035971  0  4.021586  0  0  0.034822  0  4.044822  0  0  -0.021212  0.036684  0  4.005767  0
C  C50  1  0.06031648  0.49910513  0.04068382  1  0  0.021544  0  3.790078  0  0  0.036093  0  4.021574  0  0  0.034942  0  4.044811  0  0  -0.021164  0.036806  0  4.005755  0
C  C51  1  0.43967933  0.99910574  0.95931436  1  0  0.021587  0  3.789856  0  0  0.036116  0  4.021431  0  0  0.034966  0  4.044666  0  0  -0.021155  0.03683  0  4.005612  0
C  C52  1  0.01741793  0.58524809  0.89073819  1  0  -0.094997  0  3.760296  0  0  -0.114352  0  4.011623  0  0  -0.114498  0  4.031803  0  0  -0.092994  -0.114092  0  3.998012  0
C  C53  1  0.48258108  0.08524620  0.10926050  1  0  -0.094995  0  3.760404  0  0  -0.114295  0  4.011726  0  0  -0.114442  0  4.031907  0  0  -0.092968  -0.114034  0  3.998114  0
C  C54  1  0.98258533  0.41475428  0.10926215  1  0  -0.095008  0  3.760485  0  0  -0.114374  0  4.011801  0  0  -0.114521  0  4.031983  0  0  -0.093021  -0.114114  0  3.998189  0
C  C55  1  0.51741602  0.91475473  0.89073837  1  0  -0.095056  0  3.760447  0  0  -0.114402  0  4.01176  0  0  -0.114547  0  4.031939  0  0  -0.093022  -0.114142  0  3.998152  0
C  C56  1  0.90459718  0.58790027  0.81442248  1  0  -0.196045  0  3.762116  0  0  -0.218292  0  4.022568  0  0  -0.222846  0  4.039185  0  0  -0.107855  -0.215234  0  4.011486  0
C  C57  1  0.59540240  0.08789567  0.18557901  1  0  -0.195988  0  3.762134  0  0  -0.218246  0  4.022595  0  0  -0.2228  0  4.039214  0  0  -0.107859  -0.215194  0  4.011515  0
C  C58  1  0.09539992  0.41210066  0.18557700  1  0  -0.19612  0  3.76219  0  0  -0.218368  0  4.022663  0  0  -0.222923  0  4.039281  0  0  -0.107886  -0.21531  0  4.01158  0
C  C59  1  0.40459624  0.91210238  0.81442297  1  0  -0.195996  0  3.762104  0  0  -0.218246  0  4.022552  0  0  -0.222801  0  4.03917  0  0  -0.107835  -0.215189  0  4.01147  0
O  O60  1  0.15856220  0.36424111  0.60100270  1  0  -0.751529  0  1.926602  0  0  -0.705889  0  2.165961  0  0  -0.730515  0  2.155805  0  0  -0.480882  -0.688412  0  2.172365  0
O  O61  1  0.34143878  0.86423888  0.39899683  1  0  -0.751482  0  1.926632  0  0  -0.705842  0  2.166011  0  0  -0.73047  0  2.155857  0  0  -0.480837  -0.688366  0  2.172413  0
O  O62  1  0.84143799  0.63575695  0.39899751  1  0  -0.751506  0  1.926644  0  0  -0.705858  0  2.166015  0  0  -0.730483  0  2.15586  0  0  -0.48086  -0.68838  0  2.172413  0
O  O63  1  0.65856140  0.13575917  0.60100217  1  0  -0.751481  0  1.926632  0  0  -0.705841  0  2.166017  0  0  -0.73047  0  2.155866  0  0  -0.480842  -0.688362  0  2.172416  0
O  O64  1  0.38065757  0.60795707  0.58635260  1  0  -0.759345  0  1.96431  0  0  -0.713874  0  2.206013  0  0  -0.736297  0  2.193369  0  0  -0.521353  -0.69801  0  2.214251  0
O  O65  1  0.11934290  0.10795598  0.41364737  1  0  -0.759339  0  1.964297  0  0  -0.713865  0  2.206009  0  0  -0.736289  0  2.193365  0  0  -0.521356  -0.698001  0  2.214244  0
O  O66  1  0.61934262  0.39204099  0.41364761  1  0  -0.759352  0  1.964311  0  0  -0.713874  0  2.206017  0  0  -0.736296  0  2.193373  0  0  -0.52135  -0.698008  0  2.21425  0
O  O67  1  0.88065883  0.89204208  0.58635290  1  0  -0.759289  0  1.964314  0  0  -0.713813  0  2.206018  0  0  -0.736237  0  2.193375  0  0  -0.521349  -0.697949  0  2.214251  0
O  O68  1  0.60657737  0.51833429  0.72636483  1  0  -0.29757  0  2.38205  0  0  -0.229421  0  2.62188  0  0  -0.246358  0  2.623376  0  0  -0.213787  -0.217306  0  2.620517  0
O  O69  1  0.89342095  0.01833179  0.27363657  1  0  -0.297519  0  2.382043  0  0  -0.229312  0  2.621857  0  0  -0.246245  0  2.623352  0  0  -0.213811  -0.217215  0  2.620505  0
O  O70  1  0.39342127  0.48166520  0.27363593  1  0  -0.297553  0  2.381987  0  0  -0.22938  0  2.621816  0  0  -0.246318  0  2.623314  0  0  -0.213802  -0.217257  0  2.620464  0
O  O71  1  0.10657924  0.98166770  0.72636426  1  0  -0.297561  0  2.382076  0  0  -0.229383  0  2.62188  0  0  -0.246322  0  2.623377  0  0  -0.213817  -0.217273  0  2.62053  0
