# generated using pymatgen
data_MoH7C6SNO3
_symmetry_space_group_name_H-M   'P 1'
_cell_length_a   5.48386814
_cell_length_b   8.16395315
_cell_length_c   18.18756539
_cell_angle_alpha   90.00039290
_cell_angle_beta   96.91014088
_cell_angle_gamma   90.00002314
_symmetry_Int_Tables_number   1
_chemical_formula_structural   MoH7C6SNO3
_chemical_formula_sum   'Mo4 H28 C24 S4 N4 O12'
_cell_volume   808.34335745
_cell_formula_units_Z   4
loop_
 _symmetry_equiv_pos_site_id
 _symmetry_equiv_pos_as_xyz
  1  'x, y, z'
loop_
 _atom_site_type_symbol
 _atom_site_label
 _atom_site_symmetry_multiplicity
 _atom_site_fract_x
 _atom_site_fract_y
 _atom_site_fract_z
 _atom_site_occupancy
 _atom_site_hle17_bader_spin_density
 _atom_site_hle17_ddec_charge
 _atom_site_hle17_ddec_spin_density
 _atom_site_hle17_ddec_sum_bond_order
 _atom_site_hle17_magmom
 _atom_site_hse06_10hf_bader_spin_density
 _atom_site_hse06_10hf_ddec_charge
 _atom_site_hse06_10hf_ddec_spin_density
 _atom_site_hse06_10hf_ddec_sum_bond_order
 _atom_site_hse06_10hf_magmom
 _atom_site_hse06_bader_spin_density
 _atom_site_hse06_ddec_charge
 _atom_site_hse06_ddec_spin_density
 _atom_site_hse06_ddec_sum_bond_order
 _atom_site_hse06_magmom
 _atom_site_pbe_bader_spin_density
 _atom_site_pbe_cm5_charge
 _atom_site_pbe_ddec_charge
 _atom_site_pbe_ddec_spin_density
 _atom_site_pbe_ddec_sum_bond_order
 _atom_site_pbe_magmom
Mo  Mo0  1  0.33019756  0.96130265  0.47039904  1  0  0.828583  0  3.724874  0  0  0.750063  0  4.34355  0  0  0.787205  0  4.325467  0  0  0.74153  0.72438  0  4.355883  0
Mo  Mo1  1  0.16978138  0.46130007  0.02959483  1  0  0.828457  0  3.725092  0  0  0.749917  0  4.343802  0  0  0.787077  0  4.325693  0  0  0.741509  0.724254  0  4.356123  0
Mo  Mo2  1  0.66980674  0.03868641  0.52959301  1  0  0.828477  0  3.725098  0  0  0.750125  0  4.343635  0  0  0.787318  0  4.325508  0  0  0.741605  0.724504  0  4.355918  0
Mo  Mo3  1  0.83017152  0.53868410  0.97040143  1  0  0.82865  0  3.724813  0  0  0.750268  0  4.343409  0  0  0.787449  0  4.325285  0  0  0.741597  0.724605  0  4.355753  0
H  H4  1  0.09606680  0.41700608  0.61025092  1  0  0.136712  0  0.951711  0  0  0.1532  0  1.017829  0  0  0.156157  0  1.016794  0  0  0.095041  0.151093  0  1.018611  0
H  H5  1  0.40393815  0.91698786  0.88974734  1  0  0.136567  0  0.95163  0  0  0.153063  0  1.017769  0  0  0.15602  0  1.016734  0  0  0.094986  0.150958  0  1.018549  0
H  H6  1  0.90397054  0.58300136  0.38973792  1  0  0.136674  0  0.951578  0  0  0.153171  0  1.017701  0  0  0.156128  0  1.016662  0  0  0.095064  0.151064  0  1.018481  0
H  H7  1  0.59602768  0.08299630  0.11026368  1  0  0.136648  0  0.951605  0  0  0.153156  0  1.017719  0  0  0.156112  0  1.016685  0  0  0.095052  0.151046  0  1.0185  0
H  H8  1  0.23343308  0.32653097  0.69459222  1  0  0.148767  0  0.958558  0  0  0.163718  0  1.022125  0  0  0.167028  0  1.020186  0  0  0.101015  0.16133  0  1.023543  0
H  H9  1  0.26657909  0.82651509  0.80540657  1  0  0.148775  0  0.958542  0  0  0.163699  0  1.022146  0  0  0.167007  0  1.020207  0  0  0.101034  0.161316  0  1.023552  0
H  H10  1  0.76659510  0.67349239  0.30540069  1  0  0.148857  0  0.958441  0  0  0.16379  0  1.022034  0  0  0.167102  0  1.020089  0  0  0.101043  0.161402  0  1.023448  0
H  H11  1  0.73340875  0.17349602  0.19459919  1  0  0.148864  0  0.958466  0  0  0.163796  0  1.022058  0  0  0.167107  0  1.020116  0  0  0.101047  0.161407  0  1.023472  0
H  H12  1  0.94831119  0.24857100  0.64891813  1  0  0.142076  0  0.959141  0  0  0.155426  0  1.028057  0  0  0.158773  0  1.025422  0  0  0.098398  0.153002  0  1.030002  0
H  H13  1  0.55169862  0.74854715  0.85108249  1  0  0.142048  0  0.959  0  0  0.155422  0  1.027924  0  0  0.158765  0  1.025288  0  0  0.09842  0.152992  0  1.029883  0
H  H14  1  0.05173353  0.75144256  0.35107758  1  0  0.142011  0  0.95912  0  0  0.155413  0  1.027986  0  0  0.15876  0  1.02535  0  0  0.098386  0.152985  0  1.029938  0
H  H15  1  0.44826901  0.25144069  0.14892254  1  0  0.142052  0  0.959125  0  0  0.155455  0  1.027983  0  0  0.158803  0  1.025348  0  0  0.098412  0.153022  0  1.029937  0
H  H16  1  0.51693203  0.41625046  0.29519206  1  0  0.11121  0  0.940032  0  0  0.127701  0  0.998532  0  0  0.129711  0  0.998354  0  0  0.104553  0.126277  0  0.998725  0
H  H17  1  0.98307587  0.91624049  0.20481202  1  0  0.111312  0  0.939925  0  0  0.127775  0  0.99845  0  0  0.129824  0  0.998226  0  0  0.104575  0.126332  0  0.998661  0
H  H18  1  0.48312194  0.58374963  0.70481607  1  0  0.111304  0  0.939953  0  0  0.127767  0  0.998465  0  0  0.129784  0  0.998275  0  0  0.104588  0.126324  0  0.998677  0
H  H19  1  0.01688806  0.08373877  0.79518683  1  0  0.111378  0  0.93995  0  0  0.12784  0  0.998433  0  0  0.12985  0  0.99825  0  0  0.104625  0.126396  0  0.998648  0
H  H20  1  0.35474498  0.52839509  0.35600054  1  0  0.110645  0  0.935421  0  0  0.127185  0  0.994391  0  0  0.129558  0  0.993838  0  0  0.102802  0.125529  0  0.994757  0
H  H21  1  0.14527380  0.02838444  0.14400826  1  0  0.110661  0  0.935521  0  0  0.12724  0  0.99444  0  0  0.129616  0  0.993899  0  0  0.102782  0.125578  0  0.994808  0
H  H22  1  0.64532187  0.47160990  0.64401300  1  0  0.110694  0  0.935474  0  0  0.127257  0  0.994423  0  0  0.129634  0  0.99388  0  0  0.102736  0.125596  0  0.994791  0
H  H23  1  0.85467545  0.97160830  0.85599391  1  0  0.110762  0  0.935402  0  0  0.127282  0  0.994376  0  0  0.129656  0  0.993826  0  0  0.10277  0.125626  0  0.994737  0
H  H24  1  0.97339635  0.41376036  0.29732253  1  0  0.113172  0  0.940699  0  0  0.133167  0  0.996961  0  0  0.134511  0  0.997116  0  0  0.107893  0.132126  0  0.997003  0
H  H25  1  0.52660606  0.91373424  0.20268684  1  0  0.113145  0  0.940639  0  0  0.133175  0  0.996854  0  0  0.134536  0  0.996984  0  0  0.107915  0.132126  0  0.996906  0
H  H26  1  0.02665211  0.58627403  0.70268650  1  0  0.113266  0  0.940451  0  0  0.133234  0  0.996743  0  0  0.134621  0  0.99684  0  0  0.107873  0.132188  0  0.9968  0
H  H27  1  0.47335051  0.08625727  0.79730955  1  0  0.113334  0  0.940501  0  0  0.133266  0  0.996803  0  0  0.13464  0  0.996917  0  0  0.107899  0.132216  0  0.996855  0
H  H28  1  0.13777075  0.31762733  0.23242533  1  0  0.124602  0  0.94533  0  0  0.140655  0  1.00255  0  0  0.143439  0  1.001436  0  0  0.10715  0.138632  0  1.003454  0
H  H29  1  0.36223008  0.81760357  0.26758043  1  0  0.124577  0  0.945456  0  0  0.140695  0  1.002572  0  0  0.143477  0  1.001465  0  0  0.107172  0.138667  0  1.003484  0
H  H30  1  0.86226116  0.68241318  0.76757871  1  0  0.12458  0  0.945529  0  0  0.140612  0  1.002755  0  0  0.14338  0  1.001658  0  0  0.107181  0.138597  0  1.003652  0
H  H31  1  0.63775222  0.18239652  0.73241964  1  0  0.124603  0  0.945487  0  0  0.140649  0  1.002653  0  0  0.143428  0  1.001557  0  0  0.107182  0.138627  0  1.003548  0
C  C32  1  0.26118861  0.18860929  0.59503787  1  0  0.735258  0  3.734701  0  0  0.690552  0  4.029551  0  0  0.726565  0  4.021263  0  0  0.21603  0.6662  0  4.03442  0
C  C33  1  0.23880866  0.68859736  0.90496051  1  0  0.735004  0  3.73494  0  0  0.690375  0  4.029667  0  0  0.726395  0  4.021366  0  0  0.215969  0.666027  0  4.034534  0
C  C34  1  0.73886159  0.81137487  0.40495253  1  0  0.735278  0  3.733846  0  0  0.690704  0  4.028512  0  0  0.726736  0  4.020201  0  0  0.216112  0.666349  0  4.033384  0
C  C35  1  0.76113511  0.31137455  0.09504587  1  0  0.73531  0  3.733958  0  0  0.690728  0  4.028622  0  0  0.726765  0  4.020309  0  0  0.216116  0.666372  0  4.033492  0
C  C36  1  0.44377555  0.28225115  0.39226452  1  0  0.311927  0  3.700154  0  0  0.299089  0  3.989884  0  0  0.320614  0  4.001626  0  0  0.127645  0.285015  0  3.981151  0
C  C37  1  0.05622703  0.78224319  0.10773515  1  0  0.311908  0  3.700061  0  0  0.299149  0  3.98972  0  0  0.320674  0  4.001469  0  0  0.127658  0.285077  0  3.980983  0
C  C38  1  0.55623430  0.71774772  0.60773543  1  0  0.312093  0  3.700033  0  0  0.299207  0  3.989887  0  0  0.32073  0  4.001626  0  0  0.127623  0.285131  0  3.981146  0
C  C39  1  0.94374974  0.21774587  0.89226032  1  0  0.311855  0  3.700165  0  0  0.299005  0  3.989885  0  0  0.320526  0  4.001624  0  0  0.127571  0.284932  0  3.98114  0
C  C40  1  0.09986638  0.17432739  0.33017402  1  0  0.600735  0  3.715128  0  0  0.568902  0  4.005504  0  0  0.596772  0  4.005023  0  0  0.242856  0.549929  0  4.005619  0
C  C41  1  0.40013605  0.67430584  0.16982750  1  0  0.600661  0  3.715208  0  0  0.568697  0  4.005815  0  0  0.596545  0  4.005373  0  0  0.242884  0.549782  0  4.005841  0
C  C42  1  0.90018938  0.82572292  0.66982703  1  0  0.601028  0  3.716245  0  0  0.569093  0  4.006749  0  0  0.596932  0  4.006305  0  0  0.242917  0.550184  0  4.006783  0
C  C43  1  0.59983524  0.32568200  0.83017326  1  0  0.601251  0  3.714936  0  0  0.569175  0  4.005612  0  0  0.597018  0  4.005168  0  0  0.24297  0.550249  0  4.005657  0
C  C44  1  0.12708775  0.30086773  0.64089107  1  0  -0.459783  0  3.651525  0  0  -0.536434  0  3.891066  0  0  -0.543665  0  3.890488  0  0  -0.245472  -0.531268  0  3.891372  0
C  C45  1  0.37291703  0.80085026  0.85910738  1  0  -0.459519  0  3.651233  0  0  -0.536181  0  3.890685  0  0  -0.543408  0  3.890108  0  0  -0.245414  -0.531024  0  3.891008  0
C  C46  1  0.87294779  0.69914461  0.35910486  1  0  -0.459752  0  3.651783  0  0  -0.536433  0  3.891212  0  0  -0.543663  0  3.890616  0  0  -0.245447  -0.531275  0  3.89154  0
C  C47  1  0.62705610  0.19914493  0.14089511  1  0  -0.459779  0  3.651905  0  0  -0.53647  0  3.89132  0  0  -0.543705  0  3.89073  0  0  -0.245469  -0.531305  0  3.891647  0
C  C48  1  0.37318098  0.40603874  0.33211106  1  0  -0.184207  0  3.674284  0  0  -0.22336  0  3.921583  0  0  -0.227529  0  3.931237  0  0  -0.159842  -0.220384  0  3.914619  0
C  C49  1  0.12683283  0.90602316  0.16789269  1  0  -0.184373  0  3.674428  0  0  -0.22355  0  3.921719  0  0  -0.227757  0  3.931374  0  0  -0.159875  -0.220557  0  3.914763  0
C  C50  1  0.62686563  0.59397359  0.66789516  1  0  -0.184436  0  3.674189  0  0  -0.223558  0  3.921522  0  0  -0.227739  0  3.931187  0  0  -0.159857  -0.220561  0  3.914568  0
C  C51  1  0.87313477  0.09396223  0.83210574  1  0  -0.184461  0  3.674253  0  0  -0.223568  0  3.921508  0  0  -0.227737  0  3.931168  0  0  -0.159828  -0.22058  0  3.91455  0
C  C52  1  0.13435945  0.33659654  0.29206053  1  0  -0.249264  0  3.640346  0  0  -0.290221  0  3.881789  0  0  -0.295112  0  3.890212  0  0  -0.160688  -0.286713  0  3.875936  0
C  C53  1  0.36564324  0.83657065  0.20794370  1  0  -0.249169  0  3.640336  0  0  -0.290145  0  3.881813  0  0  -0.295037  0  3.890247  0  0  -0.160719  -0.286653  0  3.875959  0
C  C54  1  0.86567613  0.66343540  0.70794364  1  0  -0.249481  0  3.640084  0  0  -0.29037  0  3.881564  0  0  -0.295268  0  3.889975  0  0  -0.160776  -0.286892  0  3.875719  0
C  C55  1  0.63432069  0.16341842  0.79205515  1  0  -0.249496  0  3.640406  0  0  -0.290298  0  3.881798  0  0  -0.295201  0  3.89022  0  0  -0.160705  -0.286794  0  3.875925  0
S  S56  1  0.30497603  0.70932725  0.54549325  1  0  -0.286741  0  2.229922  0  0  -0.293004  0  2.583617  0  0  -0.311064  0  2.586075  0  0  -0.145827  -0.281063  0  2.581818  0
S  S57  1  0.19502311  0.20932256  0.95450525  1  0  -0.286609  0  2.229684  0  0  -0.292909  0  2.583385  0  0  -0.310973  0  2.58584  0  0  -0.145773  -0.280961  0  2.581577  0
S  S58  1  0.69505405  0.29067284  0.45451292  1  0  -0.286712  0  2.229591  0  0  -0.293019  0  2.58325  0  0  -0.311081  0  2.585701  0  0  -0.145843  -0.281078  0  2.581445  0
S  S59  1  0.80495365  0.79066650  0.04548802  1  0  -0.286701  0  2.229668  0  0  -0.293031  0  2.583302  0  0  -0.311094  0  2.585756  0  0  -0.145839  -0.281093  0  2.581501  0
N  N60  1  0.28509721  0.15553920  0.39056536  1  0  -0.493697  0  3.210794  0  0  -0.436723  0  3.494223  0  0  -0.463244  0  3.509539  0  0  -0.404541  -0.418809  0  3.483341  0
N  N61  1  0.21491253  0.65552399  0.10943472  1  0  -0.493571  0  3.210633  0  0  -0.436636  0  3.49413  0  0  -0.463158  0  3.509456  0  0  -0.404469  -0.41873  0  3.4832  0
N  N62  1  0.71493101  0.84446824  0.60943635  1  0  -0.493957  0  3.210358  0  0  -0.437003  0  3.493894  0  0  -0.463522  0  3.509208  0  0  -0.404556  -0.419099  0  3.482968  0
N  N63  1  0.78506057  0.34445895  0.89056227  1  0  -0.493943  0  3.210798  0  0  -0.436908  0  3.494306  0  0  -0.463415  0  3.509607  0  0  -0.404592  -0.419004  0  3.483397  0
O  O64  1  0.13873754  0.10614024  0.54258011  1  0  -0.594477  0  2.259325  0  0  -0.531407  0  2.535739  0  0  -0.56146  0  2.533319  0  0  -0.32954  -0.510703  0  2.536645  0
O  O65  1  0.36125043  0.60613284  0.95741822  1  0  -0.594401  0  2.259567  0  0  -0.531288  0  2.535864  0  0  -0.561331  0  2.533417  0  0  -0.329503  -0.510581  0  2.536763  0
O  O66  1  0.86130171  0.89386352  0.45742254  1  0  -0.59439  0  2.258794  0  0  -0.531366  0  2.535145  0  0  -0.56141  0  2.532684  0  0  -0.329533  -0.510668  0  2.536057  0
O  O67  1  0.63869145  0.39386235  0.04257764  1  0  -0.594448  0  2.258815  0  0  -0.531466  0  2.535226  0  0  -0.561517  0  2.532762  0  0  -0.329565  -0.510768  0  2.536147  0
O  O68  1  0.50341188  0.81967587  0.39478065  1  0  -0.578175  0  2.170024  0  0  -0.52401  0  2.437071  0  0  -0.55327  0  2.4349  0  0  -0.326587  -0.503926  0  2.438091  0
O  O69  1  0.99658665  0.31967948  0.10521564  1  0  -0.578137  0  2.170032  0  0  -0.523932  0  2.437043  0  0  -0.553194  0  2.434871  0  0  -0.326551  -0.50385  0  2.438056  0
O  O70  1  0.49660897  0.18031197  0.60521584  1  0  -0.578062  0  2.170701  0  0  -0.523834  0  2.437763  0  0  -0.553088  0  2.435592  0  0  -0.326454  -0.503761  0  2.438776  0
O  O71  1  0.00338645  0.68030836  0.89478079  1  0  -0.577988  0  2.170676  0  0  -0.523809  0  2.43773  0  0  -0.553063  0  2.435547  0  0  -0.326435  -0.503732  0  2.438751  0
O  O72  1  0.93998676  0.07174846  0.31210637  1  0  -0.517482  0  1.9315  0  0  -0.474794  0  2.145082  0  0  -0.49533  0  2.140902  0  0  -0.272635  -0.460953  0  2.147949  0
O  O73  1  0.56001510  0.57172703  0.18789258  1  0  -0.517495  0  1.93155  0  0  -0.474707  0  2.145133  0  0  -0.49524  0  2.140974  0  0  -0.272667  -0.460875  0  2.147952  0
O  O74  1  0.05999918  0.92826633  0.68788723  1  0  -0.517365  0  1.93331  0  0  -0.474548  0  2.146848  0  0  -0.495063  0  2.142668  0  0  -0.272483  -0.460738  0  2.149686  0
O  O75  1  0.43995435  0.42826326  0.81210757  1  0  -0.517704  0  1.931323  0  0  -0.474874  0  2.144944  0  0  -0.495408  0  2.140782  0  0  -0.272698  -0.461052  0  2.147787  0
