# generated using pymatgen
data_MnH6(C2O3)2
_symmetry_space_group_name_H-M   'P 1'
_cell_length_a   7.14614704
_cell_length_b   7.56318016
_cell_length_c   7.56325451
_cell_angle_alpha   111.99142478
_cell_angle_beta   103.60767919
_cell_angle_gamma   103.61143781
_symmetry_Int_Tables_number   1
_chemical_formula_structural   MnH6(C2O3)2
_chemical_formula_sum   'Mn2 H12 C8 O12'
_cell_volume   343.85074846
_cell_formula_units_Z   2
loop_
 _symmetry_equiv_pos_site_id
 _symmetry_equiv_pos_as_xyz
  1  'x, y, z'
loop_
 _atom_site_type_symbol
 _atom_site_label
 _atom_site_symmetry_multiplicity
 _atom_site_fract_x
 _atom_site_fract_y
 _atom_site_fract_z
 _atom_site_occupancy
 _atom_site_hle17_ddec_charge
 _atom_site_hle17_ddec_spin_density
 _atom_site_hle17_ddec_sum_bond_order
 _atom_site_hle17_magmom
 _atom_site_hse06_10hf_ddec_charge
 _atom_site_hse06_10hf_ddec_spin_density
 _atom_site_hse06_10hf_ddec_sum_bond_order
 _atom_site_hse06_10hf_magmom
 _atom_site_hse06_ddec_charge
 _atom_site_hse06_ddec_spin_density
 _atom_site_hse06_ddec_sum_bond_order
 _atom_site_hse06_magmom
 _atom_site_pbe_cm5_charge
 _atom_site_pbe_ddec_charge
 _atom_site_pbe_ddec_spin_density
 _atom_site_pbe_ddec_sum_bond_order
 _atom_site_pbe_magmom
Mn  Mn0  1  0.75801924  0.85666795  0.15086048  1  1.297153  4.806097  1.614069  4.697  1.14326  4.733907  2.101253  4.561  1.199209  4.773238  2.02816  4.619  0.602631  1.10084  4.691915  2.154276  4.503
Mn  Mn1  1  0.25803467  0.15086107  0.85666335  1  1.297082  4.806048  1.614213  4.697  1.143216  4.733858  2.10136  4.561  1.199166  4.773188  2.028262  4.619  0.602593  1.100789  4.691867  2.154382  4.503
H  H2  1  0.95789686  0.54473880  0.28519000  1  0.126831  -0.000668  0.955929  0.0  0.136612  -5.9e-05  1.012338  0.0  0.140626  -0.000274  1.009844  0.0  0.11778  0.133577  0.000206  1.014577  0.0
H  H3  1  0.45789550  0.28519408  0.54475918  1  0.126893  -0.000676  0.955583  0.0  0.136591  -5.9e-05  1.012095  0.0  0.140607  -0.000275  1.009601  0.0  0.117804  0.133554  0.000206  1.014336  0.0
H  H4  1  0.04578312  0.54693523  0.60498175  1  0.115873  -0.00017  0.961609  0.0  0.124666  -3.4e-05  1.023138  0.0  0.129038  -0.000182  1.020612  0.0  0.106379  0.121269  0.000139  1.025559  0.0
H  H5  1  0.54577909  0.60498379  0.54694101  1  0.115716  -0.000183  0.961598  0.0  0.124562  -3.4e-05  1.02311  0.0  0.128927  -0.000182  1.020592  0.0  0.106334  0.121188  0.000139  1.025505  0.0
H  H6  1  0.38348831  0.58006944  0.82270507  1  0.431889  -0.000552  0.868272  0.001  0.399637  9.3e-05  0.933468  0.002  0.410713  -0.000209  0.917617  0.002  0.297885  0.391919  0.000378  0.94445  0.002
H  H7  1  0.88349767  0.82270235  0.58008015  1  0.431899  -0.000554  0.86829  0.001  0.399628  9.3e-05  0.933503  0.002  0.410704  -0.000209  0.917654  0.002  0.297927  0.391914  0.000378  0.944483  0.002
H  H8  1  0.39816919  0.81443993  0.94257815  1  0.409192  -0.000358  0.904078  0.0  0.376008  0.000405  0.974613  0.001  0.388104  0.000128  0.957065  0.001  0.295782  0.367439  0.00066  0.986995  0.001
H  H9  1  0.89817638  0.94256429  0.81444366  1  0.409232  -0.000355  0.903999  0.0  0.376074  0.000405  0.974509  0.001  0.388169  0.000128  0.956963  0.001  0.29582  0.367506  0.00066  0.986892  0.001
H  H10  1  0.96700222  0.56705069  0.97835552  1  0.44285  0.000264  0.821846  0.002  0.41538  0.001122  0.885739  0.002  0.425212  0.000689  0.871282  0.002  0.313697  0.408349  0.001556  0.896063  0.003
H  H11  1  0.46699965  0.97835316  0.56704368  1  0.442823  0.000267  0.82187  0.002  0.415327  0.001123  0.885821  0.002  0.42516  0.000689  0.871363  0.002  0.313629  0.408297  0.001556  0.896145  0.003
H  H12  1  0.95824096  0.71746078  0.87779638  1  0.427282  -0.000456  0.858309  0.001  0.398052  0.000262  0.925582  0.001  0.408199  -7.8e-05  0.910576  0.001  0.30346  0.390757  0.000594  0.936359  0.002
H  H13  1  0.45825660  0.87780758  0.71746828  1  0.427312  -0.000459  0.858207  0.001  0.39806  0.000263  0.925565  0.001  0.408211  -7.8e-05  0.910552  0.001  0.303437  0.390764  0.000595  0.936345  0.002
C  C14  1  0.95973291  0.25045316  0.09230783  1  0.715685  0.007176  3.865335  0.007  0.666233  0.013434  4.157008  0.012  0.702012  0.009948  4.147828  0.009  0.228641  0.64151  0.017286  4.162427  0.015
C  C15  1  0.45971300  0.09230009  0.25044353  1  0.715516  0.007189  3.865168  0.007  0.666051  0.013437  4.156879  0.012  0.701833  0.00995  4.147703  0.009  0.228552  0.641327  0.01729  4.162289  0.015
C  C16  1  0.97358302  0.40657369  0.29012109  1  -0.150004  0.009322  3.650313  0.008  -0.172525  0.010543  3.91078  0.008  -0.175039  0.008257  3.923408  0.007  -0.077213  -0.171906  0.015148  3.903518  0.011
C  C17  1  0.47356004  0.29013770  0.40657132  1  -0.15002  0.009278  3.64974  0.008  -0.172438  0.010549  3.910225  0.008  -0.174944  0.008267  3.922833  0.007  -0.077185  -0.171827  0.015156  3.90299  0.011
C  C18  1  0.02585979  0.40857724  0.47343358  1  -0.192122  -0.007256  3.677231  -0.004  -0.211818  -0.002448  3.938801  -0.001  -0.219035  -0.004706  3.95324  -0.002  -0.091634  -0.207599  -0.000777  3.930664  -0.001
C  C19  1  0.52585846  0.47345255  0.40856862  1  -0.191967  -0.00715  3.677838  -0.004  -0.211711  -0.002454  3.939371  -0.001  -0.218927  -0.004715  3.953817  -0.002  -0.091544  -0.207505  -0.000781  3.931219  -0.001
C  C20  1  0.09108521  0.25666713  0.52434014  1  0.709316  0.009856  3.871662  0.01  0.658223  0.017391  4.164111  0.015  0.694992  0.013151  4.154573  0.012  0.226633  0.632289  0.022387  4.170464  0.019
C  C21  1  0.59108448  0.52436711  0.25669712  1  0.709367  0.009851  3.8721  0.01  0.658212  0.017384  4.164598  0.015  0.69498  0.013144  4.155055  0.012  0.226528  0.632281  0.022377  4.170955  0.019
O  O22  1  0.06479496  0.31919414  0.00236713  1  -0.656787  0.025357  1.963438  0.016  -0.598057  0.033677  2.207606  0.021  -0.62782  0.029506  2.194339  0.018  -0.300907  -0.576235  0.038071  2.216119  0.025
O  O23  1  0.56477860  0.00236583  0.31921026  1  -0.65667  0.02535  1.963229  0.016  -0.597985  0.03368  2.207482  0.021  -0.627754  0.02951  2.194221  0.018  -0.30083  -0.57616  0.038075  2.215989  0.025
O  O24  1  0.84564204  0.06235425  0.01773430  1  -0.668214  0.02823  2.068191  0.017  -0.590648  0.036087  2.314019  0.023  -0.622783  0.03219  2.300522  0.019  -0.297935  -0.567543  0.040026  2.322688  0.026
O  O25  1  0.34562817  0.01773953  0.06235275  1  -0.668132  0.028219  2.068115  0.017  -0.590595  0.03608  2.314081  0.023  -0.622725  0.032183  2.300569  0.019  -0.297941  -0.567506  0.040018  2.322763  0.026
O  O26  1  0.02692483  0.06853657  0.40261094  1  -0.642153  0.035739  2.043722  0.023  -0.579689  0.044587  2.31086  0.028  -0.609517  0.038884  2.295439  0.023  -0.297284  -0.557822  0.050577  2.321044  0.033
O  O27  1  0.52692651  0.40265097  0.06855789  1  -0.642195  0.035748  2.043306  0.023  -0.579678  0.044589  2.310379  0.028  -0.609508  0.038882  2.29495  0.023  -0.297224  -0.557808  0.050579  2.320564  0.033
O  O28  1  0.22813959  0.33296287  0.70480820  1  -0.677041  0.033936  2.091122  0.02  -0.598302  0.039373  2.34271  0.022  -0.63104  0.035139  2.327855  0.018  -0.305103  -0.574281  0.043366  2.352427  0.025
O  O29  1  0.72813856  0.70482221  0.33298240  1  -0.677098  0.033918  2.091336  0.02  -0.598237  0.039358  2.342811  0.022  -0.63097  0.035128  2.327948  0.018  -0.305094  -0.574232  0.043352  2.35255  0.025
O  O30  1  0.47409981  0.72670003  0.87950328  1  -0.86077  0.028162  1.913289  0.015  -0.794775  0.035887  2.125212  0.02  -0.820313  0.032331  2.087576  0.017  -0.56358  -0.775505  0.039162  2.151159  0.022
O  O31  1  0.97410894  0.87949554  0.72670149  1  -0.860843  0.028164  1.913385  0.015  -0.794824  0.035892  2.12525  0.02  -0.820359  0.032335  2.087613  0.017  -0.563667  -0.775556  0.039166  2.151192  0.022
O  O32  1  0.90255034  0.66388203  0.96233957  1  -0.828948  0.025327  1.838477  0.013  -0.772275  0.035802  2.039652  0.02  -0.792583  0.032015  2.003345  0.017  -0.559234  -0.757063  0.039332  2.065265  0.023
O  O33  1  0.40256063  0.96234807  0.66388877  1  -0.828948  0.025334  1.838469  0.013  -0.772231  0.035807  2.039711  0.02  -0.792543  0.03202  2.003402  0.017  -0.559138  -0.75702  0.039337  2.065324  0.023
