# generated using pymatgen
data_CdH28C28(N4Cl)2
_symmetry_space_group_name_H-M   'P 1'
_cell_length_a   7.68691889
_cell_length_b   12.67843323
_cell_length_c   14.46281557
_cell_angle_alpha   89.99994885
_cell_angle_beta   104.96811267
_cell_angle_gamma   90.00005815
_symmetry_Int_Tables_number   1
_chemical_formula_structural   CdH28C28(N4Cl)2
_chemical_formula_sum   'Cd2 H56 C56 N16 Cl4'
_cell_volume   1361.69299798
_cell_formula_units_Z   2
loop_
 _symmetry_equiv_pos_site_id
 _symmetry_equiv_pos_as_xyz
  1  'x, y, z'
loop_
 _atom_site_type_symbol
 _atom_site_label
 _atom_site_symmetry_multiplicity
 _atom_site_fract_x
 _atom_site_fract_y
 _atom_site_fract_z
 _atom_site_occupancy
 _atom_site_hle17_bader_spin_density
 _atom_site_hle17_ddec_charge
 _atom_site_hle17_ddec_spin_density
 _atom_site_hle17_ddec_sum_bond_order
 _atom_site_hle17_magmom
 _atom_site_hse06_10hf_bader_spin_density
 _atom_site_hse06_10hf_ddec_charge
 _atom_site_hse06_10hf_ddec_spin_density
 _atom_site_hse06_10hf_ddec_sum_bond_order
 _atom_site_hse06_10hf_magmom
 _atom_site_hse06_bader_spin_density
 _atom_site_hse06_ddec_charge
 _atom_site_hse06_ddec_spin_density
 _atom_site_hse06_ddec_sum_bond_order
 _atom_site_hse06_magmom
 _atom_site_pbe_bader_spin_density
 _atom_site_pbe_cm5_charge
 _atom_site_pbe_ddec_charge
 _atom_site_pbe_ddec_spin_density
 _atom_site_pbe_ddec_sum_bond_order
 _atom_site_pbe_magmom
Cd  Cd0  1  0.99999825  0.50000007  0.99999982  1  0  0.972936  0  1.960203  0  0  0.788518  0  2.417643  0  0  0.833756  0  2.379969  0  0  0.677873  0.756925  0  2.442915  0
Cd  Cd1  1  0.00000012  0.99999822  0.49999877  1  0  0.972944  0  1.960213  0  0  0.788516  0  2.417663  0  0  0.833757  0  2.379986  0  0  0.677881  0.756926  0  2.442916  0
H  H2  1  0.45655259  0.59492062  0.06235687  1  0  0.108826  0  0.978095  0  0  0.114147  0  1.044903  0  0  0.117105  0  1.042882  0  0  0.102375  0.111935  0  1.046505  0
H  H3  1  0.54344057  0.09492177  0.43764173  1  0  0.10879  0  0.978088  0  0  0.114112  0  1.04491  0  0  0.117071  0  1.042889  0  0  0.102385  0.11193  0  1.046488  0
H  H4  1  0.54344598  0.40507734  0.93764487  1  0  0.108833  0  0.978043  0  0  0.114158  0  1.044846  0  0  0.117117  0  1.042824  0  0  0.102409  0.111955  0  1.046443  0
H  H5  1  0.45655673  0.90507620  0.56235499  1  0  0.108832  0  0.978008  0  0  0.114148  0  1.044827  0  0  0.117107  0  1.042803  0  0  0.102393  0.111929  0  1.046442  0
H  H6  1  0.08249374  0.59790817  0.23086010  1  0  0.088387  0  0.948455  0  0  0.095573  0  1.018822  0  0  0.097793  0  1.016312  0  0  0.129811  0.09384  0  1.02074  0
H  H7  1  0.91750482  0.09791209  0.26913857  1  0  0.088372  0  0.94836  0  0  0.095515  0  1.018781  0  0  0.097782  0  1.016221  0  0  0.129804  0.093808  0  1.020669  0
H  H8  1  0.91750485  0.40208980  0.76914026  1  0  0.088375  0  0.948418  0  0  0.095544  0  1.018806  0  0  0.09778  0  1.01628  0  0  0.1298  0.093828  0  1.020705  0
H  H9  1  0.08250054  0.90209140  0.73086068  1  0  0.088394  0  0.948439  0  0  0.095559  0  1.01883  0  0  0.097795  0  1.016306  0  0  0.129813  0.093844  0  1.020725  0
H  H10  1  0.62348824  0.67389643  0.24179008  1  0  0.110347  0  0.968299  0  0  0.123977  0  1.026039  0  0  0.126372  0  1.024931  0  0  0.119006  0.122208  0  1.026957  0
H  H11  1  0.37650772  0.17390160  0.25820886  1  0  0.110416  0  0.968152  0  0  0.124036  0  1.025902  0  0  0.126431  0  1.024799  0  0  0.119034  0.122255  0  1.026837  0
H  H12  1  0.37651033  0.32609917  0.75821166  1  0  0.110442  0  0.968142  0  0  0.124076  0  1.025871  0  0  0.126469  0  1.024771  0  0  0.119045  0.122286  0  1.026809  0
H  H13  1  0.62349223  0.82609952  0.74179031  1  0  0.110391  0  0.968204  0  0  0.124024  0  1.025936  0  0  0.126418  0  1.024835  0  0  0.119017  0.122234  0  1.026888  0
H  H14  1  0.26077849  0.70618967  0.37441691  1  0  0.087127  0  0.932466  0  0  0.101363  0  0.997941  0  0  0.1014  0  0.999313  0  0  0.113342  0.10127  0  0.997092  0
H  H15  1  0.73922020  0.20619283  0.12558308  1  0  0.087163  0  0.932444  0  0  0.101435  0  0.997875  0  0  0.101473  0  0.999247  0  0  0.113356  0.10134  0  0.997028  0
H  H16  1  0.73922142  0.29380829  0.62558502  1  0  0.087132  0  0.932473  0  0  0.101375  0  0.997927  0  0  0.101411  0  0.9993  0  0  0.113328  0.101284  0  0.997081  0
H  H17  1  0.26078244  0.79380987  0.87441716  1  0  0.087162  0  0.932489  0  0  0.101438  0  0.997913  0  0  0.101474  0  0.999284  0  0  0.113363  0.101344  0  0.997066  0
H  H18  1  0.48858037  0.73824969  0.38344404  1  0  0.093142  0  0.922504  0  0  0.106113  0  0.988  0  0  0.107844  0  0.985789  0  0  0.109943  0.104759  0  0.989702  0
H  H19  1  0.51141704  0.23825115  0.11655366  1  0  0.093192  0  0.922526  0  0  0.10617  0  0.988007  0  0  0.107899  0  0.985797  0  0  0.109978  0.104814  0  0.989712  0
H  H20  1  0.51141956  0.26174906  0.61655651  1  0  0.093169  0  0.922454  0  0  0.106127  0  0.98796  0  0  0.10787  0  0.985736  0  0  0.109953  0.104777  0  0.989662  0
H  H21  1  0.48858427  0.76174840  0.88344501  1  0  0.093213  0  0.922504  0  0  0.106199  0  0.987972  0  0  0.107927  0  0.985761  0  0  0.109989  0.104848  0  0.989676  0
H  H22  1  0.30940926  0.46136056  0.33692813  1  0  0.079078  0  0.988375  0  0  0.087058  0  1.057335  0  0  0.089034  0  1.057528  0  0  0.091349  0.085609  0  1.057297  0
H  H23  1  0.69059517  0.96136103  0.16307246  1  0  0.079036  0  0.988332  0  0  0.086993  0  1.057325  0  0  0.088966  0  1.057518  0  0  0.091334  0.085545  0  1.057287  0
H  H24  1  0.69059065  0.53863899  0.66307449  1  0  0.079059  0  0.98836  0  0  0.087025  0  1.057342  0  0  0.089  0  1.057533  0  0  0.091329  0.085574  0  1.057306  0
H  H25  1  0.30941018  0.03863851  0.83692678  1  0  0.079059  0  0.98839  0  0  0.087046  0  1.057346  0  0  0.089022  0  1.05754  0  0  0.091336  0.085595  0  1.057308  0
H  H26  1  0.60093116  0.68334223  0.54585670  1  0  0.09481  0  0.987484  0  0  0.103633  0  1.053188  0  0  0.106162  0  1.052546  0  0  0.087359  0.101746  0  1.053813  0
H  H27  1  0.39906581  0.18334169  0.95414529  1  0  0.0948  0  0.987521  0  0  0.103647  0  1.053193  0  0  0.106173  0  1.052552  0  0  0.087385  0.10176  0  1.053815  0
H  H28  1  0.39906739  0.31665810  0.45414642  1  0  0.094837  0  0.987535  0  0  0.103652  0  1.053243  0  0  0.106182  0  1.052605  0  0  0.087379  0.101765  0  1.053866  0
H  H29  1  0.60093685  0.81665864  0.04585357  1  0  0.094792  0  0.987605  0  0  0.103656  0  1.053254  0  0  0.106186  0  1.052614  0  0  0.087363  0.10177  0  1.053876  0
H  H30  1  0.81239122  0.69663795  0.84217712  1  0  0.098474  0  0.971942  0  0  0.105826  0  1.037578  0  0  0.108819  0  1.035532  0  0  0.106006  0.103629  0  1.039148  0
H  H31  1  0.18760312  0.19663364  0.65782172  1  0  0.098428  0  0.971977  0  0  0.10578  0  1.037623  0  0  0.108771  0  1.03558  0  0  0.106003  0.103582  0  1.039188  0
H  H32  1  0.18760199  0.30336396  0.15782248  1  0  0.098404  0  0.971978  0  0  0.105763  0  1.037614  0  0  0.108753  0  1.035574  0  0  0.106016  0.103576  0  1.03917  0
H  H33  1  0.81239551  0.80336275  0.34217588  1  0  0.098455  0  0.971922  0  0  0.105799  0  1.037586  0  0  0.108792  0  1.035537  0  0  0.106012  0.103601  0  1.039152  0
H  H34  1  0.90279346  0.73261649  0.66715833  1  0  0.121946  0  0.983749  0  0  0.127116  0  1.052703  0  0  0.130713  0  1.050274  0  0  0.109307  0.124464  0  1.054609  0
H  H35  1  0.09720363  0.23261037  0.83284086  1  0  0.121981  0  0.983715  0  0  0.127128  0  1.052711  0  0  0.130726  0  1.05028  0  0  0.109324  0.124474  0  1.054612  0
H  H36  1  0.09720376  0.26738621  0.33284321  1  0  0.121987  0  0.983714  0  0  0.127158  0  1.052663  0  0  0.130755  0  1.050232  0  0  0.10934  0.124503  0  1.054571  0
H  H37  1  0.90279503  0.76738681  0.16715536  1  0  0.121977  0  0.983711  0  0  0.127134  0  1.052682  0  0  0.130731  0  1.05025  0  0  0.109338  0.124481  0  1.054588  0
H  H38  1  0.28600158  0.52944047  0.84517344  1  0  0.093131  0  0.963556  0  0  0.0974  0  1.038093  0  0  0.099882  0  1.035291  0  0  0.125868  0.095571  0  1.040064  0
H  H39  1  0.71399522  0.02943491  0.65482588  1  0  0.093172  0  0.963486  0  0  0.097376  0  1.038098  0  0  0.099857  0  1.035298  0  0  0.125846  0.09555  0  1.040068  0
H  H40  1  0.71399565  0.47056302  0.15482742  1  0  0.093173  0  0.963467  0  0  0.09738  0  1.038069  0  0  0.099862  0  1.035271  0  0  0.125851  0.095553  0  1.04004  0
H  H41  1  0.28600608  0.97056069  0.34517348  1  0  0.093142  0  0.963498  0  0  0.097384  0  1.038069  0  0  0.099866  0  1.035269  0  0  0.125861  0.095554  0  1.040041  0
H  H42  1  0.24316046  0.69973448  0.63591686  1  0  0.087412  0  0.949596  0  0  0.099227  0  1.016957  0  0  0.099631  0  1.017791  0  0  0.111726  0.098819  0  1.016545  0
H  H43  1  0.75683659  0.19972873  0.86408167  1  0  0.087457  0  0.949693  0  0  0.099264  0  1.017014  0  0  0.099672  0  1.017839  0  0  0.111769  0.098849  0  1.016602  0
H  H44  1  0.75683676  0.30027059  0.36408469  1  0  0.087478  0  0.949616  0  0  0.099276  0  1.016966  0  0  0.099683  0  1.017794  0  0  0.111766  0.098866  0  1.016556  0
H  H45  1  0.24316339  0.80026924  0.13591612  1  0  0.087451  0  0.949609  0  0  0.099252  0  1.016976  0  0  0.099658  0  1.017807  0  0  0.111756  0.098844  0  1.016561  0
H  H46  1  0.34591526  0.58214266  0.69066593  1  0  0.085546  0  0.92347  0  0  0.100633  0  0.986487  0  0  0.101452  0  0.986314  0  0  0.113547  0.099961  0  0.986726  0
H  H47  1  0.65408564  0.08213533  0.80933462  1  0  0.085578  0  0.923469  0  0  0.100663  0  0.986436  0  0  0.101482  0  0.986264  0  0  0.113521  0.099988  0  0.986675  0
H  H48  1  0.65408600  0.41786398  0.30933619  1  0  0.085543  0  0.923477  0  0  0.100628  0  0.98647  0  0  0.101446  0  0.986296  0  0  0.113534  0.099952  0  0.986707  0
H  H49  1  0.34591567  0.91786342  0.19066474  1  0  0.085528  0  0.923473  0  0  0.100615  0  0.986473  0  0  0.101431  0  0.9863  0  0  0.113529  0.099943  0  0.986707  0
H  H50  1  0.15076843  0.40948722  0.65167012  1  0  0.074588  0  0.972155  0  0  0.085082  0  1.040529  0  0  0.087039  0  1.040172  0  0  0.093275  0.083623  0  1.040898  0
H  H51  1  0.84923155  0.90948287  0.84833143  1  0  0.074582  0  0.972244  0  0  0.085074  0  1.040613  0  0  0.087029  0  1.040258  0  0  0.093256  0.083615  0  1.040988  0
H  H52  1  0.84923283  0.59051785  0.34833200  1  0  0.074576  0  0.972279  0  0  0.08507  0  1.040647  0  0  0.087022  0  1.040296  0  0  0.09326  0.083613  0  1.041017  0
H  H53  1  0.15076975  0.09051667  0.15166793  1  0  0.074613  0  0.972198  0  0  0.085109  0  1.040562  0  0  0.087063  0  1.040208  0  0  0.093262  0.083647  0  1.040936  0
H  H54  1  0.03254379  0.69418254  0.48499598  1  0  0.098378  0  0.959249  0  0  0.106541  0  1.026295  0  0  0.109347  0  1.02497  0  0  0.097513  0.104458  0  1.027395  0
H  H55  1  0.96745352  0.19417965  0.01500452  1  0  0.098382  0  0.959197  0  0  0.106526  0  1.026264  0  0  0.109354  0  1.024916  0  0  0.097513  0.104441  0  1.027362  0
H  H56  1  0.96745748  0.30582174  0.51500545  1  0  0.098349  0  0.959131  0  0  0.106452  0  1.026262  0  0  0.109277  0  1.024915  0  0  0.097493  0.104367  0  1.027361  0
H  H57  1  0.03254508  0.80581911  0.98499515  1  0  0.09834  0  0.959215  0  0  0.106484  0  1.026288  0  0  0.109301  0  1.024952  0  0  0.097497  0.104401  0  1.027391  0
C  C58  1  0.40189114  0.60605917  0.12378374  1  0  0.000967  0  3.760756  0  0  -0.031545  0  4.028351  0  0  -0.029079  0  4.046948  0  0  -0.008967  -0.033165  0  4.015885  0
C  C59  1  0.59810614  0.10606357  0.37621128  1  0  0.001034  0  3.761074  0  0  -0.031481  0  4.028666  0  0  -0.029014  0  4.047261  0  0  -0.008977  -0.033132  0  4.016185  0
C  C60  1  0.59810746  0.39393722  0.87621593  1  0  0.001029  0  3.760814  0  0  -0.031489  0  4.028417  0  0  -0.029021  0  4.047012  0  0  -0.008962  -0.033119  0  4.015942  0
C  C61  1  0.40189388  0.89393676  0.62378375  1  0  0.001018  0  3.760786  0  0  -0.031485  0  4.028371  0  0  -0.029016  0  4.046965  0  0  -0.008964  -0.0331  0  4.015907  0
C  C62  1  0.20528424  0.60668454  0.20794869  1  0  0.155384  0  3.684951  0  0  0.095236  0  3.957096  0  0  0.109121  0  3.969177  0  0  0.134509  0.086334  0  3.948667  0
C  C63  1  0.79471298  0.10668757  0.29204979  1  0  0.155371  0  3.685  0  0  0.095264  0  3.957144  0  0  0.109107  0  3.96921  0  0  0.134488  0.086348  0  3.948705  0
C  C64  1  0.79471435  0.39331342  0.79205167  1  0  0.15533  0  3.685025  0  0  0.095193  0  3.957176  0  0  0.109063  0  3.969254  0  0  0.134491  0.086278  0  3.94874  0
C  C65  1  0.20528832  0.89331355  0.70794957  1  0  0.155365  0  3.684984  0  0  0.09523  0  3.957133  0  0  0.1091  0  3.96921  0  0  0.1345  0.086318  0  3.94869  0
C  C66  1  0.48776958  0.64509474  0.21277175  1  0  -0.086242  0  3.686713  0  0  -0.125989  0  3.945294  0  0  -0.124945  0  3.964067  0  0  -0.008759  -0.126603  0  3.932699  0
C  C67  1  0.51223305  0.14509523  0.28722953  1  0  -0.086315  0  3.687002  0  0  -0.12606  0  3.945592  0  0  -0.125019  0  3.964363  0  0  -0.00877  -0.126665  0  3.933018  0
C  C68  1  0.51223034  0.35490402  0.78723018  1  0  -0.086423  0  3.686705  0  0  -0.12618  0  3.94528  0  0  -0.125141  0  3.964052  0  0  -0.008821  -0.126775  0  3.932713  0
C  C69  1  0.48777095  0.85490195  0.71276952  1  0  -0.086405  0  3.686759  0  0  -0.126157  0  3.945329  0  0  -0.125117  0  3.964101  0  0  -0.00882  -0.126755  0  3.932759  0
C  C70  1  0.38908480  0.67417472  0.36607142  1  0  -0.040365  0  3.641791  0  0  -0.106423  0  3.889912  0  0  -0.101654  0  3.899861  0  0  -0.045932  -0.10954  0  3.883236  0
C  C71  1  0.61091252  0.17417700  0.13392701  1  0  -0.040478  0  3.641966  0  0  -0.106582  0  3.890118  0  0  -0.101812  0  3.900065  0  0  -0.045992  -0.109697  0  3.883442  0
C  C72  1  0.61091513  0.32582404  0.63392982  1  0  -0.040453  0  3.641822  0  0  -0.106506  0  3.88997  0  0  -0.101744  0  3.89991  0  0  -0.045945  -0.10964  0  3.88332  0
C  C73  1  0.38909015  0.82582333  0.86607116  1  0  -0.040532  0  3.641915  0  0  -0.106686  0  3.890118  0  0  -0.101912  0  3.900059  0  0  -0.046021  -0.109809  0  3.883455  0
C  C74  1  0.44859883  0.58258768  0.43382364  1  0  0.062845  0  3.754369  0  0  0.082578  0  3.992463  0  0  0.081373  0  4.017168  0  0  -0.017246  0.083395  0  3.97568  0
C  C75  1  0.55140374  0.08258763  0.06617630  1  0  0.062874  0  3.754424  0  0  0.082605  0  3.992525  0  0  0.081401  0  4.017228  0  0  -0.01725  0.083429  0  3.975734  0
C  C76  1  0.55140110  0.41741108  0.56617760  1  0  0.062936  0  3.754341  0  0  0.082672  0  3.992421  0  0  0.081468  0  4.017129  0  0  -0.017211  0.083497  0  3.975639  0
C  C77  1  0.44860297  0.91741271  0.93382244  1  0  0.062932  0  3.754414  0  0  0.082724  0  3.992436  0  0  0.08152  0  4.017141  0  0  -0.017203  0.08355  0  3.975646  0
C  C78  1  0.39394751  0.47907488  0.40823695  1  0  -0.117509  0  3.769796  0  0  -0.137481  0  4.018111  0  0  -0.139739  0  4.040358  0  0  -0.099591  -0.135842  0  4.002972  0
C  C79  1  0.60605695  0.97907695  0.09176294  1  0  -0.117432  0  3.769798  0  0  -0.137387  0  4.018123  0  0  -0.139641  0  4.040366  0  0  -0.09958  -0.13575  0  4.00299  0
C  C80  1  0.60605241  0.52092545  0.59176429  1  0  -0.117511  0  3.76982  0  0  -0.137478  0  4.018147  0  0  -0.139736  0  4.040392  0  0  -0.099558  -0.135838  0  4.00301  0
C  C81  1  0.39394977  0.02092338  0.90823511  1  0  -0.117538  0  3.76986  0  0  -0.137538  0  4.018161  0  0  -0.139798  0  4.040408  0  0  -0.099588  -0.135895  0  4.003017  0
C  C82  1  0.55514108  0.60290169  0.52618349  1  0  -0.111797  0  3.74815  0  0  -0.126343  0  3.986742  0  0  -0.129563  0  4.009522  0  0  -0.094472  -0.124057  0  3.971283  0
C  C83  1  0.44485715  0.10290352  0.97381735  1  0  -0.111806  0  3.747941  0  0  -0.126373  0  3.986544  0  0  -0.129592  0  4.009321  0  0  -0.094501  -0.124089  0  3.971081  0
C  C84  1  0.44485747  0.39709786  0.47381962  1  0  -0.111899  0  3.748092  0  0  -0.126445  0  3.986702  0  0  -0.129672  0  4.009488  0  0  -0.094488  -0.124154  0  3.971238  0
C  C85  1  0.55514821  0.89709760  0.02618120  1  0  -0.111863  0  3.748109  0  0  -0.126453  0  3.986646  0  0  -0.129679  0  4.009432  0  0  -0.094455  -0.124171  0  3.971193  0
C  C86  1  0.92483372  0.66903364  0.81618217  1  0  -0.018347  0  3.776038  0  0  -0.049526  0  4.044529  0  0  -0.047911  0  4.063679  0  0  -0.013194  -0.05055  0  4.031635  0
C  C87  1  0.07516465  0.16902766  0.68381518  1  0  -0.018219  0  3.775641  0  0  -0.049396  0  4.04412  0  0  -0.047779  0  4.063269  0  0  -0.01316  -0.050426  0  4.031222  0
C  C88  1  0.07516083  0.33096906  0.18381761  1  0  -0.018119  0  3.775788  0  0  -0.049294  0  4.04427  0  0  -0.047679  0  4.063421  0  0  -0.013142  -0.050321  0  4.031358  0
C  C89  1  0.92483805  0.83096794  0.31618092  1  0  -0.018271  0  3.775761  0  0  -0.049444  0  4.044242  0  0  -0.047828  0  4.063394  0  0  -0.013198  -0.050468  0  4.031343  0
C  C90  1  0.96706392  0.68677327  0.73050966  1  0  -0.080906  0  3.671817  0  0  -0.117758  0  3.931311  0  0  -0.116358  0  3.949172  0  0  -0.006403  -0.118613  0  3.919388  0
C  C91  1  0.03293576  0.18676718  0.76949202  1  0  -0.080877  0  3.671466  0  0  -0.117734  0  3.930999  0  0  -0.116336  0  3.948859  0  0  -0.006413  -0.118581  0  3.919064  0
C  C92  1  0.03293198  0.31323101  0.26949032  1  0  -0.080952  0  3.67189  0  0  -0.11782  0  3.931408  0  0  -0.116421  0  3.949269  0  0  -0.006427  -0.118673  0  3.919481  0
C  C93  1  0.96706688  0.81323079  0.23050822  1  0  -0.080888  0  3.671734  0  0  -0.11774  0  3.931249  0  0  -0.116341  0  3.94911  0  0  -0.006401  -0.118591  0  3.919319  0
C  C94  1  0.17000868  0.58095549  0.82231350  1  0  0.142121  0  3.685579  0  0  0.08508  0  3.951288  0  0  0.098391  0  3.963746  0  0  0.133043  0.076527  0  3.942544  0
C  C95  1  0.82998953  0.08094919  0.67768598  1  0  0.142185  0  3.685747  0  0  0.085181  0  3.95144  0  0  0.098488  0  3.963901  0  0  0.133066  0.076615  0  3.942707  0
C  C96  1  0.82998855  0.41904721  0.17768736  1  0  0.142254  0  3.685872  0  0  0.085256  0  3.951548  0  0  0.098562  0  3.964009  0  0  0.133113  0.076695  0  3.94281  0
C  C97  1  0.17001178  0.91904562  0.32231269  1  0  0.142203  0  3.685687  0  0  0.085176  0  3.951372  0  0  0.098482  0  3.963833  0  0  0.133059  0.076622  0  3.94263  0
C  C98  1  0.21603330  0.62065607  0.65956864  1  0  -0.041861  0  3.652525  0  0  -0.110083  0  3.900924  0  0  -0.105146  0  3.910595  0  0  -0.046944  -0.113269  0  3.894349  0
C  C99  1  0.78396629  0.12065037  0.84043238  1  0  -0.042094  0  3.65299  0  0  -0.110236  0  3.901172  0  0  -0.105299  0  3.910837  0  0  -0.04705  -0.11341  0  3.894588  0
C  C100  1  0.78396661  0.37934899  0.34043329  1  0  -0.042001  0  3.652771  0  0  -0.110189  0  3.901067  0  0  -0.105249  0  3.910724  0  0  -0.047034  -0.113368  0  3.894483  0
C  C101  1  0.21603501  0.87934839  0.15956698  1  0  -0.041933  0  3.652723  0  0  -0.110135  0  3.901039  0  0  -0.105191  0  3.910696  0  0  -0.047012  -0.113321  0  3.894463  0
C  C102  1  0.10558748  0.55805529  0.57649860  1  0  0.070494  0  3.752637  0  0  0.093306  0  3.985406  0  0  0.092267  0  4.009903  0  0  -0.011838  0.094014  0  3.968758  0
C  C103  1  0.89440932  0.05805035  0.92350277  1  0  0.070413  0  3.752892  0  0  0.093285  0  3.985511  0  0  0.092246  0  4.010011  0  0  -0.011822  0.093996  0  3.968854  0
C  C104  1  0.89441106  0.44194978  0.42350452  1  0  0.070322  0  3.752941  0  0  0.093229  0  3.985545  0  0  0.09219  0  4.010046  0  0  -0.01185  0.093938  0  3.968891  0
C  C105  1  0.10558929  0.94194840  0.07649621  1  0  0.070385  0  3.752823  0  0  0.093267  0  3.985475  0  0  0.092227  0  4.009975  0  0  -0.011829  0.093975  0  3.968825  0
C  C106  1  0.08418071  0.44921770  0.58494991  1  0  -0.106303  0  3.756714  0  0  -0.128517  0  4.007813  0  0  -0.131169  0  4.030756  0  0  -0.0928  -0.126609  0  3.992255  0
C  C107  1  0.91581666  0.94921411  0.91504985  1  0  -0.106178  0  3.756932  0  0  -0.128424  0  4.008017  0  0  -0.131075  0  4.030957  0  0  -0.092764  -0.126517  0  3.992463  0
C  C108  1  0.91581652  0.55078737  0.41505094  1  0  -0.106118  0  3.756931  0  0  -0.12837  0  4.008011  0  0  -0.131019  0  4.030951  0  0  -0.092744  -0.126464  0  3.992447  0
C  C109  1  0.08418059  0.05078465  0.08494963  1  0  -0.106236  0  3.756804  0  0  -0.12848  0  4.007897  0  0  -0.131132  0  4.030844  0  0  -0.092779  -0.12657  0  3.992337  0
C  C110  1  0.97976218  0.39118008  0.50901325  1  0  -0.105475  0  3.742482  0  0  -0.12492  0  3.98795  0  0  -0.127535  0  4.009857  0  0  -0.08877  -0.12308  0  3.973153  0
C  C111  1  0.02023779  0.89117586  0.99098762  1  0  -0.105541  0  3.742557  0  0  -0.125021  0  3.988064  0  0  -0.12763  0  4.009972  0  0  -0.088766  -0.123178  0  3.973271  0
C  C112  1  0.02023772  0.60882577  0.49098937  1  0  -0.105771  0  3.74267  0  0  -0.125237  0  3.988196  0  0  -0.127836  0  4.010106  0  0  -0.088843  -0.123396  0  3.973402  0
C  C113  1  0.97975945  0.10882289  0.00901255  1  0  -0.105627  0  3.742504  0  0  -0.125109  0  3.988015  0  0  -0.127728  0  4.009918  0  0  -0.088811  -0.123265  0  3.973212  0
N  N114  1  0.22592787  0.58258303  0.12199319  1  0  -0.37133  0  3.251657  0  0  -0.301143  0  3.530784  0  0  -0.32041  0  3.548398  0  0  -0.355339  -0.287984  0  3.518384  0
N  N115  1  0.77406796  0.08258596  0.37800580  1  0  -0.371332  0  3.251707  0  0  -0.301145  0  3.530821  0  0  -0.320411  0  3.548446  0  0  -0.355351  -0.287982  0  3.518427  0
N  N116  1  0.77407071  0.41741493  0.87800786  1  0  -0.371323  0  3.251749  0  0  -0.301129  0  3.530868  0  0  -0.320398  0  3.548488  0  0  -0.35536  -0.287965  0  3.518467  0
N  N117  1  0.22593201  0.91741516  0.62199268  1  0  -0.371363  0  3.251671  0  0  -0.301173  0  3.530784  0  0  -0.320439  0  3.548402  0  0  -0.355372  -0.288011  0  3.518378  0
N  N118  1  0.36078465  0.64556870  0.26547553  1  0  -0.067528  0  3.590994  0  0  0.026613  0  3.80893  0  0  0.012178  0  3.834622  0  0  -0.248151  0.036202  0  3.791335  0
N  N119  1  0.63921127  0.14557248  0.23452342  1  0  -0.067555  0  3.591276  0  0  0.026586  0  3.809197  0  0  0.012149  0  3.834901  0  0  -0.248154  0.036169  0  3.791611  0
N  N120  1  0.63921391  0.35442848  0.73452621  1  0  -0.067417  0  3.591006  0  0  0.02673  0  3.808929  0  0  0.012293  0  3.834629  0  0  -0.248135  0.036321  0  3.791339  0
N  N121  1  0.36079005  0.85442785  0.76547525  1  0  -0.06736  0  3.591047  0  0  0.026793  0  3.808971  0  0  0.012357  0  3.834667  0  0  -0.24807  0.036377  0  3.791383  0
N  N122  1  0.05225487  0.60321685  0.87259095  1  0  -0.376161  0  3.255326  0  0  -0.306508  0  3.533088  0  0  -0.325547  0  3.551045  0  0  -0.360921  -0.293502  0  3.520462  0
N  N123  1  0.94774202  0.10321146  0.62740902  1  0  -0.376264  0  3.255505  0  0  -0.306578  0  3.53321  0  0  -0.325616  0  3.551166  0  0  -0.360965  -0.293565  0  3.520577  0
N  N124  1  0.94773966  0.39678585  0.12740953  1  0  -0.376405  0  3.255682  0  0  -0.306749  0  3.533439  0  0  -0.325787  0  3.55139  0  0  -0.361048  -0.293743  0  3.520814  0
N  N125  1  0.05225930  0.89678335  0.37258965  1  0  -0.376242  0  3.255466  0  0  -0.306587  0  3.533237  0  0  -0.325626  0  3.55119  0  0  -0.360955  -0.293582  0  3.520612  0
N  N126  1  0.12385151  0.63068327  0.73605338  1  0  -0.062808  0  3.576407  0  0  0.031435  0  3.793503  0  0  0.016704  0  3.819814  0  0  -0.246556  0.041186  0  3.775552  0
N  N127  1  0.87614678  0.13067533  0.76394607  1  0  -0.062904  0  3.576624  0  0  0.031316  0  3.793693  0  0  0.016585  0  3.820003  0  0  -0.246539  0.041062  0  3.775745  0
N  N128  1  0.87614841  0.36932101  0.26394786  1  0  -0.062878  0  3.576589  0  0  0.031361  0  3.79366  0  0  0.016631  0  3.81997  0  0  -0.246548  0.041106  0  3.77571  0
N  N129  1  0.12385186  0.86932106  0.23605153  1  0  -0.062903  0  3.576554  0  0  0.031347  0  3.793626  0  0  0.016616  0  3.819936  0  0  -0.246561  0.041092  0  3.775681  0
Cl  Cl130  1  0.23798391  0.35921589  0.97522801  1  0  -0.652642  0  0.752909  0  0  -0.595741  0  0.990789  0  0  -0.610237  0  0.971937  0  0  -0.370983  -0.584981  0  1.003565  0
Cl  Cl131  1  0.76201739  0.85921418  0.52477168  1  0  -0.652624  0  0.752938  0  0  -0.595716  0  0.990831  0  0  -0.610219  0  0.971988  0  0  -0.370969  -0.584954  0  1.0036  0
Cl  Cl132  1  0.76201338  0.64078445  0.02476940  1  0  -0.652626  0  0.752927  0  0  -0.595725  0  0.990816  0  0  -0.610227  0  0.971968  0  0  -0.370971  -0.584961  0  1.003591  0
Cl  Cl133  1  0.23798525  0.14078221  0.47522856  1  0  -0.652638  0  0.752933  0  0  -0.595732  0  0.990813  0  0  -0.610236  0  0.971974  0  0  -0.370978  -0.584974  0  1.003592  0
