# generated using pymatgen
data_BeCdH20C22S2(NO)4
_symmetry_space_group_name_H-M   'P 1'
_cell_length_a   7.14040097
_cell_length_b   11.86309081
_cell_length_c   15.88711760
_cell_angle_alpha   78.47421034
_cell_angle_beta   78.56415164
_cell_angle_gamma   76.41644213
_symmetry_Int_Tables_number   1
_chemical_formula_structural   BeCdH20C22S2(NO)4
_chemical_formula_sum   'Be2 Cd2 H40 C44 S4 N8 O8'
_cell_volume   1265.44730232
_cell_formula_units_Z   2
loop_
 _symmetry_equiv_pos_site_id
 _symmetry_equiv_pos_as_xyz
  1  'x, y, z'
loop_
 _atom_site_type_symbol
 _atom_site_label
 _atom_site_symmetry_multiplicity
 _atom_site_fract_x
 _atom_site_fract_y
 _atom_site_fract_z
 _atom_site_occupancy
 _atom_site_hle17_bader_spin_density
 _atom_site_hle17_ddec_charge
 _atom_site_hle17_ddec_spin_density
 _atom_site_hle17_ddec_sum_bond_order
 _atom_site_hle17_magmom
 _atom_site_hse06_10hf_bader_spin_density
 _atom_site_hse06_10hf_ddec_charge
 _atom_site_hse06_10hf_ddec_spin_density
 _atom_site_hse06_10hf_ddec_sum_bond_order
 _atom_site_hse06_10hf_magmom
 _atom_site_hse06_bader_spin_density
 _atom_site_hse06_ddec_charge
 _atom_site_hse06_ddec_spin_density
 _atom_site_hse06_ddec_sum_bond_order
 _atom_site_hse06_magmom
 _atom_site_pbe_bader_spin_density
 _atom_site_pbe_cm5_charge
 _atom_site_pbe_ddec_charge
 _atom_site_pbe_ddec_spin_density
 _atom_site_pbe_ddec_sum_bond_order
 _atom_site_pbe_magmom
Be  Be0  1  0.38118212  0.27468251  0.49289467  1  0  1.12915  0  1.617665  0  0  0.992695  0  1.894917  0  0  1.021346  0  1.85428  0  0  0.704598  0.972768  0  1.922914  0
Be  Be1  1  0.61881767  0.72531637  0.50710528  1  0  1.129177  0  1.617651  0  0  0.992764  0  1.894793  0  0  1.021414  0  1.854154  0  0  0.70461  0.972835  0  1.922791  0
Cd  Cd2  1  0.46220613  0.25292836  0.02302143  1  0  0.952411  0  1.982833  0  0  0.765888  0  2.452016  0  0  0.811749  0  2.414901  0  0  0.721145  0.734047  0  2.476788  0
Cd  Cd3  1  0.53779339  0.74707577  0.97698029  1  0  0.952389  0  1.982964  0  0  0.765861  0  2.452181  0  0  0.811721  0  2.415064  0  0  0.721134  0.734024  0  2.476958  0
H  H4  1  0.61107112  0.55316069  0.36667542  1  0  0.142802  0  0.9468  0  0  0.16364  0  1.001125  0  0  0.165973  0  1.000609  0  0  0.103797  0.161962  0  1.001527  0
H  H5  1  0.38892950  0.44683995  0.63332356  1  0  0.142811  0  0.94681  0  0  0.163653  0  1.001123  0  0  0.165986  0  1.000605  0  0  0.103791  0.161974  0  1.001523  0
H  H6  1  0.74624247  0.48972681  0.27319047  1  0  0.125114  0  0.963997  0  0  0.140569  0  1.033758  0  0  0.142752  0  1.033681  0  0  0.090778  0.139042  0  1.03381  0
H  H7  1  0.25375960  0.51027382  0.72680963  1  0  0.125119  0  0.963909  0  0  0.140573  0  1.033671  0  0  0.142756  0  1.033593  0  0  0.090775  0.139045  0  1.033722  0
H  H8  1  0.85350880  0.47105061  0.36808111  1  0  0.133976  0  0.935746  0  0  0.154187  0  0.997563  0  0  0.156537  0  0.996769  0  0  0.103645  0.152553  0  0.998118  0
H  H9  1  0.14649240  0.52894828  0.63191807  1  0  0.134002  0  0.935686  0  0  0.154208  0  0.997509  0  0  0.156557  0  0.996714  0  0  0.103645  0.152574  0  0.998064  0
H  H10  1  0.66063954  0.97740548  0.40280002  1  0  0.153047  0  0.929194  0  0  0.171535  0  0.985649  0  0  0.174961  0  0.983489  0  0  0.106933  0.169098  0  0.987201  0
H  H11  1  0.33937165  0.02259338  0.59719698  1  0  0.153047  0  0.929021  0  0  0.171534  0  0.985488  0  0  0.174959  0  0.983329  0  0  0.106957  0.1691  0  0.987037  0
H  H12  1  0.87447681  0.02856308  0.34243560  1  0  0.123072  0  0.945649  0  0  0.144194  0  1.002613  0  0  0.146321  0  1.002084  0  0  0.096019  0.142713  0  1.002989  0
H  H13  1  0.12553356  0.97143840  0.65756362  1  0  0.12309  0  0.945689  0  0  0.144174  0  1.002694  0  0  0.146299  0  1.002165  0  0  0.096007  0.142693  0  1.00307  0
H  H14  1  0.66678752  0.04594045  0.29209807  1  0  0.126078  0  0.957412  0  0  0.14338  0  1.026229  0  0  0.145576  0  1.0258  0  0  0.093767  0.141841  0  1.026537  0
H  H15  1  0.33322142  0.95405665  0.70790129  1  0  0.126044  0  0.957413  0  0  0.143384  0  1.026183  0  0  0.145582  0  1.025751  0  0  0.09377  0.141845  0  1.026494  0
H  H16  1  0.37551174  0.27827034  0.23300772  1  0  0.07371  0  0.939968  0  0  0.081632  0  1.005674  0  0  0.083683  0  1.004074  0  0  0.110843  0.080065  0  1.006948  0
H  H17  1  0.62448861  0.72172679  0.76699179  1  0  0.073674  0  0.939997  0  0  0.081628  0  1.005662  0  0  0.083678  0  1.004062  0  0  0.110828  0.08006  0  1.006935  0
H  H18  1  0.10509103  0.27890011  0.35974964  1  0  0.124443  0  0.954702  0  0  0.130645  0  1.01891  0  0  0.135019  0  1.016577  0  0  0.110101  0.127445  0  1.020811  0
H  H19  1  0.89491189  0.72109789  0.64024951  1  0  0.124382  0  0.954785  0  0  0.130599  0  1.018985  0  0  0.134972  0  1.016652  0  0  0.110068  0.127397  0  1.020884  0
H  H20  1  0.74231410  0.22912920  0.18841492  1  0  0.106546  0  0.973427  0  0  0.11734  0  1.036191  0  0  0.119784  0  1.035707  0  0  0.098048  0.115527  0  1.036776  0
H  H21  1  0.25768825  0.77087056  0.81158403  1  0  0.106553  0  0.973443  0  0  0.117347  0  1.0362  0  0  0.119792  0  1.035716  0  0  0.09805  0.115535  0  1.036785  0
H  H22  1  0.02927984  0.22258496  0.07067677  1  0  0.085502  0  0.942472  0  0  0.091956  0  1.00928  0  0  0.094197  0  1.00738  0  0  0.111141  0.090292  0  1.010687  0
H  H23  1  0.97072191  0.77741656  0.92932135  1  0  0.085534  0  0.942475  0  0  0.091983  0  1.009281  0  0  0.094226  0  1.007383  0  0  0.111152  0.090318  0  1.010689  0
H  H24  1  0.35305797  0.11884346  0.77930221  1  0  0.124894  0  0.991082  0  0  0.141981  0  1.058674  0  0  0.143888  0  1.058924  0  0  0.088417  0.140628  0  1.058506  0
H  H25  1  0.64694211  0.88115454  0.22069846  1  0  0.124912  0  0.991095  0  0  0.142001  0  1.058677  0  0  0.143907  0  1.058929  0  0  0.088424  0.140647  0  1.058508  0
H  H26  1  0.33174278  0.26761001  0.78681715  1  0  0.132896  0  0.949716  0  0  0.149875  0  1.016137  0  0  0.15185  0  1.016442  0  0  0.093642  0.148475  0  1.01596  0
H  H27  1  0.66825728  0.73238800  0.21318226  1  0  0.132824  0  0.949824  0  0  0.149846  0  1.016204  0  0  0.151822  0  1.016507  0  0  0.093633  0.148446  0  1.016029  0
H  H28  1  0.55195902  0.18933302  0.73072380  1  0  0.130297  0  0.948147  0  0  0.149969  0  1.006019  0  0  0.152431  0  1.005189  0  0  0.094561  0.148228  0  1.006617  0
H  H29  1  0.44804217  0.81066587  0.26927475  1  0  0.130301  0  0.948147  0  0  0.149965  0  1.006033  0  0  0.152428  0  1.005202  0  0  0.094549  0.148224  0  1.006632  0
H  H30  1  0.73325321  0.33175724  0.64164332  1  0  0.120686  0  0.966841  0  0  0.140666  0  1.026907  0  0  0.142406  0  1.027079  0  0  0.093044  0.13941  0  1.026842  0
H  H31  1  0.26674599  0.66824340  0.35835642  1  0  0.120661  0  0.966832  0  0  0.140664  0  1.026864  0  0  0.142404  0  1.027036  0  0  0.093046  0.139409  0  1.0268  0
H  H32  1  0.78153156  0.29290433  0.53585183  1  0  0.142072  0  0.93854  0  0  0.160864  0  0.999417  0  0  0.163609  0  0.998264  0  0  0.104206  0.158912  0  1.000268  0
H  H33  1  0.21846651  0.70709543  0.46414877  1  0  0.142084  0  0.938522  0  0  0.160876  0  0.999403  0  0  0.163625  0  0.998247  0  0  0.104233  0.158923  0  1.000251  0
H  H34  1  0.78649601  0.43716796  0.54842449  1  0  0.153085  0  0.92701  0  0  0.171972  0  0.986804  0  0  0.175436  0  0.984608  0  0  0.106791  0.169533  0  0.988356  0
H  H35  1  0.21350378  0.56283092  0.45157545  1  0  0.153083  0  0.926973  0  0  0.171969  0  0.986776  0  0  0.175433  0  0.98458  0  0  0.106782  0.16953  0  0.988327  0
H  H36  1  0.70554557  0.43121395  0.89398495  1  0  0.081179  0  0.9567  0  0  0.089761  0  1.020057  0  0  0.091002  0  1.019605  0  0  0.112723  0.088799  0  1.020452  0
H  H37  1  0.29445250  0.56878582  0.10601502  1  0  0.081187  0  0.956693  0  0  0.089762  0  1.020049  0  0  0.091003  0  1.019597  0  0  0.112722  0.0888  0  1.020444  0
H  H38  1  0.93494207  0.44755374  0.75434940  1  0  0.1045  0  0.959643  0  0  0.114973  0  1.021051  0  0  0.117626  0  1.021255  0  0  0.105303  0.113083  0  1.021058  0
H  H39  1  0.06505859  0.55244689  0.24565209  1  0  0.104479  0  0.959553  0  0  0.114951  0  1.020973  0  0  0.117604  0  1.021176  0  0  0.105293  0.113063  0  1.020979  0
H  H40  1  0.97793996  0.07701563  0.75998815  1  0  0.102079  0  0.964442  0  0  0.112552  0  1.026466  0  0  0.115372  0  1.026217  0  0  0.103361  0.110515  0  1.026851  0
H  H41  1  0.02205609  0.92298589  0.24001174  1  0  0.102105  0  0.964393  0  0  0.112542  0  1.026453  0  0  0.115361  0  1.026205  0  0  0.103356  0.110505  0  1.026836  0
H  H42  1  0.74296196  0.07592771  0.89841153  1  0  0.080866  0  0.946263  0  0  0.089395  0  1.009765  0  0  0.090622  0  1.009392  0  0  0.114804  0.088418  0  1.010147  0
H  H43  1  0.25703122  0.92407383  0.10158800  1  0  0.080887  0  0.94623  0  0  0.089407  0  1.009745  0  0  0.090635  0  1.00937  0  0  0.114804  0.08843  0  1.010127  0
C  C44  1  0.71574571  0.47744222  0.34467608  1  0  -0.416702  0  3.663117  0  0  -0.495769  0  3.900064  0  0  -0.501921  0  3.903433  0  0  -0.245195  -0.491376  0  3.897501  0
C  C45  1  0.28425807  0.52255753  0.65532336  1  0  -0.416779  0  3.66295  0  0  -0.495836  0  3.899927  0  0  -0.501986  0  3.903293  0  0  -0.245199  -0.491442  0  3.897363  0
C  C46  1  0.63522862  0.36919105  0.38231138  1  0  0.518413  0  3.699834  0  0  0.497338  0  3.96828  0  0  0.523827  0  3.972025  0  0  0.145824  0.479748  0  3.965028  0
C  C47  1  0.36477259  0.63080783  0.61768780  1  0  0.518521  0  3.699671  0  0  0.497439  0  3.968171  0  0  0.52393  0  3.971912  0  0  0.145881  0.479852  0  3.964917  0
C  C48  1  0.72345283  0.25996054  0.35417537  1  0  -0.352437  0  3.736183  0  0  -0.347283  0  3.993331  0  0  -0.371519  0  4.019057  0  0  -0.063468  -0.331274  0  3.975606  0
C  C49  1  0.27654808  0.74003922  0.64582308  1  0  -0.352549  0  3.736245  0  0  -0.347432  0  3.993433  0  0  -0.371669  0  4.019155  0  0  -0.063454  -0.331422  0  3.975709  0
C  C50  1  0.63106813  0.16238410  0.38438858  1  0  0.513992  0  3.694716  0  0  0.494108  0  3.963838  0  0  0.52057  0  3.967573  0  0  0.141783  0.476544  0  3.960575  0
C  C51  1  0.36893423  0.83761565  0.61561163  1  0  0.514034  0  3.694757  0  0  0.494161  0  3.963907  0  0  0.520622  0  3.967642  0  0  0.141763  0.476593  0  3.960647  0
C  C52  1  0.71445556  0.04651108  0.35386647  1  0  -0.40997  0  3.664401  0  0  -0.487618  0  3.900058  0  0  -0.493645  0  3.90274  0  0  -0.242821  -0.483336  0  3.897963  0
C  C53  1  0.28554738  0.95348692  0.64613394  1  0  -0.409943  0  3.664246  0  0  -0.487586  0  3.89992  0  0  -0.493613  0  3.902601  0  0  -0.242818  -0.483307  0  3.897826  0
C  C54  1  0.23279509  0.26572380  0.22630676  1  0  0.132068  0  3.717008  0  0  0.102633  0  3.969386  0  0  0.109944  0  3.987615  0  0  0.043269  0.097884  0  3.956966  0
C  C55  1  0.76720613  0.73427508  0.77369305  1  0  0.132063  0  3.716913  0  0  0.102609  0  3.969296  0  0  0.10992  0  3.987525  0  0  0.043268  0.097861  0  3.956874  0
C  C56  1  0.08081368  0.26719449  0.29660346  1  0  -0.171471  0  3.677864  0  0  -0.187985  0  3.921456  0  0  -0.195657  0  3.940815  0  0  -0.083353  -0.183059  0  3.908612  0
C  C57  1  0.91918723  0.73280527  0.70339562  1  0  -0.171393  0  3.677802  0  0  -0.18793  0  3.921384  0  0  -0.195604  0  3.940745  0  0  -0.083304  -0.183002  0  3.908538  0
C  C58  1  0.89779784  0.25328581  0.28495468  1  0  0.1508  0  3.79054  0  0  0.166627  0  4.015498  0  0  0.173227  0  4.041151  0  0  0.011119  0.162379  0  3.998114  0
C  C59  1  0.10220478  0.74671307  0.71504374  1  0  0.150852  0  3.790538  0  0  0.166724  0  4.015459  0  0  0.173325  0  4.041109  0  0  0.011119  0.162476  0  3.998077  0
C  C60  1  0.88177293  0.23632618  0.20219024  1  0  -0.161107  0  3.702843  0  0  -0.178711  0  3.945984  0  0  -0.187256  0  3.96874  0  0  -0.086899  -0.173293  0  3.930933  0
C  C61  1  0.11822971  0.76367269  0.79780944  1  0  -0.161078  0  3.702813  0  0  -0.178685  0  3.945932  0  0  -0.187231  0  3.968688  0  0  -0.086867  -0.173267  0  3.930879  0
C  C62  1  0.04055168  0.23504486  0.13555474  1  0  0.136583  0  3.708794  0  0  0.105022  0  3.96209  0  0  0.112213  0  3.980465  0  0  0.042711  0.10037  0  3.949586  0
C  C63  1  0.95945038  0.76495578  0.86444411  1  0  0.136497  0  3.708689  0  0  0.104942  0  3.961979  0  0  0.112129  0  3.980356  0  0  0.042657  0.100291  0  3.949476  0
C  C64  1  0.39284547  0.20166010  0.74358990  1  0  -0.413813  0  3.671247  0  0  -0.488744  0  3.901652  0  0  -0.495164  0  3.905295  0  0  -0.247918  -0.484126  0  3.898867  0
C  C65  1  0.60715860  0.79833877  0.25640965  1  0  -0.413839  0  3.671391  0  0  -0.48881  0  3.901775  0  0  -0.495227  0  3.905419  0  0  -0.247953  -0.484191  0  3.898991  0
C  C66  1  0.31367814  0.23619294  0.65986927  1  0  0.514024  0  3.717072  0  0  0.492918  0  3.986788  0  0  0.519668  0  3.989921  0  0  0.141232  0.475072  0  3.984075  0
C  C67  1  0.68632307  0.76380594  0.34013054  1  0  0.514083  0  3.716999  0  0  0.492978  0  3.9867  0  0  0.519719  0  3.989844  0  0  0.141238  0.475131  0  3.983989  0
C  C68  1  0.10978079  0.26865370  0.65927541  1  0  -0.350387  0  3.744444  0  0  -0.342087  0  3.998933  0  0  -0.366314  0  4.024853  0  0  -0.062626  -0.326119  0  3.981223  0
C  C69  1  0.89022071  0.73134430  0.34072450  1  0  -0.350435  0  3.744393  0  0  -0.342083  0  3.998832  0  0  -0.3663  0  4.024746  0  0  -0.062603  -0.326114  0  3.981121  0
C  C70  1  0.03596896  0.30664007  0.57986964  1  0  0.513632  0  3.710092  0  0  0.489697  0  3.98272  0  0  0.516222  0  3.986569  0  0  0.13966  0.47204  0  3.97942  0
C  C71  1  0.96403082  0.69335882  0.42013030  1  0  0.513645  0  3.710062  0  0  0.489682  0  3.982713  0  0  0.516206  0  3.986561  0  0  0.139613  0.472025  0  3.97941  0
C  C72  1  0.82221662  0.34395183  0.57738160  1  0  -0.409492  0  3.663593  0  0  -0.490951  0  3.906661  0  0  -0.496543  0  3.908169  0  0  -0.245291  -0.486918  0  3.905468  0
C  C73  1  0.17778145  0.65604793  0.42261900  1  0  -0.409475  0  3.663543  0  0  -0.490947  0  3.906615  0  0  -0.496545  0  3.908119  0  0  -0.245285  -0.48692  0  3.905444  0
C  C74  1  0.76773337  0.35480468  0.86175810  1  0  0.139198  0  3.70511  0  0  0.109817  0  3.952084  0  0  0.117332  0  3.97069  0  0  0.046352  0.104935  0  3.939437  0
C  C75  1  0.23226439  0.64519597  0.13824114  1  0  0.139096  0  3.70516  0  0  0.10974  0  3.952101  0  0  0.117253  0  3.970708  0  0  0.046333  0.104859  0  3.939456  0
C  C76  1  0.89644060  0.36322907  0.78377521  1  0  -0.161776  0  3.692054  0  0  -0.178717  0  3.932182  0  0  -0.186428  0  3.952559  0  0  -0.082594  -0.173849  0  3.918642  0
C  C77  1  0.10355828  0.63677246  0.21622254  1  0  -0.16172  0  3.69193  0  0  -0.178667  0  3.932057  0  0  -0.186377  0  3.952435  0  0  -0.082574  -0.173799  0  3.918517  0
C  C78  1  0.97440806  0.26350222  0.74367557  1  0  0.153157  0  3.787597  0  0  0.169883  0  4.010887  0  0  0.17641  0  4.036018  0  0  0.015117  0.165697  0  3.993887  0
C  C79  1  0.02559229  0.73649929  0.25632394  1  0  0.153269  0  3.78764  0  0  0.169962  0  4.010951  0  0  0.176486  0  4.036084  0  0  0.015153  0.165777  0  3.99395  0
C  C80  1  0.92006460  0.15803645  0.78687140  1  0  -0.16348  0  3.698741  0  0  -0.182327  0  3.943874  0  0  -0.190207  0  3.964317  0  0  -0.081934  -0.177362  0  3.930329  0
C  C81  1  0.07993518  0.84196244  0.21312854  1  0  -0.163603  0  3.69885  0  0  -0.182423  0  3.943977  0  0  -0.190303  0  3.964421  0  0  -0.081978  -0.177455  0  3.930428  0
C  C82  1  0.78953936  0.15664263  0.86453515  1  0  0.142959  0  3.707175  0  0  0.112314  0  3.95967  0  0  0.119792  0  3.978323  0  0  0.048798  0.107463  0  3.946983  0
C  C83  1  0.21046672  0.84335448  0.13546447  1  0  0.142927  0  3.707199  0  0  0.112294  0  3.959674  0  0  0.119774  0  3.978322  0  0  0.048828  0.107445  0  3.946984  0
C  C84  1  0.69159971  0.95474251  0.05673712  1  0  0.310593  0  4.002307  0  0  0.289848  0  4.305503  0  0  0.311903  0  4.318691  0  0  0.150834  0.274801  0  4.296214  0
C  C85  1  0.30838910  0.04526422  0.94327527  1  0  0.31072  0  4.002472  0  0  0.289972  0  4.305641  0  0  0.312022  0  4.318821  0  0  0.150874  0.274928  0  4.296355  0
C  C86  1  0.33950055  0.53772654  0.92427668  1  0  0.304937  0  4.022053  0  0  0.284527  0  4.326511  0  0  0.307236  0  4.339792  0  0  0.14474  0.269136  0  4.317053  0
C  C87  1  0.66049607  0.46228200  0.07572340  1  0  0.304888  0  4.02176  0  0  0.284481  0  4.326221  0  0  0.307192  0  4.339504  0  0  0.144696  0.26909  0  4.31676  0
S  S88  1  0.71815715  0.06202291  0.10052351  1  0  -0.36373  0  2.182341  0  0  -0.334204  0  2.516099  0  0  -0.351801  0  2.509659  0  0  -0.142094  -0.321686  0  2.520134  0
S  S89  1  0.28182898  0.93797423  0.89948235  1  0  -0.363909  0  2.181936  0  0  -0.334388  0  2.515697  0  0  -0.351989  0  2.509257  0  0  -0.142129  -0.321869  0  2.519734  0
S  S90  1  0.23212347  0.43177717  0.92198637  1  0  -0.339594  0  2.121557  0  0  -0.310702  0  2.437963  0  0  -0.327893  0  2.433233  0  0  -0.148538  -0.298637  0  2.440833  0
S  S91  1  0.76787546  0.56822872  0.07801451  1  0  -0.339508  0  2.121613  0  0  -0.310614  0  2.438022  0  0  -0.327804  0  2.433292  0  0  -0.148508  -0.298549  0  2.440892  0
N  N92  1  0.21412687  0.24997794  0.14695143  1  0  -0.334742  0  3.279852  0  0  -0.258537  0  3.543557  0  0  -0.278481  0  3.564  0  0  -0.330426  -0.244975  0  3.529273  0
N  N93  1  0.78587406  0.75002182  0.85304827  1  0  -0.334706  0  3.279734  0  0  -0.258511  0  3.543459  0  0  -0.278453  0  3.563901  0  0  -0.330406  -0.24495  0  3.529176  0
N  N94  1  0.71292088  0.25358138  0.90110950  1  0  -0.338112  0  3.289959  0  0  -0.2602  0  3.548732  0  0  -0.280977  0  3.570649  0  0  -0.332837  -0.246086  0  3.533495  0
N  N95  1  0.28707746  0.74641751  0.09888994  1  0  -0.338031  0  3.290037  0  0  -0.260115  0  3.548772  0  0  -0.28089  0  3.570689  0  0  -0.332869  -0.246003  0  3.533536  0
N  N96  1  0.67810493  0.87430353  0.02629682  1  0  -0.5326  0  2.86645  0  0  -0.474579  0  3.139369  0  0  -0.495221  0  3.145613  0  0  -0.387969  -0.460459  0  3.134909  0
N  N97  1  0.32188346  0.12569098  0.97370669  1  0  -0.532531  0  2.86695  0  0  -0.474509  0  3.13985  0  0  -0.495143  0  3.146086  0  0  -0.387967  -0.460391  0  3.13539  0
N  N98  1  0.41806723  0.61567237  0.92350950  1  0  -0.553971  0  2.885596  0  0  -0.49732  0  3.166047  0  0  -0.518767  0  3.171567  0  0  -0.397711  -0.482636  0  3.161984  0
N  N99  1  0.58192769  0.38433266  0.07649187  1  0  -0.553992  0  2.885219  0  0  -0.497343  0  3.165659  0  0  -0.518791  0  3.171182  0  0  -0.397684  -0.482656  0  3.161591  0
O  O100  1  0.48086381  0.38259347  0.44005994  1  0  -0.620175  0  2.091728  0  0  -0.547123  0  2.323609  0  0  -0.570938  0  2.314172  0  0  -0.334802  -0.530821  0  2.329637  0
O  O101  1  0.51913451  0.61740543  0.55993825  1  0  -0.620168  0  2.091624  0  0  -0.547142  0  2.323541  0  0  -0.570956  0  2.314102  0  0  -0.334852  -0.530844  0  2.329572  0
O  O102  1  0.47164236  0.16669567  0.43941955  1  0  -0.617562  0  2.063731  0  0  -0.548261  0  2.29291  0  0  -0.571176  0  2.281861  0  0  -0.338823  -0.532565  0  2.300009  0
O  O103  1  0.52836027  0.83330321  0.56057950  1  0  -0.617598  0  2.06382  0  0  -0.548308  0  2.292994  0  0  -0.571221  0  2.281943  0  0  -0.338829  -0.532604  0  2.30009  0
O  O104  1  0.43937442  0.23605929  0.58959863  1  0  -0.628182  0  2.101565  0  0  -0.55651  0  2.334733  0  0  -0.580064  0  2.325227  0  0  -0.33535  -0.540429  0  2.340929  0
O  O105  1  0.56062680  0.76393959  0.41040118  1  0  -0.628184  0  2.101527  0  0  -0.556538  0  2.3347  0  0  -0.580092  0  2.325202  0  0  -0.335337  -0.540455  0  2.340896  0
O  O106  1  0.14699994  0.31176174  0.50470656  1  0  -0.639471  0  2.067211  0  0  -0.566781  0  2.301974  0  0  -0.590519  0  2.29095  0  0  -0.348452  -0.550431  0  2.308996  0
O  O107  1  0.85299840  0.68823715  0.49529288  1  0  -0.63949  0  2.067142  0  0  -0.566801  0  2.301909  0  0  -0.59054  0  2.290886  0  0  -0.348438  -0.550451  0  2.308932  0
