# generated using pymatgen
data_Ag2H16C10N4O5
_symmetry_space_group_name_H-M   'P 1'
_cell_length_a   6.21984223
_cell_length_b   11.64836736
_cell_length_c   21.99800000
_cell_angle_alpha   90.00000000
_cell_angle_beta   97.77968063
_cell_angle_gamma   90.00000000
_symmetry_Int_Tables_number   1
_chemical_formula_structural   Ag2H16C10N4O5
_chemical_formula_sum   'Ag8 H64 C40 N16 O20'
_cell_volume   1579.10798424
_cell_formula_units_Z   4
loop_
 _symmetry_equiv_pos_site_id
 _symmetry_equiv_pos_as_xyz
  1  'x, y, z'
loop_
 _atom_site_type_symbol
 _atom_site_label
 _atom_site_symmetry_multiplicity
 _atom_site_fract_x
 _atom_site_fract_y
 _atom_site_fract_z
 _atom_site_occupancy
 _atom_site_hle17_bader_spin_density
 _atom_site_hle17_ddec_charge
 _atom_site_hle17_ddec_spin_density
 _atom_site_hle17_ddec_sum_bond_order
 _atom_site_hle17_magmom
 _atom_site_hse06_10hf_bader_spin_density
 _atom_site_hse06_10hf_ddec_charge
 _atom_site_hse06_10hf_ddec_spin_density
 _atom_site_hse06_10hf_ddec_sum_bond_order
 _atom_site_hse06_10hf_magmom
 _atom_site_hse06_bader_spin_density
 _atom_site_hse06_ddec_charge
 _atom_site_hse06_ddec_spin_density
 _atom_site_hse06_ddec_sum_bond_order
 _atom_site_hse06_magmom
 _atom_site_pbe_bader_charge
 _atom_site_pbe_bader_spin_density
 _atom_site_pbe_cm5_charge
 _atom_site_pbe_ddec_charge
 _atom_site_pbe_ddec_spin_density
 _atom_site_pbe_ddec_sum_bond_order
 _atom_site_pbe_magmom
Ag  Ag0  1  0.07811970  0.62389945  0.71309494  1  0  0.508731  0  1.361614  0  0  0.367873  0  1.768383  0  0  0.402943  0  1.720538  0  0.53804  0  0.464875  0.342609  0  1.801965  0
Ag  Ag1  1  0.92187799  0.12389977  0.78690607  1  0  0.508773  0  1.361549  0  0  0.367893  0  1.768315  0  0  0.402961  0  1.720472  0  0.538059  0  0.46486  0.342623  0  1.801903  0
Ag  Ag2  1  0.92188935  0.37610335  0.28690877  1  0  0.508732  0  1.361587  0  0  0.367888  0  1.768346  0  0  0.402956  0  1.720503  0  0.53809  0  0.464858  0.342622  0  1.801928  0
Ag  Ag3  1  0.07810996  0.87610046  0.21309002  1  0  0.508759  0  1.361658  0  0  0.367912  0  1.76839  0  0  0.402974  0  1.720549  0  0.538124  0  0.464903  0.342643  0  1.801979  0
Ag  Ag4  1  0.58791474  0.48223496  0.94757575  1  0  0.486511  0  1.552983  0  0  0.356238  0  2.020941  0  0  0.391621  0  1.962239  0  0.557351  0  0.416017  0.331678  0  2.06109  0
Ag  Ag5  1  0.41208619  0.98224323  0.55242265  1  0  0.486637  0  1.552879  0  0  0.356319  0  2.020909  0  0  0.391698  0  1.962209  0  0.557126  0  0.416045  0.331761  0  2.061057  0
Ag  Ag6  1  0.41207808  0.51776011  0.05242325  1  0  0.48657  0  1.552909  0  0  0.356257  0  2.020918  0  0  0.391638  0  1.962217  0  0.556932  0  0.416025  0.331699  0  2.061067  0
Ag  Ag7  1  0.58791312  0.01777073  0.44757478  1  0  0.486464  0  1.553  0  0  0.35624  0  2.020896  0  0  0.391622  0  1.962197  0  0.557362  0  0.416038  0.331678  0  2.061047  0
H  H8  1  0.08910695  0.54516996  0.93652437  1  0  0.075773  0  0.943037  0  0  0.086183  0  1.014393  0  0  0.086949  0  1.013268  0  0.096558  0  0.117166  0.085481  0  1.015413  0
H  H9  1  0.91090047  0.04517200  0.56347746  1  0  0.075775  0  0.943002  0  0  0.086233  0  1.014329  0  0  0.087007  0  1.013183  0  0.096504  0  0.117197  0.085529  0  1.015355  0
H  H10  1  0.91088425  0.45482425  0.06347775  1  0  0.075715  0  0.942947  0  0  0.086155  0  1.014327  0  0  0.086937  0  1.013165  0  0.096347  0  0.117158  0.085451  0  1.015353  0
H  H11  1  0.08910371  0.95482308  0.43651970  1  0  0.075741  0  0.943005  0  0  0.086242  0  1.014362  0  0  0.087026  0  1.013193  0  0.096479  0  0.117205  0.085535  0  1.01539  0
H  H12  1  0.05297769  0.39740848  0.95585982  1  0  0.084512  0  0.920488  0  0  0.097015  0  0.98784  0  0  0.098306  0  0.985608  0  0.093476  0  0.121169  0.095901  0  0.989727  0
H  H13  1  0.94702974  0.89741160  0.54414065  1  0  0.0845  0  0.920599  0  0  0.096957  0  0.987997  0  0  0.098252  0  0.985758  0  0.093673  0  0.121156  0.095846  0  0.989884  0
H  H14  1  0.94701189  0.60258488  0.04413997  1  0  0.08446  0  0.920534  0  0  0.09696  0  0.987929  0  0  0.098232  0  0.985739  0  0.093572  0  0.121172  0.095848  0  0.989814  0
H  H15  1  0.05297444  0.10258176  0.45585787  1  0  0.084507  0  0.920512  0  0  0.097018  0  0.987939  0  0  0.098288  0  0.985749  0  0.093752  0  0.121196  0.095906  0  0.989826  0
H  H16  1  0.32418003  0.27693924  0.83491006  1  0  0.087294  0  0.95377  0  0  0.099112  0  1.020591  0  0  0.100317  0  1.019755  0  0.116205  0  0.117386  0.098064  0  1.021508  0
H  H17  1  0.67582253  0.77694064  0.66508977  1  0  0.08725  0  0.953689  0  0  0.09905  0  1.020516  0  0  0.100261  0  1.019678  0  0.116021  0  0.117356  0.098  0  1.021435  0
H  H18  1  0.67580792  0.72305841  0.16509012  1  0  0.08732  0  0.953701  0  0  0.099091  0  1.020572  0  0  0.100293  0  1.01974  0  0.116089  0  0.117384  0.098043  0  1.021483  0
H  H19  1  0.32417679  0.22306044  0.33490993  1  0  0.087294  0  0.953662  0  0  0.09912  0  1.020475  0  0  0.100326  0  1.019643  0  0.116097  0  0.117373  0.098072  0  1.02139  0
H  H20  1  0.18489291  0.24977578  0.89924718  1  0  0.07894  0  0.896859  0  0  0.098396  0  0.950862  0  0  0.098377  0  0.950652  0  0.079427  0  0.126241  0.098251  0  0.951229  0
H  H21  1  0.81511289  0.74977804  0.60075368  1  0  0.078837  0  0.896867  0  0  0.098312  0  0.950844  0  0  0.098293  0  0.950642  0  0.079554  0  0.126211  0.098172  0  0.951202  0
H  H22  1  0.81509342  0.75021758  0.10075157  1  0  0.078965  0  0.896878  0  0  0.09843  0  0.950859  0  0  0.098458  0  0.9506  0  0.079133  0  0.126274  0.098282  0  0.951227  0
H  H23  1  0.18488480  0.25021790  0.39924687  1  0  0.078931  0  0.896933  0  0  0.098385  0  0.950932  0  0  0.098409  0  0.950671  0  0.079559  0  0.126264  0.098238  0  0.9513  0
H  H24  1  0.79954477  0.27999460  0.89194481  1  0  0.094854  0  0.920535  0  0  0.106871  0  0.984419  0  0  0.108193  0  0.98283  0  0.125819  0  0.123888  0.105719  0  0.985816  0
H  H25  1  0.20046265  0.77999515  0.60805611  1  0  0.094857  0  0.920548  0  0  0.106866  0  0.984458  0  0  0.108195  0  0.982866  0  0.12597  0  0.123909  0.105716  0  0.985851  0
H  H26  1  0.20044156  0.72000133  0.10805394  1  0  0.094889  0  0.920581  0  0  0.106924  0  0.984422  0  0  0.108251  0  0.982828  0  0.125816  0  0.123931  0.105772  0  0.985819  0
H  H27  1  0.79954153  0.22000165  0.39194378  1  0  0.09493  0  0.920565  0  0  0.106947  0  0.98442  0  0  0.10828  0  0.982824  0  0.125983  0  0.123929  0.105797  0  0.985811  0
H  H28  1  0.65519485  0.33653987  0.82241646  1  0  0.076423  0  0.922604  0  0  0.090631  0  0.988544  0  0  0.091017  0  0.987822  0  0.095873  0  0.119852  0.090062  0  0.989507  0
H  H29  1  0.34480933  0.83653955  0.67758433  1  0  0.076344  0  0.922648  0  0  0.090563  0  0.9886  0  0  0.090946  0  0.987879  0  0.095827  0  0.11983  0.089995  0  0.989561  0
H  H30  1  0.34479310  0.66345950  0.17758144  1  0  0.076429  0  0.922666  0  0  0.090631  0  0.988615  0  0  0.091017  0  0.987893  0  0.09602  0  0.119839  0.090055  0  0.989587  0
H  H31  1  0.65518511  0.16345810  0.32241518  1  0  0.076351  0  0.922616  0  0  0.090552  0  0.988573  0  0  0.090937  0  0.987852  0  0.09582  0  0.119791  0.089982  0  0.989537  0
H  H32  1  0.27828053  0.59079438  0.84903930  1  0  0.087033  0  0.924163  0  0  0.09963  0  0.988141  0  0  0.100744  0  0.986605  0  0.126964  0  0.122679  0.098687  0  0.989403  0
H  H33  1  0.72172365  0.09079727  0.65096195  1  0  0.087018  0  0.92416  0  0  0.099626  0  0.988131  0  0  0.100743  0  0.986594  0  0.126902  0  0.12267  0.098683  0  0.989394  0
H  H34  1  0.72171391  0.40920069  0.15096521  1  0  0.087009  0  0.924107  0  0  0.099616  0  0.988105  0  0  0.100735  0  0.986565  0  0.126886  0  0.122679  0.098673  0  0.989367  0
H  H35  1  0.27827891  0.90920295  0.34903424  1  0  0.086994  0  0.924152  0  0  0.099602  0  0.988141  0  0  0.100722  0  0.986598  0  0.126846  0  0.122684  0.098659  0  0.989405  0
H  H36  1  0.36912214  0.47642385  0.80461906  1  0  0.074472  0  0.922312  0  0  0.08733  0  0.990512  0  0  0.087879  0  0.989651  0  0.068022  0  0.120185  0.08665  0  0.991583  0
H  H37  1  0.63088528  0.97642353  0.69538140  1  0  0.074464  0  0.922343  0  0  0.087321  0  0.990543  0  0  0.087871  0  0.989682  0  0.068045  0  0.120172  0.086641  0  0.991613  0
H  H38  1  0.63087068  0.52357638  0.19538357  1  0  0.074391  0  0.922397  0  0  0.087264  0  0.990623  0  0  0.087812  0  0.989762  0  0.067931  0  0.120196  0.086584  0  0.991692  0
H  H39  1  0.36911403  0.02357669  0.30461557  1  0  0.074472  0  0.922377  0  0  0.087325  0  0.990617  0  0  0.087874  0  0.989757  0  0.068002  0  0.120223  0.086647  0  0.991684  0
H  H40  1  0.83503307  0.38188871  0.73766938  1  0  0.084758  0  0.905598  0  0  0.102266  0  0.96441  0  0  0.102274  0  0.964179  0  0.079833  0  0.126829  0.102116  0  0.964708  0
H  H41  1  0.16497598  0.88188925  0.76233115  1  0  0.084723  0  0.905603  0  0  0.102277  0  0.96437  0  0  0.102289  0  0.964136  0  0.079899  0  0.126822  0.102115  0  0.964697  0
H  H42  1  0.16496299  0.61811752  0.26233156  1  0  0.084792  0  0.905534  0  0  0.102298  0  0.964305  0  0  0.10231  0  0.964074  0  0.080292  0  0.126848  0.102163  0  0.964605  0
H  H43  1  0.83502983  0.11811269  0.23766653  1  0  0.084757  0  0.905623  0  0  0.102273  0  0.964391  0  0  0.102284  0  0.964159  0  0.080216  0  0.126842  0.102122  0  0.964694  0
H  H44  1  0.12188211  0.36088577  0.74055086  1  0  0.096426  0  0.906878  0  0  0.110979  0  0.96719  0  0  0.112222  0  0.96571  0  0.112957  0  0.127583  0.109949  0  0.968404  0
H  H45  1  0.87812531  0.86088717  0.75945051  1  0  0.096458  0  0.906869  0  0  0.111022  0  0.967171  0  0  0.11226  0  0.9657  0  0.112959  0  0.127617  0.109999  0  0.96837  0
H  H46  1  0.87811233  0.63911875  0.25945001  1  0  0.096497  0  0.906858  0  0  0.111001  0  0.967181  0  0  0.112238  0  0.965716  0  0.112858  0  0.127605  0.109986  0  0.968395  0
H  H47  1  0.12188211  0.13911649  0.24054905  1  0  0.096478  0  0.906923  0  0  0.111027  0  0.967206  0  0  0.112266  0  0.965733  0  0.112897  0  0.127605  0.109995  0  0.968423  0
H  H48  1  0.70333042  0.53912191  0.79599258  1  0  0.084541  0  0.937693  0  0  0.09633  0  1.005584  0  0  0.096974  0  1.005341  0  0.116543  0  0.119744  0.09569  0  1.006042  0
H  H49  1  0.29667863  0.03912222  0.70400931  1  0  0.084653  0  0.937555  0  0  0.096401  0  1.005468  0  0  0.097044  0  1.005229  0  0.116454  0  0.119789  0.095761  0  1.005924  0
H  H50  1  0.29666727  0.46088433  0.20401069  1  0  0.084588  0  0.937555  0  0  0.096348  0  1.005494  0  0  0.096989  0  1.005253  0  0.116515  0  0.119751  0.095708  0  1.00595  0
H  H51  1  0.70332393  0.96088144  0.29598688  1  0  0.084595  0  0.937515  0  0  0.096354  0  1.005444  0  0  0.096996  0  1.005206  0  0.116437  0  0.119753  0.095713  0  1.0059  0
H  H52  1  0.89079368  0.62365736  0.84552043  1  0  0.088658  0  0.885242  0  0  0.109032  0  0.93608  0  0  0.109493  0  0.935296  0  0.074642  0  0.130492  0.108551  0  0.936819  0
H  H53  1  0.10921212  0.12365596  0.65448088  1  0  0.088671  0  0.885336  0  0  0.109044  0  0.936151  0  0  0.109505  0  0.935368  0  0.074658  0  0.130506  0.108566  0  0.936886  0
H  H54  1  0.10920239  0.37634287  0.15448460  1  0  0.088557  0  0.885319  0  0  0.108958  0  0.936129  0  0  0.109416  0  0.935346  0  0.07447  0  0.130494  0.10848  0  0.936862  0
H  H55  1  0.89078557  0.87634084  0.34551466  1  0  0.088641  0  0.885283  0  0  0.109037  0  0.936099  0  0  0.109497  0  0.935315  0  0.074744  0  0.130521  0.10856  0  0.936826  0
H  H56  1  0.79108405  0.50890823  0.64675282  1  0  0.041216  0  0.981056  0  0  0.048308  0  1.066576  0  0  0.051249  0  1.061756  0  0.015991  0  0.079153  0.046059  0  1.070335  0
H  H57  1  0.20894285  0.00889910  0.85324885  1  0  0.041141  0  0.981007  0  0  0.048236  0  1.066594  0  0  0.051179  0  1.061772  0  0.016139  0  0.079152  0.045979  0  1.070346  0
H  H58  1  0.20892338  0.49110831  0.35324992  1  0  0.041143  0  0.981145  0  0  0.048207  0  1.066668  0  0  0.051151  0  1.061851  0  0.015968  0  0.079165  0.04595  0  1.070424  0
H  H59  1  0.79106782  0.99109769  0.14675083  1  0  0.041178  0  0.980998  0  0  0.048244  0  1.066567  0  0  0.051187  0  1.061742  0  0.01601  0  0.079142  0.045989  0  1.070323  0
H  H60  1  0.59804522  0.55173140  0.58356217  1  0  0.060388  0  0.922835  0  0  0.073508  0  0.985273  0  0  0.074902  0  0.984216  0  0.023194  0  0.09774  0.072466  0  0.986142  0
H  H61  1  0.40198331  0.05173085  0.91643911  1  0  0.060392  0  0.922729  0  0  0.073516  0  0.985184  0  0  0.074902  0  0.984137  0  0.0232  0  0.097756  0.072463  0  0.98605  0
H  H62  1  0.40195572  0.44827398  0.41643896  1  0  0.060414  0  0.922781  0  0  0.073504  0  0.985212  0  0  0.074898  0  0.984166  0  0.023237  0  0.097749  0.072453  0  0.986079  0
H  H63  1  0.59802899  0.94826937  0.08356200  1  0  0.060436  0  0.92278  0  0  0.073544  0  0.985218  0  0  0.074929  0  0.984171  0  0.023169  0  0.097789  0.072495  0  0.986085  0
H  H64  1  0.64941157  0.40400254  0.51844841  1  0  0.067504  0  0.92101  0  0  0.078311  0  0.98664  0  0  0.080032  0  0.984756  0  0.067333  0  0.100161  0.076985  0  0.988159  0
H  H65  1  0.35059586  0.90399450  0.98155433  1  0  0.067493  0  0.921105  0  0  0.078234  0  0.986734  0  0  0.079959  0  0.984844  0  0.067584  0  0.100064  0.076911  0  0.988255  0
H  H66  1  0.35059910  0.59600799  0.48155581  1  0  0.06752  0  0.921079  0  0  0.07824  0  0.986715  0  0  0.079964  0  0.984824  0  0.067566  0  0.10006  0.076913  0  0.988242  0
H  H67  1  0.64940833  0.09600058  0.01844783  1  0  0.067552  0  0.921129  0  0  0.078282  0  0.986797  0  0  0.080006  0  0.984911  0  0.06728  0  0.100096  0.076952  0  0.988316  0
H  H68  1  0.86870883  0.34790283  0.57008474  1  0  0.08412  0  0.901505  0  0  0.098358  0  0.957072  0  0  0.100636  0  0.955102  0  0.068565  0  0.105912  0.096671  0  0.958629  0
H  H69  1  0.13131807  0.84789822  0.92991374  1  0  0.084027  0  0.901629  0  0  0.098236  0  0.957156  0  0  0.100512  0  0.955188  0  0.068655  0  0.105902  0.096553  0  0.958711  0
H  H70  1  0.13131158  0.65210169  0.42991622  1  0  0.083988  0  0.901609  0  0  0.09819  0  0.95714  0  0  0.100465  0  0.955172  0  0.06866  0  0.105897  0.096508  0  0.958697  0
H  H71  1  0.86868935  0.15210372  0.07008627  1  0  0.084056  0  0.901562  0  0  0.098294  0  0.957099  0  0  0.100572  0  0.955133  0  0.068671  0  0.105909  0.096608  0  0.958652  0
C  C72  1  0.05930619  0.45824018  0.91798629  1  0  0.057017  0  3.626169  0  0  -0.019534  0  3.894579  0  0  -0.010891  0  3.902633  0  0.518033  0  0.009763  -0.025422  0  3.889129  0
C  C73  1  0.94069961  0.95824416  0.58201411  1  0  0.057047  0  3.626113  0  0  -0.01956  0  3.894639  0  0  -0.010904  0  3.902678  0  0.517872  0  0.009762  -0.025448  0  3.889188  0
C  C74  1  0.94069637  0.54175403  0.08201580  1  0  0.057141  0  3.625977  0  0  -0.019548  0  3.894573  0  0  -0.010903  0  3.902624  0  0.518172  0  0.009712  -0.025433  0  3.889117  0
C  C75  1  0.05929159  0.04175435  0.41798483  1  0  0.057112  0  3.625838  0  0  -0.019719  0  3.894617  0  0  -0.01109  0  3.90271  0  0.518042  0  0.009677  -0.025601  0  3.889156  0
C  C76  1  0.19533170  0.30775901  0.86033496  1  0  0.077733  0  3.594718  0  0  0.003162  0  3.851148  0  0  0.011242  0  3.862065  0  0.507964  0  0.018387  -0.002302  0  3.843828  0
C  C77  1  0.80468060  0.80775869  0.63966661  1  0  0.077876  0  3.594764  0  0  0.003381  0  3.85107  0  0  0.011436  0  3.862032  0  0.508157  0  0.018421  -0.00209  0  3.843758  0
C  C78  1  0.80465626  0.69223778  0.13966431  1  0  0.077658  0  3.594566  0  0  0.003137  0  3.850967  0  0  0.011178  0  3.8619  0  0.508354  0  0.018356  -0.002316  0  3.843635  0
C  C79  1  0.19532683  0.19223982  0.36033522  1  0  0.077721  0  3.594615  0  0  0.003166  0  3.851022  0  0  0.011218  0  3.86194  0  0.508039  0  0.018352  -0.002297  0  3.843705  0
C  C80  1  0.80860102  0.33919861  0.85360518  1  0  0.068485  0  3.600059  0  0  -0.008075  0  3.861701  0  0  0.000544  0  3.871412  0  0.492461  0  0.012094  -0.013816  0  3.855086  0
C  C81  1  0.19140316  0.83920344  0.64639516  1  0  0.068537  0  3.600051  0  0  -0.008049  0  3.861736  0  0  0.000565  0  3.871456  0  0.49235  0  0.012096  -0.013788  0  3.855114  0
C  C82  1  0.19138693  0.66080076  0.14639318  1  0  0.068267  0  3.600258  0  0  -0.008295  0  3.861868  0  0  0.000316  0  3.871589  0  0.492455  0  0.012014  -0.014031  0  3.855251  0
C  C83  1  0.80859940  0.16079764  0.35360557  1  0  0.068357  0  3.600192  0  0  -0.008145  0  3.861717  0  0  0.000463  0  3.871447  0  0.492336  0  0.012101  -0.013884  0  3.8551  0
C  C84  1  0.24217398  0.50358130  0.83170592  1  0  0.068281  0  3.618479  0  0  -0.00602  0  3.880483  0  0  0.002339  0  3.890292  0  0.52028  0  0.012305  -0.011651  0  3.873948  0
C  C85  1  0.75782371  0.00358076  0.66829371  1  0  0.068347  0  3.618447  0  0  -0.005957  0  3.88043  0  0  0.002399  0  3.890243  0  0.520343  0  0.012329  -0.011587  0  3.873896  0
C  C86  1  0.75781884  0.49641807  0.16829489  1  0  0.068555  0  3.618388  0  0  -0.005804  0  3.880433  0  0  0.002551  0  3.890249  0  0.520348  0  0.012375  -0.011432  0  3.873893  0
C  C87  1  0.24216912  0.99641861  0.33170210  1  0  0.068408  0  3.618602  0  0  -0.005938  0  3.880641  0  0  0.002418  0  3.890459  0  0.520418  0  0.012321  -0.01157  0  3.87411  0
C  C88  1  0.99197834  0.38464103  0.76734295  1  0  0.073627  0  3.57693  0  0  -0.00463  0  3.837496  0  0  0.00405  0  3.848014  0  0.530083  0  0.018823  -0.010451  0  3.83035  0
C  C89  1  0.00802584  0.88464071  0.73265785  1  0  0.07363  0  3.576901  0  0  -0.004674  0  3.837473  0  0  0.004004  0  3.847989  0  0.530114  0  0.018792  -0.010497  0  3.830322  0
C  C90  1  0.00801448  0.61536349  0.23265832  1  0  0.073448  0  3.577004  0  0  -0.004721  0  3.837464  0  0  0.003961  0  3.847963  0  0.529625  0  0.018743  -0.010602  0  3.830402  0
C  C91  1  0.99197347  0.11536123  0.26734049  1  0  0.073501  0  3.577157  0  0  -0.004695  0  3.837621  0  0  0.003988  0  3.848126  0  0.529866  0  0.01878  -0.010517  0  3.830471  0
C  C92  1  0.85751549  0.53700830  0.82685153  1  0  0.083029  0  3.5831  0  0  0.008134  0  3.84228  0  0  0.016439  0  3.852589  0  0.557348  0  0.022994  0.002556  0  3.835228  0
C  C93  1  0.14248869  0.03701034  0.67315017  1  0  0.08283  0  3.58307  0  0  0.008011  0  3.84217  0  0  0.016316  0  3.852479  0  0.557299  0  0.022954  0.002434  0  3.835119  0
C  C94  1  0.14247733  0.46299192  0.17315156  1  0  0.083284  0  3.582838  0  0  0.00839  0  3.841978  0  0  0.016701  0  3.852287  0  0.557524  0  0.023097  0.002811  0  3.834929  0
C  C95  1  0.85751224  0.96299075  0.32684777  1  0  0.08306  0  3.582908  0  0  0.008157  0  3.842123  0  0  0.016465  0  3.852426  0  0.557367  0  0.023056  0.002583  0  3.835075  0
C  C96  1  0.62346957  0.22414987  0.53702139  1  0  0.646687  0  3.908826  0  0  0.598586  0  4.202955  0  0  0.632197  0  4.199531  0  1.570148  0  0.193388  0.575634  0  4.204526  0
C  C97  1  0.37654272  0.72414097  0.96297745  1  0  0.646743  0  3.90886  0  0  0.598561  0  4.202988  0  0  0.632193  0  4.199531  0  1.570098  0  0.193428  0.575613  0  4.204562  0
C  C98  1  0.37654110  0.77586410  0.46297648  1  0  0.646773  0  3.908866  0  0  0.598591  0  4.20298  0  0  0.632215  0  4.19953  0  1.57058  0  0.193448  0.575648  0  4.204551  0
C  C99  1  0.62345010  0.27585497  0.03702064  1  0  0.647049  0  3.908593  0  0  0.598945  0  4.202641  0  0  0.632575  0  4.199185  0  1.57014  0  0.193576  0.575993  0  4.204216  0
C  C100  1  0.68988479  0.34548962  0.55814094  1  0  -0.061355  0  3.683011  0  0  -0.113598  0  3.94473  0  0  -0.11264  0  3.948222  0  0.425238  0  -0.070636  -0.114295  0  3.942333  0
C  C101  1  0.31013725  0.84548415  0.94185918  1  0  -0.061326  0  3.683461  0  0  -0.113409  0  3.94478  0  0  -0.112459  0  3.948271  0  0.425138  0  -0.070543  -0.11412  0  3.942402  0
C  C102  1  0.31013562  0.65451662  0.44186002  1  0  -0.061326  0  3.68335  0  0  -0.113357  0  3.944658  0  0  -0.112396  0  3.948132  0  0.425139  0  -0.070522  -0.11407  0  3.942293  0
C  C103  1  0.68986045  0.15451350  0.05814182  1  0  -0.061601  0  3.683578  0  0  -0.113766  0  3.945117  0  0  -0.112823  0  3.948617  0  0.425424  0  -0.070669  -0.114453  0  3.942712  0
C  C104  1  0.62134709  0.49536298  0.62468858  1  0  -0.055704  0  3.69146  0  0  -0.106108  0  3.95156  0  0  -0.10501  0  3.955497  0  0.475871  0  -0.075666  -0.106833  0  3.948802  0
C  C105  1  0.37868143  0.99535666  0.87531405  1  0  -0.055487  0  3.691282  0  0  -0.106073  0  3.951475  0  0  -0.104974  0  3.955411  0  0.475538  0  -0.0757  -0.106751  0  3.948659  0
C  C106  1  0.37866196  0.50464411  0.37531331  1  0  -0.05547  0  3.691498  0  0  -0.10583  0  3.951408  0  0  -0.104756  0  3.955378  0  0.475542  0  -0.075576  -0.106515  0  3.948604  0
C  C107  1  0.62133249  0.00463842  0.12468712  1  0  -0.055677  0  3.691435  0  0  -0.106101  0  3.951505  0  0  -0.105001  0  3.955439  0  0.47605  0  -0.075706  -0.106797  0  3.948715  0
C  C108  1  0.46265581  0.53769338  0.66749888  1  0  0.634544  0  3.948079  0  0  0.592475  0  4.23989  0  0  0.624253  0  4.236878  0  1.573134  0  0.172734  0.570886  0  4.240918  0
C  C109  1  0.53737434  0.03768253  0.83250291  1  0  0.634669  0  3.947907  0  0  0.592633  0  4.239722  0  0  0.624416  0  4.236705  0  1.57347  0  0.172889  0.571031  0  4.240745  0
C  C110  1  0.53734188  0.46231715  0.33250258  1  0  0.634675  0  3.947523  0  0  0.592591  0  4.239347  0  0  0.624378  0  4.236332  0  1.573105  0  0.17278  0.570991  0  4.240374  0
C  C111  1  0.46264607  0.96230911  0.16749669  1  0  0.63474  0  3.947855  0  0  0.592674  0  4.239648  0  0  0.624455  0  4.236628  0  1.573044  0  0.172807  0.571076  0  4.240674  0
N  N112  1  0.84763653  0.45621930  0.87794902  1  0  -0.255307  0  3.231065  0  0  -0.162305  0  3.48267  0  0  -0.181297  0  3.500724  0  -0.998446  0  -0.356359  -0.148915  0  3.46977  0
N  N113  1  0.15237252  0.95622070  0.62205197  1  0  -0.255178  0  3.230865  0  0  -0.162182  0  3.482486  0  0  -0.18118  0  3.500544  0  -0.99851  0  -0.356385  -0.14879  0  3.469584  0
N  N114  1  0.15235954  0.54377749  0.12205283  1  0  -0.255282  0  3.230843  0  0  -0.16221  0  3.482404  0  0  -0.181205  0  3.50046  0  -0.998285  0  -0.356383  -0.148819  0  3.4695  0
N  N115  1  0.84762842  0.04377609  0.37794462  1  0  -0.255157  0  3.230868  0  0  -0.162108  0  3.482506  0  0  -0.1811  0  3.500561  0  -0.998399  0  -0.356344  -0.148718  0  3.469603  0
N  N116  1  0.23758339  0.42473849  0.88366724  1  0  -0.266699  0  3.239955  0  0  -0.17894  0  3.495263  0  0  -0.197307  0  3.513037  0  -0.988828  0  -0.351494  -0.165931  0  3.482578  0
N  N117  1  0.76242080  0.92473818  0.61633219  1  0  -0.26685  0  3.239961  0  0  -0.179108  0  3.495342  0  0  -0.19747  0  3.513112  0  -0.98888  0  -0.351538  -0.166102  0  3.48266  0
N  N118  1  0.76240944  0.57525658  0.11633267  1  0  -0.266799  0  3.239858  0  0  -0.179026  0  3.49528  0  0  -0.197388  0  3.513057  0  -0.988875  0  -0.351523  -0.166021  0  3.482596  0
N  N119  1  0.23757852  0.07525432  0.38366569  1  0  -0.266822  0  3.239716  0  0  -0.178997  0  3.495152  0  0  -0.197366  0  3.512921  0  -0.988948  0  -0.351556  -0.165991  0  3.482479  0
N  N120  1  0.03236299  0.50307651  0.79072088  1  0  -0.263056  0  3.268736  0  0  -0.16233  0  3.522127  0  0  -0.182409  0  3.540946  0  -0.998667  0  -0.361016  -0.148333  0  3.508714  0
N  N121  1  0.96763632  0.00307597  0.70927928  1  0  -0.263101  0  3.268694  0  0  -0.162365  0  3.522061  0  0  -0.182443  0  3.540876  0  -0.998679  0  -0.361014  -0.148367  0  3.508647  0
N  N122  1  0.96762821  0.49692629  0.20928124  1  0  -0.263259  0  3.268727  0  0  -0.162543  0  3.522129  0  0  -0.182621  0  3.54094  0  -0.998736  0  -0.361067  -0.14853  0  3.508729  0
N  N123  1  0.03236137  0.99692512  0.29071763  1  0  -0.263141  0  3.26888  0  0  -0.162404  0  3.522243  0  0  -0.182483  0  3.541062  0  -0.998777  0  -0.361095  -0.148408  0  3.508831  0
N  N124  1  0.98507703  0.30227755  0.81871169  1  0  -0.26619  0  3.275644  0  0  -0.161418  0  3.530906  0  0  -0.181996  0  3.549359  0  -0.953991  0  -0.362449  -0.147055  0  3.517704  0
N  N125  1  0.01493202  0.80227810  0.68128975  1  0  -0.26613  0  3.275666  0  0  -0.161392  0  3.530996  0  0  -0.181962  0  3.549452  0  -0.953989  0  -0.362407  -0.147032  0  3.517795  0
N  N126  1  0.01491093  0.69772267  0.18128758  1  0  -0.266042  0  3.275582  0  0  -0.161289  0  3.530755  0  0  -0.181859  0  3.549219  0  -0.953869  0  -0.362456  -0.146915  0  3.51757  0
N  N127  1  0.98507540  0.19772041  0.31871026  1  0  -0.266091  0  3.275594  0  0  -0.161395  0  3.530918  0  0  -0.181977  0  3.549387  0  -0.954128  0  -0.362414  -0.147033  0  3.517717  0
O  O128  1  0.71505276  0.18715842  0.49231223  1  0  -0.643545  0  2.043874  0  0  -0.572811  0  2.299062  0  0  -0.604783  0  2.289311  0  -1.161782  0  -0.342896  -0.550514  0  2.30499  0
O  O129  1  0.28495954  0.68715038  0.00768842  1  0  -0.643646  0  2.043577  0  0  -0.572912  0  2.298806  0  0  -0.60489  0  2.289043  0  -1.161701  0  -0.342998  -0.550614  0  2.304733  0
O  O130  1  0.28495467  0.81285125  0.50768869  1  0  -0.643742  0  2.043416  0  0  -0.573001  0  2.298643  0  0  -0.604987  0  2.288885  0  -1.161797  0  -0.343025  -0.550702  0  2.304568  0
O  O131  1  0.71503329  0.31284298  0.99231376  1  0  -0.643739  0  2.043864  0  0  -0.573023  0  2.299071  0  0  -0.605001  0  2.289303  0  -1.162209  0  -0.343045  -0.550728  0  2.305005  0
O  O132  1  0.48892721  0.17091494  0.56491769  1  0  -0.596239  0  2.054652  0  0  -0.526356  0  2.307674  0  0  -0.555772  0  2.295439  0  -1.128939  0  -0.330402  -0.506014  0  2.315462  0
O  O133  1  0.51106886  0.67090947  0.93507780  1  0  -0.59605  0  2.054807  0  0  -0.526176  0  2.307851  0  0  -0.555597  0  2.295602  0  -1.129138  0  -0.330287  -0.505834  0  2.315637  0
O  O134  1  0.51105588  0.82909473  0.43507957  1  0  -0.595975  0  2.055047  0  0  -0.526108  0  2.308095  0  0  -0.55553  0  2.295856  0  -1.129657  0  -0.330287  -0.50577  0  2.31588  0
O  O135  1  0.48890774  0.32908303  0.06492013  1  0  -0.596266  0  2.054409  0  0  -0.526378  0  2.307386  0  0  -0.555804  0  2.295141  0  -1.128597  0  -0.330407  -0.506036  0  2.315176  0
O  O136  1  0.58228724  0.37925315  0.60800224  1  0  -0.248699  0  2.319345  0  0  -0.183573  0  2.55947  0  0  -0.196017  0  2.559207  0  -1.039469  0  -0.231203  -0.174583  0  2.559217  0
O  O137  1  0.41775426  0.87924768  0.89200544  1  0  -0.248938  0  2.31961  0  0  -0.183621  0  2.559567  0  0  -0.196066  0  2.559303  0  -1.039243  0  -0.231274  -0.17464  0  2.559304  0
O  O138  1  0.41774452  0.62075309  0.39200552  1  0  -0.24887  0  2.319577  0  0  -0.183678  0  2.559511  0  0  -0.196118  0  2.55925  0  -1.039184  0  -0.231289  -0.174695  0  2.559255  0
O  O139  1  0.58225641  0.12074739  0.10799788  1  0  -0.248659  0  2.319652  0  0  -0.183448  0  2.55966  0  0  -0.19589  0  2.559401  0  -1.039678  0  -0.231151  -0.174468  0  2.559397  0
O  O140  1  0.27866673  0.48873888  0.66382225  1  0  -0.63178  0  1.963061  0  0  -0.570754  0  2.201185  0  0  -0.598708  0  2.189791  0  -1.16043  0  -0.356261  -0.550935  0  2.208332  0
O  O141  1  0.72136017  0.98872311  0.83617851  1  0  -0.631764  0  1.963139  0  0  -0.570753  0  2.201247  0  0  -0.598704  0  2.189848  0  -1.16088  0  -0.356235  -0.550937  0  2.2084  0
O  O142  1  0.72134232  0.51126478  0.33617828  1  0  -0.631784  0  1.962906  0  0  -0.570776  0  2.201034  0  0  -0.598727  0  2.189636  0  -1.160562  0  -0.356224  -0.550958  0  2.208184  0
O  O143  1  0.27866024  0.01126681  0.16382700  1  0  -0.631864  0  1.962973  0  0  -0.570852  0  2.201099  0  0  -0.598803  0  2.189702  0  -1.160504  0  -0.356312  -0.551033  0  2.208249  0
O  O144  1  0.52482605  0.62261000  0.70171353  1  0  -0.683049  0  1.907186  0  0  -0.632322  0  2.144299  0  0  -0.658404  0  2.133817  0  -1.196714  0  -0.359196  -0.613664  0  2.151011  0
O  O145  1  0.47519922  0.12260431  0.79828808  1  0  -0.683127  0  1.906892  0  0  -0.632403  0  2.144003  0  0  -0.658485  0  2.133519  0  -1.196677  0  -0.359284  -0.613737  0  2.150709  0
O  O146  1  0.47517002  0.37739280  0.29828696  1  0  -0.683209  0  1.906722  0  0  -0.632492  0  2.143848  0  0  -0.658575  0  2.133364  0  -1.196523  0  -0.359311  -0.613832  0  2.150564  0
O  O147  1  0.52480982  0.87738562  0.20171063  1  0  -0.683115  0  1.906979  0  0  -0.632378  0  2.144066  0  0  -0.658459  0  2.133582  0  -1.196675  0  -0.359186  -0.613718  0  2.150781  0
