# generated using pymatgen
data_ZnH31C31NO4
_symmetry_space_group_name_H-M   'P 1'
_cell_length_a   10.80968700
_cell_length_b   18.23469910
_cell_length_c   19.65596920
_cell_angle_alpha   89.98867923
_cell_angle_beta   90.04329348
_cell_angle_gamma   89.72197857
_symmetry_Int_Tables_number   1
_chemical_formula_structural   ZnH31C31NO4
_chemical_formula_sum   'Zn2 H62 C62 N2 O8'
_cell_volume   3874.36860685
_cell_formula_units_Z   2
loop_
 _symmetry_equiv_pos_site_id
 _symmetry_equiv_pos_as_xyz
  1  'x, y, z'
loop_
 _atom_site_type_symbol
 _atom_site_label
 _atom_site_symmetry_multiplicity
 _atom_site_fract_x
 _atom_site_fract_y
 _atom_site_fract_z
 _atom_site_occupancy
 _atom_site_pbe_bader_charge
 _atom_site_pbe_bader_spin_density
 _atom_site_pbe_cm5_charge
 _atom_site_pbe_ddec_charge
 _atom_site_pbe_ddec_spin_density
 _atom_site_pbe_ddec_sum_bond_order
 _atom_site_pbe_magmom
Zn  Zn0  1  0.49795070  0.42362341  0.49865278  1  1.270353  0  0.663529  0.805965  0  2.433741  0
Zn  Zn1  1  0.50186793  0.57633516  0.49867683  1  1.262814  0  0.663715  0.805956  0  2.434197  0
H  H2  1  0.08302868  0.43880059  0.60530241  1  0.057412  0  0.094764  0.082028  0  1.009634  0
H  H3  1  0.91600019  0.56077754  0.40242482  1  0.068827  0  0.095592  0.080494  0  0.996807  0
H  H4  1  0.93249076  0.37131122  0.50364142  1  0.061492  0  0.091138  0.076343  0  1.004034  0
H  H5  1  0.06735892  0.62872191  0.50338143  1  0.060488  0  0.091035  0.076357  0  1.003644  0
H  H6  1  0.08324104  0.43911067  0.40242108  1  0.06793  0  0.095645  0.080542  0  0.996779  0
H  H7  1  0.91744281  0.56136249  0.60530106  1  0.053608  0  0.094473  0.081869  0  1.008982  0
H  H8  1  0.32836650  0.55929731  0.15442531  1  0.034874  0  0.095724  0.098878  0  1.012044  0
H  H9  1  0.34213014  0.42942366  0.84327164  1  0.027065  0  0.096353  0.100251  0  1.010313  0
H  H10  1  0.65932006  0.57068772  0.84299633  1  0.032595  0  0.096196  0.100104  0  1.010849  0
H  H11  1  0.67340107  0.44086476  0.15487733  1  0.045771  0  0.095884  0.099274  0  1.012342  0
H  H12  1  0.51644542  0.38249847  0.06218980  1  0.051779  0  0.097592  0.097528  0  1.003263  0
H  H13  1  0.48787923  0.61774323  0.93554126  1  0.062336  0  0.097352  0.09712  0  1.002865  0
H  H14  1  0.51410057  0.38243721  0.93563154  1  0.063544  0  0.097724  0.097391  0  1.003059  0
H  H15  1  0.48576854  0.61771544  0.06208676  1  0.048231  0  0.097428  0.097264  0  1.003361  0
H  H16  1  0.43675880  0.30704408  0.39823999  1  0.120057  0  0.1281  0.104178  0  0.989958  0
H  H17  1  0.56361983  0.69293135  0.39840930  1  0.120994  0  0.128094  0.104008  0  0.989853  0
H  H18  1  0.55584796  0.30777020  0.59792265  1  0.118126  0  0.127183  0.103254  0  0.999255  0
H  H19  1  0.44320501  0.69214663  0.59774594  1  0.116171  0  0.127264  0.103353  0  0.998777  0
H  H20  1  0.43944589  0.16908517  0.39349022  1  0.108409  0  0.115107  0.122749  0  0.978442  0
H  H21  1  0.56116108  0.83089786  0.39366433  1  0.103254  0  0.115161  0.122889  0  0.978401  0
H  H22  1  0.55557300  0.16983518  0.60357173  1  0.092162  0  0.115045  0.122429  0  0.978737  0
H  H23  1  0.44349247  0.83008089  0.60340742  1  0.086404  0  0.114948  0.122  0  0.979031  0
H  H24  1  0.23711908  0.67625820  0.33105873  1  0.015071  0  0.082629  0.109466  0  1.004628  0
H  H25  1  0.39972474  0.66144078  0.33183481  1  0.050398  0  0.079955  0.107658  0  1.05027  0
H  H26  1  0.32321417  0.68170584  0.25379259  1  0.015009  0  0.078307  0.100947  0  1.014619  0
H  H27  1  0.21018106  0.56140215  0.26176346  1  0.021319  0  0.089359  0.081951  0  0.976864  0
H  H28  1  0.28212988  0.54334250  0.34075422  1  0.0726  0  0.093193  0.096511  0  0.991571  0
H  H29  1  0.27265315  0.30305077  0.67596918  1  0.001937  0  0.082094  0.107317  0  1.006862  0
H  H30  1  0.43284323  0.32347246  0.68415290  1  0.044946  0  0.080564  0.105445  0  1.04084  0
H  H31  1  0.34161164  0.31021694  0.75815374  1  0.003494  0  0.079663  0.102535  0  1.014042  0
H  H32  1  0.22254314  0.42486069  0.73243135  1  0.039243  0  0.089243  0.08173  0  0.977627  0
H  H33  1  0.30218662  0.43499939  0.65453931  1  0.03041  0  0.092796  0.095596  0  1.008468  0
H  H34  1  0.65907073  0.68991811  0.75773721  1  0.008668  0  0.079686  0.102632  0  1.014224  0
H  H35  1  0.56719460  0.67652734  0.68390081  1  0.02719  0  0.080415  0.105149  0  1.040819  0
H  H36  1  0.72728834  0.69700362  0.67541322  1  0.022949  0  0.081831  0.106981  0  1.006919  0
H  H37  1  0.77807858  0.57529182  0.73194851  1  -0.010563  0  0.08907  0.082107  0  0.977247  0
H  H38  1  0.69782658  0.56505879  0.65419347  1  0.026065  0  0.092859  0.096478  0  1.0083  0
H  H39  1  0.76321902  0.32360157  0.33164499  1  0.028254  0  0.082267  0.10867  0  1.004167  0
H  H40  1  0.60061345  0.33856365  0.33189047  1  0.042655  0  0.079905  0.107067  0  1.050416  0
H  H41  1  0.67768061  0.31839585  0.25407946  1  0.011719  0  0.078296  0.100369  0  1.015225  0
H  H42  1  0.79085942  0.43859067  0.26256217  1  0.0197  0  0.089628  0.082357  0  0.97677  0
H  H43  1  0.71842477  0.45654568  0.34135792  1  0.067574  0  0.093402  0.096666  0  0.991872  0
H  H44  1  0.79421955  0.03753667  0.39672406  1  0.040375  0  0.083973  0.107735  0  1.016332  0
H  H45  1  0.71171286  0.12167576  0.39142524  1  0.038718  0  0.085684  0.114202  0  1.008094  0
H  H46  1  0.86734214  0.12093281  0.42065924  1  0.025716  0  0.087924  0.116591  0  0.9975  0
H  H47  1  0.72253353  0.13534161  0.51833236  1  0.04126  0  0.090075  0.08532  0  1.013675  0
H  H48  1  0.80554849  0.05298447  0.52552580  1  0.035846  0  0.091898  0.086662  0  0.999906  0
H  H49  1  0.20625443  0.96231908  0.39596159  1  0.032268  0  0.084156  0.108169  0  1.014973  0
H  H50  1  0.28886070  0.87819046  0.39099690  1  0.030398  0  0.085606  0.114414  0  1.008618  0
H  H51  1  0.13313345  0.87890538  0.41984344  1  0.027404  0  0.08799  0.116865  0  0.997489  0
H  H52  1  0.19429929  0.94700530  0.52474906  1  0.039626  0  0.091841  0.086136  0  1.000733  0
H  H53  1  0.27730332  0.86460975  0.51790809  1  0.003129  0  0.089826  0.084911  0  1.014188  0
H  H54  1  0.13212129  0.11975177  0.57968134  1  0.021825  0  0.087617  0.116156  0  0.996739  0
H  H55  1  0.20913636  0.03705740  0.60335267  1  0.032895  0  0.084338  0.108249  0  1.014753  0
H  H56  1  0.28884935  0.12178912  0.60704023  1  0.003242  0  0.085449  0.113345  0  1.011328  0
H  H57  1  0.27301969  0.13429227  0.48019017  1  0.04567  0  0.090064  0.085733  0  1.012223  0
H  H58  1  0.19197637  0.05154809  0.47456516  1  0.035314  0  0.092005  0.086796  0  1.00029  0
H  H59  1  0.79029971  0.96279652  0.60415368  1  0.028474  0  0.084173  0.108255  0  1.014116  0
H  H60  1  0.71053804  0.87809086  0.60762932  1  0.036975  0  0.085377  0.113349  0  1.011097  0
H  H61  1  0.86739309  0.88008671  0.58065108  1  0.024329  0  0.087802  0.116429  0  0.996731  0
H  H62  1  0.80815107  0.94837031  0.47540898  1  0.006362  0  0.091999  0.086457  0  1.000333  0
H  H63  1  0.72703672  0.86565614  0.48083147  1  0.051167  0  0.090064  0.085376  0  1.012762  0
C  C64  1  0.49997006  0.49997789  0.63226852  1  1.53702  0  0.216421  0.604459  0  4.190038  0
C  C65  1  0.50022493  0.50001287  0.36542142  1  1.518681  0  0.218721  0.610019  0  4.186255  0
C  C66  1  0.50998353  0.43417331  0.03433968  1  -0.070261  0  -0.096976  -0.134755  0  4.010395  0
C  C67  1  0.49402464  0.56608330  0.96340399  1  -0.024464  0  -0.096634  -0.13308  0  4.0107  0
C  C68  1  0.50807483  0.43409783  0.96345932  1  -0.036954  0  -0.096527  -0.132561  0  4.010093  0
C  C69  1  0.49214232  0.56602783  0.03428657  1  -0.067404  0  -0.096633  -0.133947  0  4.010418  0
C  C70  1  0.50103528  0.50009067  0.92680333  1  -0.048824  0  -0.011472  0.066552  0  4.012537  0
C  C71  1  0.50106294  0.50011391  0.07093864  1  -0.015484  0  -0.011079  0.068851  0  4.010922  0
C  C72  1  0.46352238  0.27383679  0.44207152  1  0.435891  0  0.060449  0.101587  0  3.925086  0
C  C73  1  0.53664854  0.72613468  0.44217043  1  0.433622  0  0.060484  0.10178  0  3.923983  0
C  C74  1  0.52955568  0.27422045  0.55436607  1  0.426419  0  0.060184  0.102502  0  3.921963  0
C  C75  1  0.46989097  0.72571338  0.55428074  1  0.428549  0  0.060343  0.102565  0  3.921013  0
C  C76  1  0.46462146  0.19764823  0.44018124  1  -0.04577  0  -0.078667  -0.184205  0  3.955952  0
C  C77  1  0.53560785  0.80232913  0.44028223  1  -0.037477  0  -0.078563  -0.184384  0  3.955471  0
C  C78  1  0.52985416  0.19807773  0.55673426  1  0.079288  0  -0.07821  -0.183793  0  3.958184  0
C  C79  1  0.46968593  0.80186156  0.55666687  1  0.08304  0  -0.077957  -0.182982  0  3.957022  0
C  C80  1  0.49773328  0.15794623  0.49858214  1  -0.040317  0  0.022644  0.139722  0  3.980884  0
C  C81  1  0.50218065  0.84200630  0.49860048  1  -0.040397  0  0.022403  0.139676  0  3.980125  0
C  C82  1  0.61356781  0.03887527  0.49909106  1  0.106017  0  -0.010754  0.022448  0  3.921589  0
C  C83  1  0.38641943  0.96106673  0.49880587  1  0.041003  0  -0.010703  0.021831  0  3.922725  0
C  C84  1  0.38535296  0.03836927  0.49909896  1  -0.009098  0  -0.011272  0.021692  0  3.923276  0
C  C85  1  0.61462424  0.96157102  0.49940542  1  -0.143189  0  -0.011067  0.021596  0  3.923044  0
C  C86  1  0.50106461  0.92366708  0.49889281  1  0.071532  0  -0.014507  -0.06106  0  3.973705  0
C  C87  1  0.49890130  0.07627878  0.49886726  1  -0.129569  0  -0.014535  -0.06099  0  3.972737  0
C  C88  1  0.73801891  0.49626034  0.50188523  1  1.531148  0  0.211415  0.589833  0  4.189113  0
C  C89  1  0.26180814  0.50373317  0.50164758  1  1.533604  0  0.212126  0.590437  0  4.187557  0
C  C90  1  0.96392615  0.42826441  0.50384408  1  -0.043762  0  -0.082238  -0.071123  0  3.657358  0
C  C91  1  0.03593847  0.57176537  0.50369872  1  -0.043011  0  -0.082597  -0.072143  0  3.657948  0
C  C92  1  0.04387361  0.46583345  0.44738716  1  -0.047905  0  -0.074918  -0.065397  0  3.636246  0
C  C93  1  0.95580445  0.53428412  0.56026393  1  -0.033687  0  -0.077728  -0.06682  0  3.634015  0
C  C94  1  0.04440654  0.46582963  0.56027316  1  -0.021426  0  -0.077628  -0.066733  0  3.634036  0
C  C95  1  0.95568452  0.53410464  0.44736995  1  -0.034876  0  -0.074153  -0.064256  0  3.634506  0
C  C96  1  0.12482139  0.50397507  0.50416782  1  0.038725  0  -0.009282  -0.025116  0  3.658682  0
C  C97  1  0.87502871  0.49604199  0.50431413  1  0.043714  0  -0.009234  -0.025483  0  3.658635  0
C  C98  1  0.40217090  0.53394089  0.25370635  1  0.007557  0  -0.009389  0.106346  0  3.958112  0
C  C99  1  0.41036847  0.45927617  0.74404501  1  0.038479  0  -0.00803  0.112632  0  3.949419  0
C  C100  1  0.59038379  0.54076227  0.74386008  1  0.029986  0  -0.008008  0.110798  0  3.951529  0
C  C101  1  0.59896428  0.46617062  0.25394905  1  -0.013298  0  -0.009365  0.107064  0  3.95817  0
C  C102  1  0.40473691  0.53399650  0.18254567  1  -0.071415  0  -0.101822  -0.209699  0  3.981729  0
C  C103  1  0.41254040  0.45978608  0.81518443  1  -0.138178  0  -0.101484  -0.210231  0  3.978607  0
C  C104  1  0.58873087  0.54032193  0.81501349  1  -0.071564  0  -0.101417  -0.209434  0  3.979709  0
C  C105  1  0.59687908  0.46620196  0.18277502  1  -0.086607  0  -0.101871  -0.210949  0  3.983776  0
C  C106  1  0.50093489  0.50013216  0.14627042  1  1.5e-05  0  -0.015369  0.073151  0  4.063433  0
C  C107  1  0.50076728  0.50008845  0.85147192  1  0.00885  0  -0.015099  0.073454  0  4.064336  0
C  C108  1  0.50044422  0.50001063  0.28890377  1  0.058031  0  -0.01835  -0.141005  0  3.910116  0
C  C109  1  0.50024359  0.50001508  0.70874869  1  0.053316  0  -0.019296  -0.142954  0  3.908384  0
C  C110  1  0.29574285  0.56992251  0.29110723  1  -0.052227  0  -0.160433  -0.139718  0  3.962087  0
C  C111  1  0.31486789  0.65240797  0.30246792  1  -0.063155  0  -0.247439  -0.346057  0  3.96904  0
C  C112  1  0.31231007  0.41559280  0.70719369  1  -0.013185  0  -0.162339  -0.146774  0  3.966048  0
C  C113  1  0.34117772  0.33307638  0.70640147  1  -0.042384  0  -0.246267  -0.343038  0  3.970703  0
C  C114  1  0.68809278  0.58448604  0.70684262  1  0.036693  0  -0.16238  -0.147666  0  3.965861  0
C  C115  1  0.65907788  0.66697858  0.70601493  1  -0.050245  0  -0.245832  -0.342347  0  3.970585  0
C  C116  1  0.70506444  0.43007518  0.29162805  1  -0.04291  0  -0.1608  -0.140539  0  3.962036  0
C  C117  1  0.68573502  0.34757951  0.30282075  1  -0.066304  0  -0.247049  -0.34379  0  3.96789  0
C  C118  1  0.73398632  0.08095583  0.49526864  1  -0.045492  0  -0.164565  -0.147048  0  3.98657  0
C  C119  1  0.77959700  0.09075896  0.42182278  1  -0.090046  0  -0.241266  -0.346755  0  3.957936  0
C  C120  1  0.26602705  0.91898597  0.49473706  1  -0.00794  0  -0.164523  -0.145867  0  3.986334  0
C  C121  1  0.22080113  0.90911571  0.42118191  1  -0.078239  0  -0.241318  -0.347785  0  3.957275  0
C  C122  1  0.26393391  0.08002019  0.50377677  1  -0.031774  0  -0.164779  -0.147548  0  3.986315  0
C  C123  1  0.22086758  0.09017118  0.57769090  1  -0.039197  0  -0.241291  -0.346384  0  3.957158  0
C  C124  1  0.73600927  0.91991132  0.50443610  1  -0.008941  0  -0.164755  -0.146853  0  3.987258  0
C  C125  1  0.77868263  0.90971000  0.57844789  1  -0.075169  0  -0.241185  -0.346567  0  3.956847  0
N  N126  1  0.49613836  0.31133984  0.49812595  1  -1.229428  0  -0.320046  -0.193449  0  3.520394  0
N  N127  1  0.50361169  0.68860627  0.49813424  1  -1.230313  0  -0.320312  -0.19358  0  3.519962  0
O  O128  1  0.52770676  0.43988851  0.60284809  1  -1.162401  0  -0.313554  -0.548612  0  2.304497  0
O  O129  1  0.52974639  0.55956223  0.39491556  1  -1.169678  0  -0.312679  -0.55176  0  2.312593  0
O  O130  1  0.47047340  0.44043380  0.39481466  1  -1.168185  0  -0.312927  -0.55223  0  2.311328  0
O  O131  1  0.47205680  0.56004010  0.60281364  1  -1.162441  0  -0.313552  -0.548713  0  2.30503  0
O  O132  1  0.68412303  0.43717376  0.48434980  1  -1.165891  0  -0.320591  -0.547882  0  2.310199  0
O  O133  1  0.31566909  0.56281830  0.48414937  1  -1.165647  0  -0.321148  -0.548261  0  2.31006  0
O  O134  1  0.31454628  0.44287552  0.51607464  1  -1.169811  0  -0.324768  -0.553897  0  2.316199  0
O  O135  1  0.68529160  0.55708066  0.51635627  1  -1.16957  0  -0.324625  -0.553785  0  2.317306  0
