# generated using pymatgen
data_CoH12C14S3(N2Cl)2
_symmetry_space_group_name_H-M   'P 1'
_cell_length_a   8.44891759
_cell_length_b   9.03814382
_cell_length_c   11.96834639
_cell_angle_alpha   104.96999707
_cell_angle_beta   95.11434296
_cell_angle_gamma   101.86283784
_symmetry_Int_Tables_number   1
_chemical_formula_structural   CoH12C14S3(N2Cl)2
_chemical_formula_sum   'Co2 H24 C28 S6 N8 Cl4'
_cell_volume   854.22284808
_cell_formula_units_Z   2
loop_
 _symmetry_equiv_pos_site_id
 _symmetry_equiv_pos_as_xyz
  1  'x, y, z'
loop_
 _atom_site_type_symbol
 _atom_site_label
 _atom_site_symmetry_multiplicity
 _atom_site_fract_x
 _atom_site_fract_y
 _atom_site_fract_z
 _atom_site_occupancy
 _atom_site_hle17_ddec_charge
 _atom_site_hle17_ddec_spin_density
 _atom_site_hle17_ddec_sum_bond_order
 _atom_site_hle17_magmom
 _atom_site_hse06_10hf_ddec_charge
 _atom_site_hse06_10hf_ddec_spin_density
 _atom_site_hse06_10hf_ddec_sum_bond_order
 _atom_site_hse06_10hf_magmom
 _atom_site_hse06_ddec_charge
 _atom_site_hse06_ddec_spin_density
 _atom_site_hse06_ddec_sum_bond_order
 _atom_site_hse06_magmom
 _atom_site_pbe_cm5_charge
 _atom_site_pbe_ddec_charge
 _atom_site_pbe_ddec_spin_density
 _atom_site_pbe_ddec_sum_bond_order
 _atom_site_pbe_magmom
Co  Co0  1  0.19312311  0.64638703  0.83862872  1  0.746849  -2.793196  2.339152  -2.451  0.698052  -2.786796  2.822613  -2.512  0.792137  -2.842866  2.738252  -2.621  0.53744  0.627707  -2.736695  2.884154  -2.416
Co  Co1  1  0.80688233  0.35361370  0.16136918  1  0.746966  -2.793206  2.339081  -2.451  0.6982  -2.786806  2.822525  -2.512  0.792251  -2.842867  2.738195  -2.621  0.537482  0.627802  -2.736691  2.884137  -2.416
H  H2  1  0.05866326  0.65341955  0.60724591  1  0.066463  -0.00078  0.991116  -0.002  0.068824  -0.000825  1.069127  -0.001  0.070662  -0.000581  1.068149  -0.001  0.101383  0.067438  -0.001066  1.069988  -0.001
H  H3  1  0.94133298  0.34657764  0.39275406  1  0.066429  -0.000781  0.991151  -0.002  0.068794  -0.000825  1.069153  -0.001  0.070634  -0.000581  1.068172  -0.001  0.101354  0.067408  -0.001067  1.070011  -0.001
H  H4  1  0.78491208  0.56235393  0.47861569  1  0.115231  -0.000145  0.950427  0.0  0.120836  -0.000219  1.015473  0.0  0.124596  -9.7e-05  1.013431  0.0  0.105207  0.118104  -0.000363  1.017058  -0.001
H  H5  1  0.21508743  0.43764209  0.52138174  1  0.115179  -0.000145  0.950483  0.0  0.120794  -0.000219  1.015533  0.0  0.124553  -9.7e-05  1.013491  0.0  0.105195  0.118062  -0.000363  1.01712  -0.001
H  H6  1  0.54485850  0.42121406  0.55149789  1  0.111881  -0.000267  0.961945  -0.001  0.118219  -0.00014  1.029536  0.0  0.121921  -9.2e-05  1.025763  0.0  0.106312  0.11524  -0.00018  1.03298  0.0
H  H7  1  0.45514129  0.57878312  0.44850145  1  0.111896  -0.000268  0.96193  -0.001  0.118238  -0.00014  1.029502  0.0  0.12194  -9.2e-05  1.025728  0.0  0.106307  0.115263  -0.00018  1.032948  0.0
H  H8  1  0.86457019  0.48427899  0.86928045  1  0.079134  -0.001  0.98202  -0.002  0.083296  -0.001091  1.05884  -0.002  0.085597  -0.000743  1.05691  -0.001  0.100599  0.081492  -0.001447  1.060361  -0.002
H  H9  1  0.13543139  0.51572526  0.13072126  1  0.079187  -0.001001  0.982003  -0.002  0.083341  -0.001091  1.058813  -0.002  0.085646  -0.000743  1.056884  -0.001  0.100638  0.081537  -0.001447  1.060335  -0.002
H  H10  1  0.43254263  0.40078663  0.74067139  1  0.119247  9.4e-05  0.958656  0.0  0.126536  0.000134  1.031077  0.0  0.128491  0.000197  1.030436  0.0  0.098338  0.124798  3.4e-05  1.031876  0.0
H  H11  1  0.56745806  0.59921409  0.25932872  1  0.119241  9.4e-05  0.958665  0.0  0.12653  0.000134  1.031082  0.0  0.128487  0.000197  1.030439  0.0  0.09833  0.124792  3.4e-05  1.031878  0.0
H  H12  1  0.57135540  0.40759557  0.86376732  1  0.111521  3.3e-05  0.954272  0.0  0.1265  -2e-05  1.014323  0.0  0.129062  5.8e-05  1.012392  0.0  0.092791  0.124303  -0.000101  1.016053  0.0
H  H13  1  0.42864588  0.59240750  0.13623414  1  0.111552  3.3e-05  0.954249  0.0  0.126535  -2e-05  1.014287  0.0  0.129097  5.8e-05  1.012357  0.0  0.092813  0.124338  -0.0001  1.016017  0.0
H  H14  1  0.36847327  0.98257268  0.89908624  1  0.067288  -0.000627  0.99086  -0.002  0.066279  -0.000709  1.072959  -0.001  0.068648  -0.000491  1.071735  -0.001  0.102089  0.064466  -0.000918  1.074024  -0.001
H  H15  1  0.63152266  0.01742806  0.10091358  1  0.067281  -0.000627  0.990804  -0.002  0.0663  -0.000709  1.072887  -0.001  0.06867  -0.000491  1.07166  -0.001  0.102068  0.064482  -0.000919  1.073953  -0.001
H  H16  1  0.38783957  0.22694841  0.06265951  1  0.112892  -0.000459  0.940823  0.0  0.12221  -0.000635  0.999216  -0.001  0.125533  -0.000408  0.998025  0.0  0.106224  0.119453  -0.000889  1.000705  -0.001
H  H17  1  0.61216022  0.77305349  0.93734078  1  0.112907  -0.000458  0.940834  0.0  0.12223  -0.000635  0.99922  -0.001  0.125552  -0.000408  0.998033  0.0  0.106234  0.119471  -0.000889  1.00071  -0.001
H  H18  1  0.21726299  0.20992308  0.22244407  1  0.107265  -0.000101  0.958284  -0.001  0.115817  2e-05  1.022313  0.0  0.118029  4.2e-05  1.021279  0.0  0.105516  0.113977  1.1e-05  1.023694  0.0
H  H19  1  0.78273561  0.79007883  0.77755615  1  0.10722  -0.000102  0.958332  -0.001  0.115772  2e-05  1.022364  0.0  0.117982  4.2e-05  1.021331  0.0  0.105516  0.113933  1.1e-05  1.023745  0.0
H  H20  1  0.01847711  0.71968037  0.03975125  1  0.080589  -0.001206  0.97887  -0.002  0.086173  -0.00133  1.05354  -0.002  0.088472  -0.00094  1.05152  -0.001  0.100977  0.084234  -0.001722  1.055259  -0.002
H  H21  1  0.98152447  0.28031917  0.96024868  1  0.080579  -0.001206  0.978874  -0.002  0.086164  -0.00133  1.053551  -0.002  0.088464  -0.00094  1.051529  -0.001  0.100977  0.084228  -0.001722  1.055267  -0.002
H  H22  1  0.85935116  0.88802518  0.18236598  1  0.105095  -0.000118  0.9535  0.0  0.117152  -9.5e-05  1.021445  0.0  0.118608  -4.8e-05  1.021063  0.0  0.097291  0.115869  -0.00013  1.021976  0.0
H  H23  1  0.14065071  0.11197551  0.81763671  1  0.105071  -0.000118  0.953453  0.0  0.117138  -9.5e-05  1.021401  0.0  0.118597  -4.8e-05  1.021018  0.0  0.097285  0.115857  -0.00013  1.021933  0.0
H  H24  1  0.98041302  0.06543309  0.28380814  1  0.108121  -5.6e-05  0.957016  0.0  0.115358  -0.000124  1.032019  0.0  0.11642  -7.3e-05  1.032208  0.0  0.100881  0.114671  -0.000181  1.03175  0.0
H  H25  1  0.01958944  0.93456998  0.71619339  1  0.108114  -5.6e-05  0.956958  0.0  0.115353  -0.000124  1.031974  0.0  0.116416  -7.3e-05  1.032164  0.0  0.100862  0.114667  -0.000181  1.031706  0.0
C  C26  1  0.95023803  0.59311752  0.63481947  1  0.104367  0.014558  3.699235  0.01  0.07546  -0.000434  3.956685  -0.001  0.084184  -0.000653  3.975236  -0.001  0.033605  0.068543  0.000221  3.9455  0.0
C  C27  1  0.04976029  0.40687849  0.36517872  1  0.104405  0.014574  3.699263  0.01  0.075517  -0.000435  3.956692  -0.001  0.084233  -0.000655  3.975254  -0.001  0.033647  0.068603  0.00022  3.945499  0.0
C  C28  1  0.79880127  0.54157338  0.56411630  1  -0.095847  -0.007565  3.731602  -0.011  -0.108237  -0.001694  3.98569  -0.003  -0.114068  -0.000981  4.002561  -0.002  -0.082697  -0.104583  -0.002422  3.975466  -0.004
C  C29  1  0.20119853  0.45842381  0.43588222  1  -0.095794  -0.007576  3.731519  -0.011  -0.108215  -0.001694  3.985616  -0.003  -0.114043  -0.000982  4.002484  -0.002  -0.082685  -0.104563  -0.002422  3.9754  -0.004
C  C30  1  0.66511723  0.46553228  0.60483796  1  -0.041507  0.016638  3.649546  0.011  -0.070573  0.001355  3.898077  0.001  -0.063736  0.000214  3.910512  0.0  -0.065684  -0.076471  0.003173  3.891614  0.002
C  C31  1  0.33488464  0.53446845  0.39516055  1  -0.04151  0.016657  3.649463  0.011  -0.070546  0.001355  3.898004  0.001  -0.063707  0.000216  3.910438  0.0  -0.065664  -0.076441  0.003172  3.891528  0.002
C  C32  1  0.68591089  0.44374497  0.71645820  1  0.060177  -0.008103  3.741201  -0.012  0.085929  -0.002449  3.975345  -0.004  0.081101  -0.00166  3.998393  -0.003  -0.009089  0.088843  -0.003211  3.960745  -0.005
C  C33  1  0.31408920  0.55625338  0.28354224  1  0.060187  -0.008113  3.741194  -0.012  0.085876  -0.002449  3.975408  -0.004  0.081049  -0.00166  3.998456  -0.003  -0.009116  0.088791  -0.003211  3.960814  -0.005
C  C34  1  0.84235413  0.49825482  0.78181228  1  0.052538  0.015078  3.69323  0.011  0.014222  -0.000241  3.952764  0.0  0.023103  -0.000111  3.970686  0.0  0.03313  0.007503  -0.000112  3.941494  0.0
C  C35  1  0.15764567  0.50174709  0.21818802  1  0.052452  0.015097  3.693212  0.011  0.014165  -0.000242  3.95277  0.0  0.023042  -0.000114  3.970692  0.0  0.033071  0.007447  -0.000113  3.941496  0.0
C  C36  1  0.54559300  0.36958400  0.76775440  1  -0.183996  -9.4e-05  3.64577  0.0  -0.219601  -0.000397  3.882911  -0.001  -0.218946  -0.000182  3.892695  0.0  -0.144137  -0.219806  -0.000655  3.876894  -0.001
C  C37  1  0.45440739  0.63041553  0.23224629  1  -0.184045  -9.3e-05  3.64576  0.0  -0.219627  -0.000397  3.882906  -0.001  -0.218977  -0.000183  3.892696  0.0  -0.14416  -0.219836  -0.000655  3.876896  -0.001
C  C38  1  0.36953639  0.09942779  0.60120471  1  0.068973  0.000142  3.814746  0.0  0.063248  -1.1e-05  4.129627  0.0  0.074187  -9e-06  4.143502  0.0  0.110293  0.055693  -8e-06  4.120308  0.0
C  C39  1  0.63046399  0.90057171  0.39879848  1  0.068956  0.00014  3.814824  0.0  0.063171  -1.1e-05  4.129803  0.0  0.074113  -1e-05  4.143667  0.0  0.110228  0.055615  -8e-06  4.120487  0.0
C  C40  1  0.29538947  0.98199993  0.96966619  1  0.105079  0.014647  3.700213  0.01  0.079769  -0.000304  3.952216  -0.001  0.087639  -0.000668  3.971995  -0.001  0.036261  0.073197  0.000586  3.94084  0.0
C  C41  1  0.70460766  0.01800082  0.03033203  1  0.105055  0.014664  3.700248  0.01  0.079716  -0.000304  3.95225  -0.001  0.087585  -0.000668  3.972028  -0.001  0.03628  0.07315  0.000586  3.940863  0.0
C  C42  1  0.30452167  0.11660178  0.06029313  1  -0.101059  -0.0078  3.73397  -0.011  -0.11159  -0.00175  3.981142  -0.003  -0.117674  -0.000967  3.999118  -0.002  -0.082985  -0.108042  -0.002543  3.970771  -0.004
C  C43  1  0.69548020  0.88339892  0.93970789  1  -0.101083  -0.007811  3.734086  -0.011  -0.111629  -0.001751  3.981264  -0.003  -0.117713  -0.000969  3.99924  -0.002  -0.083003  -0.108079  -0.002543  3.970892  -0.004
C  C44  1  0.20800941  0.10761534  0.14815091  1  -0.035555  0.017724  3.650277  0.012  -0.062813  0.001754  3.8959  0.001  -0.056307  0.000332  3.910401  0.0  -0.063936  -0.068442  0.004048  3.887886  0.003
C  C45  1  0.79198920  0.89238657  0.85184848  1  -0.035501  0.017745  3.650364  0.012  -0.062735  0.001754  3.895984  0.001  -0.056225  0.000332  3.910482  0.0  -0.063931  -0.068365  0.004047  3.887974  0.003
C  C46  1  0.09990657  0.96462373  0.14085915  1  0.060029  -0.007866  3.742736  -0.012  0.085807  -0.00211  3.975997  -0.004  0.080499  -0.001395  3.999426  -0.003  -0.005972  0.089191  -0.002756  3.960873  -0.005
C  C47  1  0.90009115  0.03537939  0.85913876  1  0.060009  -0.007877  3.742862  -0.012  0.085756  -0.00211  3.976159  -0.004  0.080447  -0.001395  3.999594  -0.003  -0.005981  0.089139  -0.002756  3.961041  -0.005
C  C48  1  0.09919602  0.83421751  0.04757591  1  0.069499  0.015937  3.653968  0.011  0.032748  -0.000562  3.907855  -0.001  0.041828  -0.00056  3.925973  -0.001  0.038654  0.02575  -0.000171  3.896737  -0.001
C  C49  1  0.90080348  0.16578322  0.95242413  1  0.069485  0.015955  3.654022  0.011  0.03273  -0.000563  3.90794  -0.001  0.041813  -0.000561  3.926053  -0.001  0.038644  0.025733  -0.000172  3.896817  -0.001
C  C50  1  0.98359684  0.94974790  0.22735442  1  -0.182232  -0.000107  3.658601  0.0  -0.219681  -0.00045  3.902899  -0.001  -0.218363  -0.000299  3.913153  0.0  -0.141117  -0.22015  -0.000615  3.895786  -0.001
C  C51  1  0.01640058  0.05025399  0.77264824  1  -0.182189  -0.000106  3.658479  0.0  -0.219661  -0.00045  3.902828  -0.001  -0.218349  -0.000299  3.913093  0.0  -0.141074  -0.220131  -0.000615  3.89572  -0.001
C  C52  1  0.17257896  0.96481729  0.42996743  1  0.058741  -0.000104  3.847646  0.0  0.05282  -0.000166  4.163599  0.0  0.063887  -9.6e-05  4.177564  0.0  0.106184  0.045604  -0.000257  4.153463  0.0
C  C53  1  0.82742617  0.03518223  0.57003272  1  0.058779  -0.000104  3.847695  0.0  0.052858  -0.000166  4.163621  0.0  0.06393  -9.7e-05  4.177577  0.0  0.106202  0.045642  -0.000257  4.153483  0.0
S  S54  1  0.50243304  0.15429393  0.73247657  1  0.051856  -0.000757  2.359646  -0.001  0.05038  -0.000372  2.692819  0.0  0.044396  -0.000183  2.695092  0.0  0.036735  0.054884  -0.000612  2.691209  -0.001
S  S55  1  0.49756468  0.84570441  0.26752623  1  0.051832  -0.000757  2.359632  -0.001  0.050365  -0.000371  2.692851  0.0  0.044382  -0.00018  2.695124  0.0  0.036723  0.054868  -0.000612  2.69124  -0.001
S  S56  1  0.02593781  0.82838185  0.32116890  1  0.068162  1.1e-05  2.444648  -0.001  0.063129  0.000198  2.795498  0.0  0.055932  0.000302  2.799967  0.0  0.042496  0.067555  4.3e-05  2.793384  0.0
S  S57  1  0.97406554  0.17162003  0.67883245  1  0.06811  1e-05  2.444612  -0.001  0.063106  0.000198  2.795439  0.0  0.055905  0.000302  2.799913  0.0  0.042472  0.06753  4.3e-05  2.79333  0.0
S  S58  1  0.26515971  0.90213470  0.53978226  1  0.101554  -0.000448  2.516883  0.0  0.108409  -0.000628  2.851332  0.0  0.110282  -0.000304  2.85068  0.0  0.100596  0.106348  -0.001018  2.852117  -0.001
S  S59  1  0.73484038  0.09786364  0.46021985  1  0.101534  -0.000448  2.516906  0.0  0.108399  -0.000627  2.851396  0.0  0.11027  -0.000304  2.85074  0.0  0.100617  0.106339  -0.001017  2.852178  -0.001
N  N60  1  0.97218306  0.57163703  0.74221685  1  -0.316863  -0.049203  3.429013  -0.076  -0.261278  -0.034307  3.727357  -0.044  -0.293445  -0.026997  3.747685  -0.034  -0.353892  -0.238302  -0.040718  3.714095  -0.053
N  N61  1  0.02781703  0.42836604  0.25778537  1  -0.316889  -0.049211  3.429005  -0.076  -0.261321  -0.034308  3.727352  -0.044  -0.29348  -0.026996  3.74767  -0.034  -0.353881  -0.238335  -0.040719  3.714076  -0.053
N  N62  1  0.19562899  0.84161586  0.96435082  1  -0.302623  -0.047915  3.388325  -0.074  -0.245875  -0.033433  3.681171  -0.044  -0.277339  -0.026376  3.700188  -0.034  -0.3469  -0.223682  -0.039562  3.669345  -0.052
N  N63  1  0.80437021  0.15838368  0.03564980  1  -0.302587  -0.047922  3.38832  -0.074  -0.245839  -0.033433  3.681182  -0.044  -0.277298  -0.026375  3.700189  -0.034  -0.346884  -0.223638  -0.039562  3.669344  -0.052
N  N64  1  0.33482404  0.19319689  0.53991697  1  -0.222725  -0.000201  3.080531  0.0  -0.197734  -0.000185  3.371582  0.0  -0.207784  -0.000121  3.388343  0.0  -0.216745  -0.190565  -0.000281  3.359784  0.0
N  N65  1  0.66517961  0.80680144  0.46008452  1  -0.22266  -0.000201  3.080674  0.0  -0.197653  -0.000185  3.371718  0.0  -0.207704  -0.000122  3.388482  0.0  -0.2167  -0.190486  -0.000281  3.359919  0.0
N  N66  1  0.22161912  0.11645182  0.44198690  1  -0.224826  -0.000186  3.062693  0.0  -0.204734  -0.000183  3.358154  0.0  -0.21495  -0.000117  3.375489  0.0  -0.223229  -0.197141  -0.000296  3.345573  0.0
N  N67  1  0.77838720  0.88354769  0.55801332  1  -0.224826  -0.000186  3.062873  0.0  -0.204727  -0.000183  3.358322  0.0  -0.214945  -0.000116  3.375654  0.0  -0.223211  -0.197135  -0.000296  3.345742  0.0
Cl  Cl68  1  0.37486476  0.70192031  0.72526780  1  -0.506702  -0.087737  1.005294  -0.122  -0.483158  -0.068436  1.297435  -0.085  -0.524227  -0.047873  1.274091  -0.058  -0.279837  -0.447033  -0.088577  1.312351  -0.11
Cl  Cl69  1  0.62513652  0.29808278  0.27473116  1  -0.506758  -0.087739  1.005297  -0.122  -0.483223  -0.068437  1.297432  -0.085  -0.524284  -0.047875  1.274091  -0.058  -0.279858  -0.447088  -0.088581  1.31235  -0.11
Cl  Cl70  1  0.23485707  0.46534213  0.92536475  1  -0.518587  -0.078841  1.001472  -0.11  -0.491873  -0.063359  1.289572  -0.078  -0.528347  -0.045249  1.262588  -0.055  -0.276791  -0.460615  -0.08061  1.307836  -0.1
Cl  Cl71  1  0.76514065  0.53465628  0.07463137  1  -0.518612  -0.07884  1.001454  -0.11  -0.491896  -0.063357  1.289548  -0.078  -0.528362  -0.045248  1.262565  -0.055  -0.276791  -0.460631  -0.080609  1.307818  -0.1
