# generated using pymatgen
data_LaH7C8NO8
_symmetry_space_group_name_H-M   'P 1'
_cell_length_a   7.73303231
_cell_length_b   9.97956349
_cell_length_c   15.10933427
_cell_angle_alpha   90.00002993
_cell_angle_beta   98.35421480
_cell_angle_gamma   89.99978401
_symmetry_Int_Tables_number   1
_chemical_formula_structural   LaH7C8NO8
_chemical_formula_sum   'La4 H28 C32 N4 O32'
_cell_volume   1153.64893224
_cell_formula_units_Z   4
loop_
 _symmetry_equiv_pos_site_id
 _symmetry_equiv_pos_as_xyz
  1  'x, y, z'
loop_
 _atom_site_type_symbol
 _atom_site_label
 _atom_site_symmetry_multiplicity
 _atom_site_fract_x
 _atom_site_fract_y
 _atom_site_fract_z
 _atom_site_occupancy
 _atom_site_hle17_bader_spin_density
 _atom_site_hle17_ddec_charge
 _atom_site_hle17_ddec_spin_density
 _atom_site_hle17_ddec_sum_bond_order
 _atom_site_hle17_magmom
 _atom_site_hse06_10hf_bader_spin_density
 _atom_site_hse06_10hf_ddec_charge
 _atom_site_hse06_10hf_ddec_spin_density
 _atom_site_hse06_10hf_ddec_sum_bond_order
 _atom_site_hse06_10hf_magmom
 _atom_site_hse06_bader_spin_density
 _atom_site_hse06_ddec_charge
 _atom_site_hse06_ddec_spin_density
 _atom_site_hse06_ddec_sum_bond_order
 _atom_site_hse06_magmom
 _atom_site_pbe_bader_spin_density
 _atom_site_pbe_cm5_charge
 _atom_site_pbe_ddec_charge
 _atom_site_pbe_ddec_spin_density
 _atom_site_pbe_ddec_sum_bond_order
 _atom_site_pbe_magmom
La  La0  1  0.13917028  0.45839574  0.35607848  1  0  2.157226  0  1.808905  0  0  2.027086  0  2.35883  0  0  2.128006  0  2.252278  0  0  1.411253  1.950181  0  2.435058  0
La  La1  1  0.36082413  0.95839516  0.14392066  1  0  2.15717  0  1.809002  0  0  2.027006  0  2.358955  0  0  2.127936  0  2.252399  0  0  1.411256  1.950115  0  2.435182  0
La  La2  1  0.86083476  0.54160485  0.64392136  1  0  2.157164  0  1.809011  0  0  2.026983  0  2.359022  0  0  2.127902  0  2.252474  0  0  1.411237  1.950088  0  2.43525  0
La  La3  1  0.63916783  0.04160443  0.85607952  1  0  2.157215  0  1.80896  0  0  2.027064  0  2.358912  0  0  2.127983  0  2.252365  0  0  1.411266  1.950157  0  2.435148  0
H  H4  1  0.73905370  0.45315813  0.29094203  1  0  0.432446  0  0.805028  0  0  0.419049  0  0.851984  0  0  0.427215  0  0.843851  0  0  0.335467  0.413075  0  0.858021  0
H  H5  1  0.76094465  0.95315890  0.20905992  1  0  0.432443  0  0.805042  0  0  0.419042  0  0.852003  0  0  0.427208  0  0.84387  0  0  0.335453  0.413065  0  0.858046  0
H  H6  1  0.26094742  0.54683844  0.70905817  1  0  0.43244  0  0.805031  0  0  0.419044  0  0.851983  0  0  0.427211  0  0.843852  0  0  0.335463  0.413071  0  0.85802  0
H  H7  1  0.23904861  0.04684369  0.79094300  1  0  0.432432  0  0.804988  0  0  0.419037  0  0.851935  0  0  0.427202  0  0.843806  0  0  0.335486  0.413063  0  0.857969  0
H  H8  1  0.77483449  0.55662957  0.36898822  1  0  0.433302  0  0.863304  0  0  0.400693  0  0.930078  0  0  0.413086  0  0.911889  0  0  0.302807  0.39174  0  0.94321  0
H  H9  1  0.72516188  0.05663173  0.13101080  1  0  0.4333  0  0.863299  0  0  0.400689  0  0.930077  0  0  0.413083  0  0.911886  0  0  0.302784  0.391734  0  0.943212  0
H  H10  1  0.22516272  0.44336701  0.63100904  1  0  0.433299  0  0.863319  0  0  0.400683  0  0.930102  0  0  0.413079  0  0.91191  0  0  0.302771  0.391728  0  0.943237  0
H  H11  1  0.27483269  0.94336986  0.86899222  1  0  0.433236  0  0.86342  0  0  0.40062  0  0.930211  0  0  0.413015  0  0.91202  0  0  0.302762  0.391663  0  0.943348  0
H  H12  1  0.91699129  0.36020386  0.17731019  1  0  0.385876  0  0.93956  0  0  0.342399  0  1.0244  0  0  0.354602  0  1.007225  0  0  0.282235  0.333741  0  1.036567  0
H  H13  1  0.58300752  0.86020323  0.32268978  1  0  0.385865  0  0.939559  0  0  0.342394  0  1.024395  0  0  0.354596  0  1.007222  0  0  0.282234  0.333736  0  1.036562  0
H  H14  1  0.08300722  0.63979572  0.82268849  1  0  0.385901  0  0.939528  0  0  0.342426  0  1.024363  0  0  0.354629  0  1.007188  0  0  0.282256  0.333772  0  1.036525  0
H  H15  1  0.41698967  0.13979435  0.67731211  1  0  0.385881  0  0.939563  0  0  0.342416  0  1.024384  0  0  0.354618  0  1.00721  0  0  0.282268  0.333759  0  1.036551  0
H  H16  1  0.02503687  0.22445675  0.20159404  1  0  0.441605  0  0.831414  0  0  0.414682  0  0.891957  0  0  0.425469  0  0.876103  0  0  0.310927  0.406738  0  0.903642  0
H  H17  1  0.47496390  0.72445596  0.29840881  1  0  0.441624  0  0.831544  0  0  0.414702  0  0.891958  0  0  0.425489  0  0.876104  0  0  0.310937  0.406758  0  0.903641  0
H  H18  1  0.97496425  0.77554283  0.79840683  1  0  0.441581  0  0.83147  0  0  0.414657  0  0.891992  0  0  0.425444  0  0.876138  0  0  0.310914  0.406717  0  0.903671  0
H  H19  1  0.52503459  0.27554162  0.70159517  1  0  0.441638  0  0.83141  0  0  0.414716  0  0.891914  0  0  0.425503  0  0.876059  0  0  0.310959  0.406775  0  0.903593  0
H  H20  1  0.20953458  0.88527715  0.64645078  1  0  0.09869  0  0.928596  0  0  0.104436  0  0.99531  0  0  0.108737  0  0.990114  0  0  0.124591  0.101151  0  0.999293  0
H  H21  1  0.29047026  0.38527728  0.85354984  1  0  0.098671  0  0.928604  0  0  0.104414  0  0.995331  0  0  0.108714  0  0.990136  0  0  0.124593  0.10113  0  0.999313  0
H  H22  1  0.79047307  0.11472344  0.35355058  1  0  0.098652  0  0.928632  0  0  0.104388  0  0.995358  0  0  0.108688  0  0.990164  0  0  0.124583  0.101106  0  0.99934  0
H  H23  1  0.70953086  0.61471829  0.14645036  1  0  0.09867  0  0.928607  0  0  0.104379  0  0.995372  0  0  0.10868  0  0.990176  0  0  0.124566  0.101095  0  0.99936  0
H  H24  1  0.39245785  0.21519542  0.52141222  1  0  0.084382  0  0.959017  0  0  0.090274  0  1.027743  0  0  0.093122  0  1.024988  0  0  0.120572  0.087998  0  1.030042  0
H  H25  1  0.10754260  0.71519484  0.97858735  1  0  0.084423  0  0.959006  0  0  0.090294  0  1.027754  0  0  0.093144  0  1.024997  0  0  0.120585  0.088014  0  1.030056  0
H  H26  1  0.60754327  0.78480717  0.47858732  1  0  0.08442  0  0.958973  0  0  0.09031  0  1.027701  0  0  0.09316  0  1.024945  0  0  0.120583  0.088026  0  1.03002  0
H  H27  1  0.89245722  0.28480475  0.02141011  1  0  0.084408  0  0.959  0  0  0.090295  0  1.027728  0  0  0.093132  0  1.025004  0  0  0.120585  0.088016  0  1.030026  0
H  H28  1  0.17086092  0.88597251  0.35868886  1  0  0.120215  0  0.927162  0  0  0.126948  0  0.992491  0  0  0.13163  0  0.987231  0  0  0.126644  0.123356  0  0.996493  0
H  H29  1  0.32913907  0.38596836  0.14131134  1  0  0.12022  0  0.927152  0  0  0.126983  0  0.992446  0  0  0.131668  0  0.987181  0  0  0.126656  0.123392  0  0.99645  0
H  H30  1  0.82913758  0.11403208  0.64131049  1  0  0.120161  0  0.927213  0  0  0.126938  0  0.992483  0  0  0.131626  0  0.987221  0  0  0.126652  0.12335  0  0.996487  0
H  H31  1  0.67085944  0.61403222  0.85868800  1  0  0.120172  0  0.927138  0  0  0.126935  0  0.992423  0  0  0.131622  0  0.987163  0  0  0.126648  0.123343  0  0.996426  0
C  C32  1  0.31024723  0.14069121  0.34776706  1  0  0.720456  0  3.877796  0  0  0.673264  0  4.168752  0  0  0.71067  0  4.160398  0  0  0.240594  0.647404  0  4.173764  0
C  C33  1  0.18975004  0.64069013  0.15223086  1  0  0.720483  0  3.87773  0  0  0.673277  0  4.168705  0  0  0.710683  0  4.160352  0  0  0.240644  0.647415  0  4.173714  0
C  C34  1  0.68974997  0.85930938  0.65223153  1  0  0.720503  0  3.877778  0  0  0.673306  0  4.168736  0  0  0.710714  0  4.160379  0  0  0.240634  0.647443  0  4.173745  0
C  C35  1  0.81024848  0.35931045  0.84776650  1  0  0.720453  0  3.877783  0  0  0.673265  0  4.168726  0  0  0.710672  0  4.16037  0  0  0.240577  0.647403  0  4.173735  0
C  C36  1  0.09014727  0.73543704  0.49818505  1  0  0.716048  0  3.886337  0  0  0.667339  0  4.181416  0  0  0.705012  0  4.173156  0  0  0.237586  0.641511  0  4.185868  0
C  C37  1  0.40985345  0.23543555  0.00181382  1  0  0.715845  0  3.886581  0  0  0.6671  0  4.18173  0  0  0.704779  0  4.173462  0  0  0.237494  0.641266  0  4.186179  0
C  C38  1  0.90986039  0.26456455  0.50181234  1  0  0.716129  0  3.886311  0  0  0.667325  0  4.181588  0  0  0.704989  0  4.173335  0  0  0.237574  0.641503  0  4.186031  0
C  C39  1  0.59014243  0.76456002  0.99818797  1  0  0.715923  0  3.886587  0  0  0.667181  0  4.181738  0  0  0.704853  0  4.173477  0  0  0.237508  0.641366  0  4.186187  0
C  C40  1  0.17710697  0.87032458  0.50166775  1  0  -0.125782  0  3.730451  0  0  -0.099381  0  3.96986  0  0  -0.113191  0  3.99302  0  0  -0.010237  -0.09091  0  3.95459  0
C  C41  1  0.32289403  0.37032173  0.99833125  1  0  -0.125587  0  3.730221  0  0  -0.099183  0  3.969658  0  0  -0.112991  0  3.992814  0  0  -0.010133  -0.090708  0  3.954379  0
C  C42  1  0.82289808  0.12968001  0.49833142  1  0  -0.125605  0  3.730119  0  0  -0.099217  0  3.969608  0  0  -0.113021  0  3.992769  0  0  -0.010141  -0.090752  0  3.954336  0
C  C43  1  0.67710316  0.62967886  0.00166865  1  0  -0.125606  0  3.730314  0  0  -0.099205  0  3.969738  0  0  -0.113012  0  3.992899  0  0  -0.010142  -0.090736  0  3.954464  0
C  C44  1  0.22946249  0.93378021  0.58395414  1  0  0.140087  0  3.647969  0  0  0.096053  0  3.904262  0  0  0.105731  0  3.919011  0  0  0.063783  0.089757  0  3.894455  0
C  C45  1  0.27054082  0.43378246  0.91604507  1  0  0.140155  0  3.647978  0  0  0.096102  0  3.90427  0  0  0.105779  0  3.919016  0  0  0.063775  0.089801  0  3.894463  0
C  C46  1  0.77054387  0.06621837  0.41604514  1  0  0.140136  0  3.648048  0  0  0.096119  0  3.904309  0  0  0.105797  0  3.919056  0  0  0.063769  0.089815  0  3.894503  0
C  C47  1  0.72945900  0.56621712  0.08395371  1  0  0.140212  0  3.647987  0  0  0.09618  0  3.90429  0  0  0.105858  0  3.919036  0  0  0.063811  0.089867  0  3.89449  0
C  C48  1  0.33113924  0.11696375  0.51433722  1  0  0.136089  0  3.672327  0  0  0.091769  0  3.929534  0  0  0.101456  0  3.945371  0  0  0.060999  0.085348  0  3.919284  0
C  C49  1  0.16886561  0.61696400  0.98566265  1  0  0.136039  0  3.672431  0  0  0.091715  0  3.929624  0  0  0.101401  0  3.945461  0  0  0.060987  0.0853  0  3.919374  0
C  C50  1  0.66886449  0.88303884  0.48566384  1  0  0.136041  0  3.672435  0  0  0.091693  0  3.929642  0  0  0.10138  0  3.94548  0  0  0.06095  0.085273  0  3.919387  0
C  C51  1  0.83113552  0.38303558  0.01433491  1  0  0.136068  0  3.672449  0  0  0.091737  0  3.929639  0  0  0.101421  0  3.945472  0  0  0.060951  0.085313  0  3.919385  0
C  C52  1  0.28232294  0.06223695  0.42929261  1  0  -0.128418  0  3.747175  0  0  -0.103338  0  3.989487  0  0  -0.11725  0  4.012893  0  0  -0.008078  -0.094743  0  3.97424  0
C  C53  1  0.21768123  0.56223673  0.07070845  1  0  -0.128326  0  3.747219  0  0  -0.103235  0  3.989513  0  0  -0.117148  0  4.01292  0  0  -0.00804  -0.094645  0  3.974268  0
C  C54  1  0.71768209  0.93776364  0.57070921  1  0  -0.128479  0  3.747319  0  0  -0.103402  0  3.989661  0  0  -0.117316  0  4.013071  0  0  -0.008066  -0.094805  0  3.974414  0
C  C55  1  0.78232120  0.43776486  0.92929119  1  0  -0.128487  0  3.747327  0  0  -0.103427  0  3.989654  0  0  -0.117337  0  4.013059  0  0  -0.008069  -0.094835  0  3.974406  0
C  C56  1  0.20741051  0.93467802  0.42328150  1  0  -0.005319  0  3.655485  0  0  -0.047829  0  3.905822  0  0  -0.039842  0  3.920401  0  0  -0.043716  -0.05234  0  3.896069  0
C  C57  1  0.29258925  0.43467493  0.07671804  1  0  -0.0055  0  3.655455  0  0  -0.048041  0  3.90581  0  0  -0.040055  0  3.920387  0  0  -0.043803  -0.052549  0  3.896057  0
C  C58  1  0.79259323  0.06532557  0.57671758  1  0  -0.005353  0  3.65528  0  0  -0.047882  0  3.90562  0  0  -0.039902  0  3.920202  0  0  -0.043777  -0.052389  0  3.89587  0
C  C59  1  0.70740795  0.56532666  0.92328253  1  0  -0.005356  0  3.655321  0  0  -0.04787  0  3.905639  0  0  -0.039892  0  3.920223  0  0  -0.043764  -0.052373  0  3.895887  0
C  C60  1  0.54278381  0.53294655  0.46171946  1  0  0.549994  0  3.920542  0  0  0.507509  0  4.217892  0  0  0.537811  0  4.211915  0  0  0.220738  0.486981  0  4.220548  0
C  C61  1  0.95721658  0.03294996  0.03828316  1  0  0.5498  0  3.920725  0  0  0.50734  0  4.21802  0  0  0.537644  0  4.212043  0  0  0.220652  0.486811  0  4.220667  0
C  C62  1  0.45721989  0.46705103  0.53828756  1  0  0.549886  0  3.920727  0  0  0.507342  0  4.218193  0  0  0.537645  0  4.212221  0  0  0.220705  0.486815  0  4.220848  0
C  C63  1  0.04278585  0.96705363  0.96171515  1  0  0.549893  0  3.92078  0  0  0.507407  0  4.21811  0  0  0.537711  0  4.212133  0  0  0.220725  0.486884  0  4.220757  0
N  N64  1  0.30772236  0.05423161  0.59018408  1  0  -0.312699  0  3.157738  0  0  -0.247544  0  3.412615  0  0  -0.263516  0  3.42716  0  0  -0.303767  -0.236925  0  3.403015  0
N  N65  1  0.19228018  0.55423073  0.90981560  1  0  -0.312768  0  3.157889  0  0  -0.247558  0  3.412706  0  0  -0.263531  0  3.427252  0  0  -0.303782  -0.23695  0  3.403108  0
N  N66  1  0.69228399  0.94577098  0.40981520  1  0  -0.312713  0  3.157863  0  0  -0.247501  0  3.412674  0  0  -0.263476  0  3.427223  0  0  -0.30373  -0.236882  0  3.40307  0
N  N67  1  0.80771833  0.44576685  0.09018308  1  0  -0.312823  0  3.157845  0  0  -0.247612  0  3.412658  0  0  -0.263584  0  3.427204  0  0  -0.303781  -0.236984  0  3.403053  0
O  O68  1  0.07798267  0.67059451  0.42535382  1  0  -0.694954  0  2.008483  0  0  -0.646691  0  2.26661  0  0  -0.680945  0  2.255262  0  0  -0.384616  -0.621646  0  2.273536  0
O  O69  1  0.42202099  0.17059505  0.07464525  1  0  -0.694909  0  2.008605  0  0  -0.646629  0  2.26673  0  0  -0.680893  0  2.255398  0  0  -0.384604  -0.621588  0  2.273657  0
O  O70  1  0.92203155  0.32941108  0.57464141  1  0  -0.695033  0  2.008585  0  0  -0.646734  0  2.266754  0  0  -0.681  0  2.255442  0  0  -0.384608  -0.621691  0  2.273672  0
O  O71  1  0.57797489  0.82940453  0.92535721  1  0  -0.694897  0  2.008579  0  0  -0.646628  0  2.266715  0  0  -0.680889  0  2.255385  0  0  -0.384575  -0.6216  0  2.273644  0
O  O72  1  0.03421378  0.69600356  0.56863712  1  0  -0.713066  0  2.038706  0  0  -0.670208  0  2.307767  0  0  -0.705172  0  2.297506  0  0  -0.391643  -0.644332  0  2.313562  0
O  O73  1  0.46578546  0.19600124  0.93136037  1  0  -0.712964  0  2.038776  0  0  -0.670087  0  2.307824  0  0  -0.705054  0  2.297563  0  0  -0.391603  -0.644206  0  2.313608  0
O  O74  1  0.96578998  0.30399001  0.43135667  1  0  -0.713141  0  2.038659  0  0  -0.670241  0  2.307756  0  0  -0.705202  0  2.2975  0  0  -0.39165  -0.64435  0  2.31352  0
O  O75  1  0.53421434  0.80398832  0.06864238  1  0  -0.713053  0  2.03876  0  0  -0.670169  0  2.307799  0  0  -0.705134  0  2.297541  0  0  -0.391599  -0.644289  0  2.313572  0
O  O76  1  0.30328380  0.07774355  0.27458702  1  0  -0.704163  0  2.02587  0  0  -0.653582  0  2.286599  0  0  -0.688328  0  2.273799  0  0  -0.394761  -0.628347  0  2.294692  0
O  O77  1  0.19671637  0.57774551  0.22541440  1  0  -0.704241  0  2.025693  0  0  -0.653657  0  2.286428  0  0  -0.688403  0  2.273628  0  0  -0.394849  -0.628423  0  2.294521  0
O  O78  1  0.69670947  0.92225604  0.72541325  1  0  -0.704249  0  2.025677  0  0  -0.653656  0  2.286381  0  0  -0.688401  0  2.27358  0  0  -0.394827  -0.628416  0  2.294473  0
O  O79  1  0.80329390  0.42225507  0.77458451  1  0  -0.704181  0  2.025695  0  0  -0.65359  0  2.2864  0  0  -0.688335  0  2.273602  0  0  -0.394805  -0.628358  0  2.294496  0
O  O80  1  0.33710672  0.26613854  0.35640957  1  0  -0.7097  0  1.976214  0  0  -0.663474  0  2.225789  0  0  -0.696956  0  2.214624  0  0  -0.392172  -0.639  0  2.232657  0
O  O81  1  0.16289255  0.76613653  0.14358987  1  0  -0.709684  0  1.976347  0  0  -0.663453  0  2.225925  0  0  -0.696935  0  2.21476  0  0  -0.392174  -0.638975  0  2.232788  0
O  O82  1  0.66289441  0.73386505  0.64358997  1  0  -0.709662  0  1.976401  0  0  -0.663433  0  2.225979  0  0  -0.696913  0  2.214813  0  0  -0.392153  -0.638955  0  2.232845  0
O  O83  1  0.83710204  0.23386305  0.85640785  1  0  -0.709663  0  1.97638  0  0  -0.663438  0  2.225947  0  0  -0.696916  0  2.214784  0  0  -0.392118  -0.638958  0  2.232809  0
O  O84  1  0.44442036  0.56048795  0.38958362  1  0  -0.643378  0  2.039468  0  0  -0.596495  0  2.281973  0  0  -0.625719  0  2.272342  0  0  -0.350264  -0.575083  0  2.287723  0
O  O85  1  0.05557859  0.06048758  0.11041704  1  0  -0.643231  0  2.039699  0  0  -0.596349  0  2.282169  0  0  -0.625579  0  2.272554  0  0  -0.350174  -0.574938  0  2.287913  0
O  O86  1  0.55558465  0.43951063  0.61042283  1  0  -0.643221  0  2.03946  0  0  -0.596326  0  2.281996  0  0  -0.625551  0  2.272369  0  0  -0.350172  -0.574923  0  2.287749  0
O  O87  1  0.94441601  0.93951601  0.88957870  1  0  -0.643277  0  2.039637  0  0  -0.5964  0  2.282123  0  0  -0.625635  0  2.272511  0  0  -0.350193  -0.574992  0  2.28787  0
O  O88  1  0.70595672  0.55519578  0.47724234  1  0  -0.643426  0  2.085448  0  0  -0.592983  0  2.326243  0  0  -0.623172  0  2.31891  0  0  -0.324286  -0.571293  0  2.330537  0
O  O89  1  0.79403704  0.05519866  0.02275714  1  0  -0.643397  0  2.085393  0  0  -0.592982  0  2.326175  0  0  -0.623167  0  2.318835  0  0  -0.32432  -0.571292  0  2.330461  0
O  O90  1  0.29404700  0.44480180  0.52276136  1  0  -0.643509  0  2.085613  0  0  -0.593069  0  2.32647  0  0  -0.623259  0  2.319134  0  0  -0.324369  -0.571383  0  2.330763  0
O  O91  1  0.20595493  0.94480193  0.97724171  1  0  -0.643418  0  2.085602  0  0  -0.592998  0  2.326408  0  0  -0.623184  0  2.319071  0  0  -0.324344  -0.571311  0  2.330698  0
O  O92  1  0.81390768  0.52870943  0.31164250  1  0  -0.84135  0  1.815683  0  0  -0.796412  0  1.995067  0  0  -0.820171  0  1.965588  0  0  -0.605272  -0.778954  0  2.015762  0
O  O93  1  0.68609144  0.02870974  0.18835738  1  0  -0.841331  0  1.815665  0  0  -0.796392  0  1.99505  0  0  -0.820153  0  1.965571  0  0  -0.605233  -0.778934  0  2.01575  0
O  O94  1  0.18609083  0.47128915  0.68835684  1  0  -0.841324  0  1.815687  0  0  -0.796383  0  1.995092  0  0  -0.820143  0  1.965612  0  0  -0.605237  -0.77892  0  2.015787  0
O  O95  1  0.31390182  0.97129184  0.81164488  1  0  -0.841288  0  1.815717  0  0  -0.796342  0  1.995086  0  0  -0.820102  0  1.965607  0  0  -0.605258  -0.77888  0  2.015782  0
O  O96  1  0.99269994  0.30965547  0.22697058  1  0  -0.894094  0  1.852031  0  0  -0.843478  0  2.0553  0  0  -0.868189  0  2.018877  0  0  -0.629369  -0.825326  0  2.08106  0
O  O97  1  0.50729126  0.80965602  0.27303145  1  0  -0.894102  0  1.852235  0  0  -0.843492  0  2.055385  0  0  -0.868206  0  2.018961  0  0  -0.629373  -0.825335  0  2.081142  0
O  O98  1  0.00729463  0.69034411  0.77303046  1  0  -0.894097  0  1.852112  0  0  -0.843476  0  2.055377  0  0  -0.868188  0  2.018952  0  0  -0.629374  -0.825325  0  2.081131  0
O  O99  1  0.49269415  0.19034557  0.72697154  1  0  -0.894147  0  1.852059  0  0  -0.843537  0  2.055288  0  0  -0.868248  0  2.018861  0  0  -0.629427  -0.825385  0  2.081046  0
