# generated using pymatgen
data_Bi2H24C27(SBr2)3
_symmetry_space_group_name_H-M   'P 1'
_cell_length_a   9.10386480
_cell_length_b   14.17933085
_cell_length_c   14.77250000
_cell_angle_alpha   107.60574544
_cell_angle_beta   107.77643874
_cell_angle_gamma   98.51703630
_symmetry_Int_Tables_number   1
_chemical_formula_structural   Bi2H24C27(SBr2)3
_chemical_formula_sum   'Bi4 H48 C54 S6 Br12'
_cell_volume   1668.99356796
_cell_formula_units_Z   2
loop_
 _symmetry_equiv_pos_site_id
 _symmetry_equiv_pos_as_xyz
  1  'x, y, z'
loop_
 _atom_site_type_symbol
 _atom_site_label
 _atom_site_symmetry_multiplicity
 _atom_site_fract_x
 _atom_site_fract_y
 _atom_site_fract_z
 _atom_site_occupancy
 _atom_site_hle17_bader_spin_density
 _atom_site_hle17_ddec_charge
 _atom_site_hle17_ddec_spin_density
 _atom_site_hle17_ddec_sum_bond_order
 _atom_site_hle17_magmom
 _atom_site_hse06_10hf_bader_spin_density
 _atom_site_hse06_10hf_ddec_charge
 _atom_site_hse06_10hf_ddec_spin_density
 _atom_site_hse06_10hf_ddec_sum_bond_order
 _atom_site_hse06_10hf_magmom
 _atom_site_hse06_bader_spin_density
 _atom_site_hse06_ddec_charge
 _atom_site_hse06_ddec_spin_density
 _atom_site_hse06_ddec_sum_bond_order
 _atom_site_hse06_magmom
 _atom_site_pbe_bader_charge
 _atom_site_pbe_bader_spin_density
 _atom_site_pbe_cm5_charge
 _atom_site_pbe_ddec_charge
 _atom_site_pbe_ddec_spin_density
 _atom_site_pbe_ddec_sum_bond_order
 _atom_site_pbe_magmom
Bi  Bi0  1  0.30529714  0.50901314  0.37556883  1  0  1.021183  0  2.572006  0  0  0.879788  0  3.06814  0  0  0.941913  0  3.033611  0  1.376723  0  0.454931  0.835404  0  3.094532  0
Bi  Bi1  1  0.69469552  0.49097644  0.62441133  1  0  1.021188  0  2.571831  0  0  0.8798  0  3.067949  0  0  0.941922  0  3.033424  0  1.3763  0  0.454964  0.835421  0  3.094336  0
Bi  Bi2  1  0.06717904  0.70585460  0.28885767  1  0  0.940958  0  2.519376  0  0  0.790839  0  3.001129  0  0  0.85115  0  2.965006  0  1.334744  0  0.470559  0.749482  0  3.025196  0
Bi  Bi3  1  0.93281102  0.29414266  0.71114657  1  0  0.940998  0  2.519158  0  0  0.790879  0  3.000874  0  0  0.851189  0  2.964753  0  1.334608  0  0.470628  0.749526  0  3.024944  0
H  H4  1  0.07812222  0.19834157  0.40511730  1  0  0.140355  0  0.935012  0  0  0.163027  0  0.987166  0  0  0.163932  0  0.988598  0  0.108049  0  0.098121  0.162322  0  0.986262  0
H  H5  1  0.92187952  0.80166719  0.59488977  1  0  0.1403  0  0.935007  0  0  0.16292  0  0.987237  0  0  0.163824  0  0.98867  0  0.108117  0  0.09809  0.162232  0  0.986307  0
H  H6  1  0.09284929  0.32917941  0.47268101  1  0  0.139534  0  0.973778  0  0  0.155751  0  1.039945  0  0  0.158065  0  1.038754  0  0.124284  0  0.08194  0.153993  0  1.040975  0
H  H7  1  0.90716378  0.67083166  0.52731870  1  0  0.139501  0  0.973682  0  0  0.155753  0  1.039827  0  0  0.158068  0  1.038636  0  0.124374  0  0.081909  0.153995  0  1.040857  0
H  H8  1  0.26912033  0.29300088  0.46312640  1  0  0.117612  0  0.996576  0  0  0.129643  0  1.073063  0  0  0.131404  0  1.072512  0  0.098515  0  0.076386  0.12836  0  1.07343  0
H  H9  1  0.73087950  0.70700328  0.53687220  1  0  0.11757  0  0.996525  0  0  0.129605  0  1.073034  0  0  0.131367  0  1.072483  0  0.098502  0  0.076357  0.128314  0  1.073411  0
H  H10  1  0.99629237  0.22575573  0.09382234  1  0  0.102447  0  0.948345  0  0  0.110075  0  1.014336  0  0  0.113175  0  1.012959  0  0.077722  0  0.096283  0.107846  0  1.015392  0
H  H11  1  0.00371614  0.77424152  0.90618131  1  0  0.10241  0  0.948449  0  0  0.110081  0  1.014396  0  0  0.113191  0  1.012995  0  0.077591  0  0.096295  0.107855  0  1.015447  0
H  H12  1  0.06560910  0.09410837  0.97545607  1  0  0.092627  0  0.973764  0  0  0.102336  0  1.038493  0  0  0.105016  0  1.037322  0  0.049786  0  0.094164  0.100361  0  1.039479  0
H  H13  1  0.93439238  0.90588582  0.02454739  1  0  0.09257  0  0.973676  0  0  0.102249  0  1.038434  0  0  0.104952  0  1.037238  0  0.04977  0  0.094153  0.100275  0  1.039419  0
H  H14  1  0.40061514  0.05385075  0.23086750  1  0  0.092686  0  0.972755  0  0  0.104808  0  1.032744  0  0  0.106717  0  1.033464  0  0.073598  0  0.098774  0.103438  0  1.032333  0
H  H15  1  0.59938043  0.94613193  0.76913219  1  0  0.092675  0  0.972801  0  0  0.104868  0  1.032715  0  0  0.106777  0  1.033432  0  0.073662  0  0.098786  0.103497  0  1.032304  0
H  H16  1  0.33450972  0.18676573  0.34948411  1  0  0.097526  0  0.964107  0  0  0.109349  0  1.025829  0  0  0.111968  0  1.024925  0  0.056482  0  0.096036  0.107415  0  1.026622  0
H  H17  1  0.66547989  0.81321925  0.65051377  1  0  0.097604  0  0.963977  0  0  0.109404  0  1.025712  0  0  0.112026  0  1.02481  0  0.05649  0  0.096041  0.107472  0  1.026505  0
H  H18  1  0.20764553  0.03928158  0.89905827  1  0  0.093186  0  0.967468  0  0  0.103273  0  1.033509  0  0  0.106309  0  1.031687  0  0.05885  0  0.099214  0.10111  0  1.034842  0
H  H19  1  0.79234306  0.96071491  0.10094344  1  0  0.093215  0  0.967433  0  0  0.10325  0  1.033518  0  0  0.106283  0  1.031701  0  0.058457  0  0.099245  0.10109  0  1.034844  0
H  H20  1  0.29901953  0.07028145  0.79026896  1  0  0.098553  0  0.958602  0  0  0.108731  0  1.020948  0  0  0.1112  0  1.020604  0  0.088571  0  0.100355  0.106932  0  1.021331  0
H  H21  1  0.70096770  0.92971735  0.20972910  1  0  0.098663  0  0.958712  0  0  0.108849  0  1.021003  0  0  0.111319  0  1.020656  0  0.088484  0  0.100387  0.107045  0  1.021392  0
H  H22  1  0.30146254  0.07359091  0.62707747  1  0  0.097964  0  0.985399  0  0  0.108525  0  1.049266  0  0  0.111689  0  1.047265  0  0.086953  0  0.087649  0.106233  0  1.050807  0
H  H23  1  0.69852752  0.92640635  0.37291933  1  0  0.0979  0  0.985337  0  0  0.108469  0  1.049213  0  0  0.111635  0  1.04721  0  0.087025  0  0.087589  0.106172  0  1.050762  0
H  H24  1  0.07839095  0.99505416  0.43303028  1  0  0.130223  0  0.9598  0  0  0.145019  0  1.027877  0  0  0.146582  0  1.028031  0  0.090861  0  0.089607  0.143848  0  1.027853  0
H  H25  1  0.92160142  0.00494310  0.56697507  1  0  0.130259  0  0.959833  0  0  0.145062  0  1.027902  0  0  0.146622  0  1.028061  0  0.091017  0  0.089631  0.143892  0  1.027876  0
H  H26  1  0.16983931  0.99807741  0.34173846  1  0  0.134681  0  0.955714  0  0  0.15367  0  1.016465  0  0  0.15532  0  1.016318  0  0.111089  0  0.092113  0.152441  0  1.016641  0
H  H27  1  0.83015213  0.00192598  0.65826715  1  0  0.134731  0  0.955548  0  0  0.153666  0  1.016358  0  0  0.155316  0  1.01621  0  0.110097  0  0.092129  0.152441  0  1.016528  0
H  H28  1  0.27142809  0.08332057  0.47250709  1  0  0.131676  0  0.948695  0  0  0.149337  0  1.012629  0  0  0.151156  0  1.011574  0  0.095251  0  0.088869  0.147966  0  1.013471  0
H  H29  1  0.72856409  0.91668743  0.52749864  1  0  0.131711  0  0.948776  0  0  0.149371  0  1.012705  0  0  0.151189  0  1.011649  0  0.095332  0  0.088855  0.148  0  1.013548  0
H  H30  1  0.26585765  0.74843030  0.52118957  1  0  0.067955  0  1.037589  0  0  0.0747  0  1.112719  0  0  0.076984  0  1.111987  0  0.07591  0  0.071036  0.072983  0  1.113366  0
H  H31  1  0.73415245  0.25157079  0.47881075  1  0  0.06797  0  1.037588  0  0  0.074651  0  1.112783  0  0  0.076942  0  1.11205  0  0.075773  0  0.071035  0.072935  0  1.113429  0
H  H32  1  0.26049402  0.74475789  0.68324758  1  0  0.091013  0  0.963946  0  0  0.099757  0  1.030964  0  0  0.103228  0  1.028438  0  0.064327  0  0.091672  0.09723  0  1.032901  0
H  H33  1  0.73951230  0.25524243  0.31675384  1  0  0.091033  0  0.964001  0  0  0.099781  0  1.031015  0  0  0.103247  0  1.028495  0  0.064395  0  0.091685  0.097251  0  1.032949  0
H  H34  1  0.39163934  0.77496051  0.83325556  1  0  0.09044  0  0.972002  0  0  0.102229  0  1.036153  0  0  0.105317  0  1.034296  0  0.063053  0  0.098086  0.10001  0  1.037561  0
H  H35  1  0.60836415  0.22504136  0.16673833  1  0  0.090468  0  0.972007  0  0  0.102267  0  1.036136  0  0  0.105356  0  1.034277  0  0.063268  0  0.098079  0.100048  0  1.037547  0
H  H36  1  0.36028147  0.90626487  0.12682978  1  0  0.091387  0  0.980804  0  0  0.100067  0  1.050468  0  0  0.103113  0  1.048538  0  0.073542  0  0.092397  0.097872  0  1.051899  0
H  H37  1  0.63972327  0.09373161  0.87316549  1  0  0.091388  0  0.980733  0  0  0.100094  0  1.05036  0  0  0.103136  0  1.048435  0  0.073467  0  0.092421  0.097901  0  1.051793  0
H  H38  1  0.61998213  0.77256953  0.93051341  1  0  0.090615  0  0.988773  0  0  0.102526  0  1.048672  0  0  0.104455  0  1.049545  0  0.092959  0  0.098186  0.101147  0  1.048148  0
H  H39  1  0.38003215  0.22742773  0.06948726  1  0  0.09054  0  0.988803  0  0  0.102508  0  1.048645  0  0  0.104439  0  1.049514  0  0.09313  0  0.098182  0.101128  0  1.048123  0
H  H40  1  0.77865267  0.66090556  0.98683537  1  0  0.100712  0  0.974827  0  0  0.108279  0  1.043042  0  0  0.111872  0  1.040106  0  0.090328  0  0.085008  0.105677  0  1.045208  0
H  H41  1  0.22136184  0.33909783  0.01317254  1  0  0.100656  0  0.974767  0  0  0.108267  0  1.042952  0  0  0.111826  0  1.040059  0  0.090482  0  0.084994  0.105665  0  1.045109  0
H  H42  1  0.50293712  0.62173217  0.17166115  1  0  0.099819  0  0.967235  0  0  0.108309  0  1.035023  0  0  0.111369  0  1.033142  0  0.085728  0  0.092827  0.106076  0  1.036461  0
H  H43  1  0.49707121  0.37827583  0.82833949  1  0  0.099896  0  0.967235  0  0  0.108345  0  1.035073  0  0  0.111407  0  1.033192  0  0.086198  0  0.092823  0.106112  0  1.036506  0
H  H44  1  0.34272031  0.73142565  0.11264847  1  0  0.090188  0  0.978508  0  0  0.096593  0  1.049159  0  0  0.099918  0  1.047206  0  0.097648  0  0.088473  0.094117  0  1.0507  0
H  H45  1  0.65729339  0.26858695  0.88736129  1  0  0.090171  0  0.978357  0  0  0.096595  0  1.049017  0  0  0.099894  0  1.047087  0  0.0978  0  0.088477  0.094118  0  1.050556  0
H  H46  1  0.68637426  0.55340970  0.25658346  1  0  0.125073  0  0.972966  0  0  0.138017  0  1.044909  0  0  0.13981  0  1.044181  0  0.103792  0  0.082332  0.136633  0  1.045551  0
H  H47  1  0.31363220  0.44660213  0.74342201  1  0  0.125055  0  0.972835  0  0  0.137993  0  1.044819  0  0  0.139787  0  1.044084  0  0.104257  0  0.08235  0.13661  0  1.045462  0
H  H48  1  0.75052870  0.44321517  0.20363683  1  0  0.143138  0  0.93482  0  0  0.16339  0  0.991351  0  0  0.165402  0  0.990191  0  0.095496  0  0.095819  0.161871  0  0.992276  0
H  H49  1  0.24947649  0.55679360  0.79637089  1  0  0.143019  0  0.934867  0  0  0.163364  0  0.991302  0  0  0.165332  0  0.990194  0  0.09561  0  0.095808  0.161869  0  0.9922  0
H  H50  1  0.56024941  0.45569184  0.13351253  1  0  0.136251  0  0.966782  0  0  0.156504  0  1.024122  0  0  0.157012  0  1.026304  0  0.108068  0  0.09598  0.156087  0  1.022654  0
H  H51  1  0.43976051  0.54431999  0.86649087  1  0  0.136207  0  0.966701  0  0  0.156412  0  1.024135  0  0  0.156922  0  1.026306  0  0.107893  0  0.095904  0.155995  0  1.022672  0
C  C52  1  0.14008372  0.27807644  0.42356456  1  0  -0.34136  0  3.64258  0  0  -0.41506  0  3.892449  0  0  -0.41619  0  3.900506  0  -0.246503  0  -0.240341  -0.413989  0  3.886809  0
C  C53  1  0.85991842  0.72192772  0.57643448  1  0  -0.34119  0  3.642271  0  0  -0.414891  0  3.89212  0  0  -0.416016  0  3.900165  0  -0.246719  0  -0.24021  -0.413833  0  3.886481  0
C  C54  1  0.15822955  0.21411851  0.22965731  1  0  0.018589  0  3.795608  0  0  0.038407  0  4.048435  0  0  0.038658  0  4.073702  0  -0.237857  0  -0.018041  0.038115  0  4.031272  0
C  C55  1  0.84178030  0.78586801  0.77034279  1  0  0.018602  0  3.795523  0  0  0.03838  0  4.048401  0  0  0.038661  0  4.073614  0  -0.236887  0  -0.018109  0.038089  0  4.031239  0
C  C56  1  0.08629220  0.18881372  0.12388564  1  0  -0.09875  0  3.754084  0  0  -0.119688  0  4.005965  0  0  -0.12191  0  4.027264  0  0.032456  0  -0.09467  -0.118086  0  3.991531  0
C  C57  1  0.91370833  0.81117817  0.87611291  1  0  -0.098922  0  3.754309  0  0  -0.119888  0  4.006198  0  0  -0.122117  0  4.027498  0  0.032932  0  -0.094746  -0.118284  0  3.991761  0
C  C58  1  0.12618071  0.11399969  0.05726243  1  0  -0.095603  0  3.734887  0  0  -0.112309  0  3.980625  0  0  -0.114957  0  4.001396  0  0.005501  0  -0.086207  -0.110452  0  3.966589  0
C  C59  1  0.87382245  0.88599296  0.94273481  1  0  -0.095345  0  3.734597  0  0  -0.112002  0  3.980307  0  0  -0.114662  0  4.001066  0  0.005318  0  -0.086081  -0.110145  0  3.966275  0
C  C60  1  0.23738570  0.06188386  0.09310375  1  0  0.046767  0  3.761082  0  0  0.060371  0  3.99283  0  0  0.061127  0  4.015292  0  -0.04471  0  -0.007281  0.059871  0  3.977608  0
C  C61  1  0.76261169  0.93810879  0.90689579  1  0  0.046799  0  3.760711  0  0  0.060441  0  3.992449  0  0  0.061195  0  4.014914  0  -0.044297  0  -0.007305  0.059934  0  3.977238  0
C  C62  1  0.31020408  0.08989730  0.19962922  1  0  -0.095326  0  3.719633  0  0  -0.114672  0  3.966517  0  0  -0.117163  0  3.987537  0  -0.047975  0  -0.088116  -0.112986  0  3.952291  0
C  C63  1  0.68979138  0.91008231  0.80036550  1  0  -0.095456  0  3.719723  0  0  -0.114878  0  3.966589  0  0  -0.117371  0  3.987614  0  -0.048005  0  -0.088189  -0.113189  0  3.952367  0
C  C64  1  0.27277523  0.16560602  0.26754291  1  0  -0.110008  0  3.766254  0  0  -0.128136  0  4.011106  0  0  -0.130232  0  4.032593  0  0.03432  0  -0.10002  -0.126605  0  3.99653  0
C  C65  1  0.72722265  0.83437665  0.73245450  1  0  -0.110034  0  3.766078  0  0  -0.128121  0  4.010946  0  0  -0.130232  0  4.032433  0  0.03297  0  -0.099947  -0.126592  0  3.996369  0
C  C66  1  0.27660247  0.98137816  0.02087016  1  0  0.059677  0  3.785459  0  0  0.077122  0  4.018561  0  0  0.077183  0  4.042564  0  -0.036787  0  -0.007601  0.07704  0  4.002258  0
C  C67  1  0.72339178  0.01861526  0.97912495  1  0  0.059658  0  3.785376  0  0  0.077037  0  4.018564  0  0  0.077096  0  4.042564  0  -0.036739  0  -0.007608  0.076958  0  4.002258  0
C  C68  1  0.25399482  0.98011284  0.92203765  1  0  -0.136406  0  3.66905  0  0  -0.165884  0  3.916701  0  0  -0.16875  0  3.936948  0  -0.048799  0  -0.083886  -0.163806  0  3.902903  0
C  C69  1  0.74600594  0.01988518  0.07795732  1  0  -0.13643  0  3.669132  0  0  -0.165827  0  3.916802  0  0  -0.168689  0  3.93705  0  -0.048362  0  -0.083881  -0.163752  0  3.903004  0
C  C70  1  0.29288753  0.90557735  0.85291160  1  0  0.053379  0  3.810031  0  0  0.0696  0  4.047016  0  0  0.069685  0  4.070998  0  0.001065  0  -0.012536  0.069492  0  4.030718  0
C  C71  1  0.70710651  0.09441837  0.14708211  1  0  0.053462  0  3.809844  0  0  0.069643  0  4.046856  0  0  0.069724  0  4.07084  0  0.001098  0  -0.01253  0.069536  0  4.030559  0
C  C72  1  0.28065149  0.90730997  0.75138047  1  0  0.044447  0  3.776651  0  0  0.058208  0  4.006056  0  0  0.05883  0  4.028934  0  -0.006058  0  -0.009596  0.057803  0  3.990508  0
C  C73  1  0.71934381  0.09268882  0.24861911  1  0  0.044427  0  3.776685  0  0  0.058246  0  4.006018  0  0  0.058866  0  4.028894  0  -0.006159  0  -0.009617  0.057837  0  3.990469  0
C  C74  1  0.28915204  0.99848410  0.73143805  1  0  -0.102419  0  3.724074  0  0  -0.118714  0  3.968292  0  0  -0.120737  0  3.988089  0  -0.079648  0  -0.088233  -0.117277  0  3.954838  0
C  C75  1  0.71083802  0.00151316  0.26855468  1  0  -0.102654  0  3.724385  0  0  -0.118956  0  3.96857  0  0  -0.120978  0  3.988367  0  -0.079294  0  -0.088264  -0.117515  0  3.955119  0
C  C76  1  0.29152405  0.00082411  0.63819524  1  0  -0.10683  0  3.759618  0  0  -0.126804  0  4.00543  0  0  -0.128825  0  4.025646  0  -0.016782  0  -0.100521  -0.125357  0  3.991723  0
C  C77  1  0.70846445  0.99917776  0.36180124  1  0  -0.10664  0  3.759496  0  0  -0.126629  0  4.005284  0  0  -0.12865  0  4.0255  0  -0.016792  0  -0.100426  -0.12518  0  3.991573  0
C  C78  1  0.28312703  0.91104453  0.56119988  1  0  0.024007  0  3.788179  0  0  0.046029  0  4.037159  0  0  0.04666  0  4.06226  0  -0.198113  0  -0.018853  0.045492  0  4.020185  0
C  C79  1  0.71687689  0.08896117  0.43880062  1  0  0.023911  0  3.788121  0  0  0.045954  0  4.037077  0  0  0.046581  0  4.06218  0  -0.198112  0  -0.01889  0.045417  0  4.020101  0
C  C80  1  0.19210231  0.00700873  0.42154790  1  0  -0.335258  0  3.630805  0  0  -0.408526  0  3.878482  0  0  -0.409376  0  3.886186  0  -0.226629  0  -0.234613  -0.407733  0  3.873231  0
C  C81  1  0.80789144  0.99299466  0.57845543  1  0  -0.33539  0  3.630924  0  0  -0.408613  0  3.878569  0  0  -0.409466  0  3.886284  0  -0.225912  0  -0.234651  -0.407822  0  3.873319  0
C  C82  1  0.27300019  0.81943226  0.57957999  1  0  -0.114305  0  3.793994  0  0  -0.133684  0  4.03971  0  0  -0.136773  0  4.062546  0  -0.032507  0  -0.107937  -0.13151  0  4.024362  0
C  C83  1  0.72699964  0.18057190  0.42042064  1  0  -0.114187  0  3.793997  0  0  -0.133527  0  4.039724  0  0  -0.13662  0  4.062548  0  -0.032769  0  -0.107865  -0.131354  0  4.024373  0
C  C84  1  0.27114840  0.81790069  0.67267760  1  0  -0.092539  0  3.734912  0  0  -0.109371  0  3.98129  0  0  -0.111647  0  4.001664  0  -0.006999  0  -0.09072  -0.107761  0  3.967468  0
C  C85  1  0.72884806  0.18209810  0.32732287  1  0  -0.092617  0  3.735196  0  0  -0.109473  0  3.981547  0  0  -0.111745  0  4.001924  0  -0.006828  0  -0.090773  -0.107855  0  3.967718  0
C  C86  1  0.35610856  0.83159127  0.88476951  1  0  -0.148995  0  3.7079  0  0  -0.181931  0  3.960388  0  0  -0.185077  0  3.980785  0  -0.059526  0  -0.089215  -0.179669  0  3.946503  0
C  C87  1  0.64390018  0.16841213  0.11522785  1  0  -0.149028  0  3.707795  0  0  -0.181967  0  3.960264  0  0  -0.18511  0  3.98066  0  -0.059768  0  -0.089237  -0.179705  0  3.946378  0
C  C88  1  0.38282020  0.83178080  0.98332197  1  0  0.054068  0  3.809367  0  0  0.071547  0  4.042769  0  0  0.071459  0  4.066679  0  0.002076  0  -0.011101  0.071563  0  4.026509  0
C  C89  1  0.61719105  0.16822030  0.01667653  1  0  0.053952  0  3.809028  0  0  0.07146  0  4.042412  0  0  0.071371  0  4.066324  0  0.002347  0  -0.011146  0.071476  0  4.026155  0
C  C90  1  0.33989995  0.90596562  0.05017906  1  0  -0.141285  0  3.679468  0  0  -0.171698  0  3.929645  0  0  -0.174664  0  3.949848  0  -0.042091  0  -0.088854  -0.16956  0  3.915952  0
C  C91  1  0.66010049  0.09403164  0.94981562  1  0  -0.141218  0  3.679023  0  0  -0.171646  0  3.929227  0  0  -0.174603  0  3.949429  0  -0.042257  0  -0.088812  -0.169511  0  3.915538  0
C  C92  1  0.47002635  0.76121391  0.01764929  1  0  0.053661  0  3.769312  0  0  0.069876  0  3.994485  0  0  0.07068  0  4.018011  0  -0.030566  0  -0.00811  0.069337  0  3.978515  0
C  C93  1  0.52998208  0.23878872  0.98235116  1  0  0.05368  0  3.769248  0  0  0.06989  0  3.994444  0  0  0.070692  0  4.017966  0  -0.030613  0  -0.00809  0.069349  0  3.978475  0
C  C94  1  0.59316240  0.73913802  0.98281034  1  0  -0.108427  0  3.743619  0  0  -0.125513  0  3.986702  0  0  -0.128474  0  4.00742  0  -0.047182  0  -0.093983  -0.123504  0  3.972684  0
C  C95  1  0.40684488  0.26086461  0.01718922  1  0  -0.108378  0  3.743639  0  0  -0.12552  0  3.986746  0  0  -0.12848  0  4.00746  0  -0.046578  0  -0.094042  -0.12351  0  3.972728  0
C  C96  1  0.68415996  0.67692190  0.01512801  1  0  -0.109418  0  3.787363  0  0  -0.128993  0  4.038453  0  0  -0.130453  0  4.057723  0  -0.055702  0  -0.102295  -0.127937  0  4.025501  0
C  C97  1  0.31585352  0.32308456  0.98487248  1  0  -0.10944  0  3.787384  0  0  -0.129087  0  4.03841  0  0  -0.130526  0  4.057713  0  -0.05623  0  -0.102231  -0.128026  0  4.025459  0
C  C98  1  0.65333698  0.63454571  0.08394764  1  0  0.009433  0  3.798021  0  0  0.02792  0  4.052988  0  0  0.027577  0  4.078763  0  -0.17464  0  -0.021169  0.028006  0  4.035625  0
C  C99  1  0.34666862  0.36545846  0.91605002  1  0  0.009608  0  3.797777  0  0  0.0282  0  4.052583  0  0  0.027866  0  4.078351  0  -0.174925  0  -0.021174  0.028284  0  4.035223  0
C  C100  1  0.53009903  0.65450072  0.11897484  1  0  -0.09834  0  3.756354  0  0  -0.120388  0  4.008236  0  0  -0.121735  0  4.029059  0  -0.026768  0  -0.097343  -0.119369  0  3.994099  0
C  C101  1  0.46990888  0.34550345  0.88102461  1  0  -0.098534  0  3.756203  0  0  -0.120612  0  4.008124  0  0  -0.121942  0  4.028894  0  -0.027071  0  -0.097359  -0.119588  0  3.993979  0
C  C102  1  0.43958650  0.71739130  0.08579345  1  0  -0.098567  0  3.716088  0  0  -0.114803  0  3.959067  0  0  -0.117957  0  3.979704  0  -0.027859  0  -0.089767  -0.11256  0  3.945088  0
C  C103  1  0.56042215  0.28261746  0.91421289  1  0  -0.098442  0  3.715917  0  0  -0.114702  0  3.958873  0  0  -0.117844  0  3.979554  0  -0.028495  0  -0.089722  -0.112455  0  3.944892  0
C  C104  1  0.68329745  0.49738589  0.18568385  1  0  -0.338304  0  3.637222  0  0  -0.411964  0  3.881321  0  0  -0.412467  0  3.889444  0  -0.214063  0  -0.235554  -0.411371  0  3.875817  0
C  C105  1  0.31671183  0.50262441  0.81432440  1  0  -0.338106  0  3.637044  0  0  -0.411809  0  3.881115  0  0  -0.412278  0  3.889285  0  -0.214551  0  -0.235479  -0.411238  0  3.875591  0
S  S106  1  0.09077656  0.30431046  0.30773277  1  0  0.070772  0  2.673391  0  0  0.095325  0  3.037605  0  0  0.086964  0  3.043563  0  0.04963  0  0.054622  0.101229  0  3.033492  0
S  S107  1  0.90922535  0.69568756  0.69226377  1  0  0.070774  0  2.673368  0  0  0.095349  0  3.037578  0  0  0.086972  0  3.043526  0  0.049529  0  0.054617  0.101255  0  3.033467  0
S  S108  1  0.29075421  0.90984674  0.44229396  1  0  0.059005  0  2.658117  0  0  0.081342  0  3.017537  0  0  0.073443  0  3.02243  0  0.062637  0  0.037353  0.086682  0  3.014164  0
S  S109  1  0.70925024  0.09015742  0.55770890  1  0  0.059075  0  2.658176  0  0  0.081408  0  3.017586  0  0  0.073509  0  3.02248  0  0.062823  0  0.037412  0.086747  0  3.014214  0
S  S110  1  0.77882209  0.55800674  0.12013188  1  0  0.098107  0  2.659615  0  0  0.124761  0  3.013081  0  0  0.116693  0  3.019881  0  0.077988  0  0.063999  0.130084  0  3.008508  0
S  S111  1  0.22118866  0.44200433  0.87987620  1  0  0.098006  0  2.659327  0  0  0.124607  0  3.012779  0  0  0.116539  0  3.019554  0  0.078115  0  0.063952  0.129931  0  3.00822  0
Br  Br112  1  0.58384136  0.42871199  0.39235176  1  0  -0.42335  0  0.982297  0  0  -0.368376  0  1.247254  0  0  -0.392481  0  1.233624  0  -0.545884  0  -0.183999  -0.350908  0  1.256693  0
Br  Br113  1  0.41615816  0.57129141  0.60761881  1  0  -0.423287  0  0.982275  0  0  -0.368323  0  1.247241  0  0  -0.392428  0  1.233618  0  -0.545884  0  -0.183958  -0.350841  0  1.256653  0
Br  Br114  1  0.15649670  0.48190361  0.17158245  1  0  -0.437695  0  0.956816  0  0  -0.390739  0  1.206229  0  0  -0.410436  0  1.191754  0  -0.529074  0  -0.200112  -0.376522  0  1.216216  0
Br  Br115  1  0.84337535  0.51811513  0.82839499  1  0  -0.437642  0  0.95688  0  0  -0.390653  0  1.206228  0  0  -0.410335  0  1.191737  0  -0.528756  0  -0.20008  -0.37647  0  1.216274  0
Br  Br116  1  0.02839949  0.55916463  0.40404445  1  0  -0.415417  0  1.158224  0  0  -0.36309  0  1.448571  0  0  -0.384706  0  1.434216  0  -0.524786  0  -0.160055  -0.347751  0  1.458493  0
Br  Br117  1  0.97160459  0.44082189  0.59595187  1  0  -0.415416  0  1.158199  0  0  -0.363115  0  1.448576  0  0  -0.384734  0  1.434219  0  -0.524559  0  -0.160036  -0.347775  0  1.458501  0
Br  Br118  1  0.45186136  0.70785117  0.39316268  1  0  -0.453969  0  1.034541  0  0  -0.405421  0  1.309112  0  0  -0.427113  0  1.294101  0  -0.550481  0  -0.196146  -0.38981  0  1.319408  0
Br  Br119  1  0.54810286  0.29213381  0.60683516  1  0  -0.454026  0  1.034324  0  0  -0.405468  0  1.308831  0  0  -0.427169  0  1.293832  0  -0.550411  0  -0.196217  -0.389856  0  1.319129  0
Br  Br120  1  0.85328849  0.77988442  0.35821514  1  0  -0.357591  0  1.089619  0  0  -0.307478  0  1.369701  0  0  -0.323181  0  1.357942  0  -0.479666  0  -0.141731  -0.296518  0  1.377694  0
Br  Br121  1  0.14671512  0.22012051  0.64180877  1  0  -0.357577  0  1.089707  0  0  -0.307442  0  1.369743  0  0  -0.32314  0  1.35798  0  -0.479666  0  -0.141722  -0.296488  0  1.377739  0
Br  Br122  1  0.08265854  0.80757021  0.16243682  1  0  -0.38962  0  0.991968  0  0  -0.341897  0  1.250803  0  0  -0.357833  0  1.236047  0  -0.510492  0  -0.164301  -0.330614  0  1.260778  0
Br  Br123  1  0.91738763  0.19243165  0.83758066  1  0  -0.389624  0  0.991943  0  0  -0.341882  0  1.250757  0  0  -0.357806  0  1.235976  0  -0.51044  0  -0.164286  -0.330605  0  1.26074  0
