# generated using pymatgen
data_CoH18C18N4O5
_symmetry_space_group_name_H-M   'P 1'
_cell_length_a   9.14500564
_cell_length_b   9.64003246
_cell_length_c   11.43086932
_cell_angle_alpha   73.32185305
_cell_angle_beta   80.70118568
_cell_angle_gamma   64.86817984
_symmetry_Int_Tables_number   1
_chemical_formula_structural   CoH18C18N4O5
_chemical_formula_sum   'Co2 H36 C36 N8 O10'
_cell_volume   873.03044769
_cell_formula_units_Z   2
loop_
 _symmetry_equiv_pos_site_id
 _symmetry_equiv_pos_as_xyz
  1  'x, y, z'
loop_
 _atom_site_type_symbol
 _atom_site_label
 _atom_site_symmetry_multiplicity
 _atom_site_fract_x
 _atom_site_fract_y
 _atom_site_fract_z
 _atom_site_occupancy
 _atom_site_hle17_ddec_charge
 _atom_site_hle17_ddec_spin_density
 _atom_site_hle17_ddec_sum_bond_order
 _atom_site_hle17_magmom
 _atom_site_hse06_10hf_ddec_charge
 _atom_site_hse06_10hf_ddec_spin_density
 _atom_site_hse06_10hf_ddec_sum_bond_order
 _atom_site_hse06_10hf_magmom
 _atom_site_hse06_ddec_charge
 _atom_site_hse06_ddec_spin_density
 _atom_site_hse06_ddec_sum_bond_order
 _atom_site_hse06_magmom
 _atom_site_pbe_cm5_charge
 _atom_site_pbe_ddec_charge
 _atom_site_pbe_ddec_spin_density
 _atom_site_pbe_ddec_sum_bond_order
 _atom_site_pbe_magmom
Co  Co0  1  0.30749503  0.69730777  0.39135583  1  1.00708  2.861041  2.008191  2.583  0.969781  2.846849  2.421614  2.642  1.045985  2.884342  2.350479  2.719  0.677138  0.898513  2.810288  2.490149  2.565
Co  Co1  1  0.69250851  0.30269230  0.60864537  1  1.007157  2.861062  2.008158  2.583  0.969791  2.846841  2.421597  2.642  1.046019  2.884347  2.350454  2.719  0.677153  0.898566  2.810314  2.490118  2.566
H  H2  1  0.52437113  0.66938990  0.13060642  1  0.095409  -4.1e-05  0.9875  0.001  0.099308  -3.3e-05  1.06216  0.0  0.101913  -5.5e-05  1.058783  0.0  0.132047  0.097484  -1.4e-05  1.06418  0.0
H  H3  1  0.47563018  0.33061014  0.86939159  1  0.095387  -4.1e-05  0.987564  0.001  0.099303  -3.3e-05  1.062196  0.0  0.101909  -5.6e-05  1.058813  0.0  0.132042  0.097476  -1.4e-05  1.064209  0.0
H  H4  1  0.67432038  0.00711038  0.18143491  1  0.102686  8.5e-05  1.012439  0.0  0.109806  0.000118  1.081132  0.0  0.110644  0.000105  1.083457  0.0  0.1112  0.109542  0.000221  1.078805  0.0
H  H5  1  0.32567676  0.99289437  0.81856336  1  0.102699  8.5e-05  1.01247  0.0  0.109817  0.000118  1.081154  0.0  0.110655  0.000105  1.08348  0.0  0.111215  0.109555  0.000221  1.07883  0.0
H  H6  1  0.44044549  0.96694620  0.36221628  1  0.104942  -1.4e-05  0.937346  0.0  0.118423  3e-05  0.988935  0.0  0.121283  -4e-06  0.987031  0.0  0.120478  0.11587  8.4e-05  0.991192  0.0
H  H7  1  0.55955202  0.03305500  0.63778282  1  0.104957  -1.4e-05  0.937301  0.0  0.118412  3e-05  0.988918  0.0  0.121285  -4e-06  0.986999  0.0  0.120462  0.115858  8.4e-05  0.991177  0.0
H  H8  1  0.87143322  0.75701557  0.05724854  1  0.07018  -1.5e-05  0.91491  0.0  0.089769  4.6e-05  0.973392  0.0  0.090074  3.6e-05  0.973459  0.0  0.108051  0.089021  4.5e-05  0.973908  0.0
H  H9  1  0.12856612  0.24298918  0.94274769  1  0.070185  -1.4e-05  0.914906  0.0  0.089753  4.6e-05  0.973394  0.0  0.090064  3.7e-05  0.973455  0.0  0.108047  0.089003  4.5e-05  0.973914  0.0
H  H10  1  0.73369044  0.92892880  0.96226519  1  0.078575  -0.000133  0.909874  0.0  0.096526  -8.4e-05  0.968403  0.0  0.096659  -6.5e-05  0.969272  0.0  0.110642  0.096386  -8.2e-05  0.967604  0.0
H  H11  1  0.26630768  0.07107358  0.03773179  1  0.078544  -0.000132  0.909922  0.0  0.096484  -8.4e-05  0.968432  0.0  0.09662  -6.5e-05  0.969305  0.0  0.110599  0.096349  -8.2e-05  0.967633  0.0
H  H12  1  0.96721241  0.81381367  0.55727833  1  0.102669  -1.4e-05  0.946763  0.001  0.111595  -3.2e-05  1.011015  0.0  0.1147  -8.2e-05  1.00737  0.0  0.1332  0.108946  8e-06  1.014136  0.0
H  H13  1  0.03279307  0.18618166  0.44272116  1  0.102709  -1.3e-05  0.946639  0.001  0.111636  -3.2e-05  1.01088  0.0  0.114742  -8.2e-05  1.007235  0.0  0.133217  0.108985  8e-06  1.014004  0.0
H  H14  1  0.05222466  0.33274698  0.71268302  1  0.11647  7.9e-05  0.974773  0.0  0.12375  7.8e-05  1.042139  0.0  0.126733  3.8e-05  1.040585  0.0  0.115457  0.121568  0.000136  1.043248  0.0
H  H15  1  0.94778144  0.66724954  0.28731609  1  0.116435  7.9e-05  0.974816  0.0  0.123716  7.8e-05  1.04218  0.0  0.126694  3.8e-05  1.040639  0.0  0.115451  0.121529  0.000136  1.043285  0.0
H  H16  1  0.30061585  0.35476576  0.53970720  1  0.103386  -2.6e-05  0.979273  0.001  0.111697  1.5e-05  1.042337  0.0  0.114476  -7.3e-05  1.041135  0.0  0.112514  0.109511  0.000115  1.043371  0.0
H  H17  1  0.69938865  0.64523193  0.46029271  1  0.103385  -2.7e-05  0.979333  0.001  0.111713  1.5e-05  1.04238  0.0  0.114492  -7.3e-05  1.041179  0.0  0.112512  0.10953  0.000115  1.043415  0.0
H  H18  1  0.80500991  0.52418286  0.78567282  1  0.093321  -2e-05  0.926991  0.0  0.108562  -6.8e-05  0.988092  0.0  0.110184  -7.7e-05  0.986964  0.0  0.115463  0.106887  -3.2e-05  0.989631  0.0
H  H19  1  0.19499029  0.47581717  0.21432534  1  0.093338  -1.9e-05  0.926958  0.0  0.10859  -6.8e-05  0.988035  0.0  0.110212  -7.6e-05  0.986907  0.0  0.115466  0.106917  -3.3e-05  0.989572  0.0
H  H20  1  0.72463051  0.71852023  0.69373008  1  0.071041  -0.000207  0.911855  0.0  0.090023  -0.000114  0.968746  0.0  0.090153  -7.4e-05  0.96907  0.0  0.108752  0.089332  -0.000125  0.96931  0.0
H  H21  1  0.27537350  0.28147863  0.30626612  1  0.071056  -0.000206  0.911922  0.0  0.090039  -0.000114  0.968799  0.0  0.090169  -7.3e-05  0.969123  0.0  0.108747  0.089346  -0.000125  0.969365  0.0
H  H22  1  0.87026513  0.80759012  0.79652229  1  0.071072  -9.1e-05  0.957317  0.0  0.088127  -8.4e-05  1.021663  0.0  0.088116  -7.1e-05  1.023748  0.0  0.091324  0.087651  -0.000103  1.020807  0.0
H  H23  1  0.12973445  0.19240872  0.20347537  1  0.071101  -9e-05  0.957319  0.0  0.088175  -8.4e-05  1.02165  0.0  0.088167  -6.9e-05  1.023732  0.0  0.091356  0.087706  -0.000103  1.020773  0.0
H  H24  1  0.98405757  0.61351527  0.87746686  1  0.06971  4e-06  0.927659  0.0  0.089915  5e-06  0.984634  0.0  0.090225  4e-06  0.986263  0.0  0.09168  0.089827  0.0  0.982929  0.0
H  H25  1  0.01594104  0.38648594  0.12253297  1  0.069759  4e-06  0.927761  0.0  0.089975  5e-06  0.984722  0.0  0.090287  4e-06  0.986352  0.0  0.091701  0.089881  0.0  0.98302  0.0
H  H26  1  0.61362608  0.76803633  0.90829467  1  0.069338  -1.6e-05  0.952113  0.0  0.085217  -6e-06  1.018525  0.0  0.085169  6e-06  1.020787  0.0  0.090807  0.085293  -2.3e-05  1.016476  0.0
H  H27  1  0.38637364  0.23196489  0.09170501  1  0.069278  -1.8e-05  0.952126  0.0  0.085204  -6e-06  1.018536  0.0  0.085156  6e-06  1.020798  0.0  0.090799  0.08528  -2.3e-05  1.016483  0.0
H  H28  1  0.74759277  0.59373649  0.00301128  1  0.07114  -3.9e-05  0.940414  0.0  0.089157  -2.8e-05  1.001673  0.0  0.089539  -9e-06  1.002542  0.0  0.092379  0.088897  -3.4e-05  1.000658  0.0
H  H29  1  0.25240486  0.40626709  0.99698810  1  0.071177  -3.9e-05  0.940388  0.0  0.089211  -2.8e-05  1.00167  0.0  0.089593  -1e-05  1.00254  0.0  0.092433  0.08895  -3.4e-05  1.000662  0.0
H  H30  1  0.81688678  0.10862291  0.41300460  1  0.118544  -0.000319  0.962439  0.0  0.123216  -0.00034  1.034002  0.0  0.128253  -0.000381  1.029536  0.0  0.107982  0.119363  -0.000298  1.037685  0.0
H  H31  1  0.18311504  0.89137597  0.58699800  1  0.118504  -0.00032  0.96241  0.0  0.123135  -0.00034  1.034033  0.0  0.128171  -0.000382  1.029566  0.0  0.107954  0.119284  -0.000298  1.037721  0.0
H  H32  1  0.96042998  0.07411340  0.04114847  1  0.102152  9e-06  1.003129  0.0  0.11031  -2.6e-05  1.072385  0.0  0.114291  -1.6e-05  1.068887  0.0  0.09877  0.107261  -3.6e-05  1.075112  0.0
H  H33  1  0.03956656  0.92589017  0.95885193  1  0.102123  8e-06  1.003194  0.0  0.110331  -2.6e-05  1.072409  0.0  0.114312  -1.6e-05  1.068911  0.0  0.098797  0.107286  -3.6e-05  1.075131  0.0
H  H34  1  0.51704608  0.45007994  0.11896665  1  0.130618  0.000144  0.973559  0.0  0.136572  3.8e-05  1.040923  0.0  0.141247  1.8e-05  1.037144  0.0  0.107928  0.132916  9.4e-05  1.043977  0.0
H  H35  1  0.48295070  0.54991772  0.88103692  1  0.130633  0.000143  0.973536  0.0  0.136573  3.8e-05  1.040917  0.0  0.14125  1.8e-05  1.037133  0.0  0.107938  0.132921  9.4e-05  1.043968  0.0
H  H36  1  0.78174438  0.26370036  0.89134851  1  0.404099  -0.000148  0.885702  0.0  0.376371  -0.000162  0.96261  0.0  0.387156  -0.000176  0.947845  0.0  0.306224  0.368843  -0.00013  0.971142  0.0
H  H37  1  0.21825314  0.73630086  0.10865408  1  0.404112  -0.000148  0.885788  0.0  0.376371  -0.000162  0.962743  0.0  0.38716  -0.000176  0.947884  0.0  0.306211  0.368843  -0.00013  0.971273  0.0
C  C38  1  0.53272004  0.75542318  0.16949752  1  0.157246  -0.011665  3.656785  -0.007  0.099277  -0.001773  3.927636  0.0  0.114209  -0.001242  3.939394  0.0  0.135993  0.088951  -0.002742  3.919026  -0.001
C  C39  1  0.46727981  0.24458041  0.83050069  1  0.157288  -0.011668  3.656815  -0.007  0.099302  -0.001775  3.92766  0.0  0.114233  -0.001245  3.939419  0.0  0.135983  0.088987  -0.002744  3.919036  -0.001
C  C40  1  0.60702834  0.93360870  0.19778041  1  -0.081663  0.003126  3.692937  0.004  -0.118224  0.001175  3.947098  0.001  -0.117155  0.001002  3.967378  0.001  -0.008436  -0.119148  0.001403  3.933676  0.002
C  C41  1  0.39296806  0.06639249  0.80221797  1  -0.081628  0.003127  3.692948  0.004  -0.118173  0.001175  3.947086  0.001  -0.117106  0.001003  3.96737  0.001  -0.008431  -0.119098  0.001403  3.933676  0.002
C  C42  1  0.49183286  0.91259515  0.28601608  1  0.007336  -0.006295  3.757408  -0.004  -0.020854  -0.001786  4.02287  -0.001  -0.017362  -0.001723  4.040242  -0.001  -0.001931  -0.024005  -0.00209  4.012258  -0.001
C  C43  1  0.50816525  0.08740722  0.71398090  1  0.007349  -0.006298  3.757264  -0.004  -0.020838  -0.001786  4.022726  -0.001  -0.017355  -0.001722  4.04009  -0.001  -0.0019  -0.023982  -0.002091  4.012117  -0.001
C  C44  1  0.74975060  0.81127077  0.02094519  1  0.014189  0.000513  3.622363  0.001  -0.049005  0.000421  3.88472  0.001  -0.044223  0.000337  3.895719  0.001  -0.049334  -0.05232  0.000549  3.877962  0.001
C  C45  1  0.25024862  0.18873161  0.97905164  1  0.014176  0.000511  3.622492  0.001  -0.048943  0.000421  3.884845  0.001  -0.044164  0.000335  3.895843  0.001  -0.04929  -0.052259  0.000549  3.878091  0.001
C  C46  1  0.02523516  0.68610207  0.57375993  1  0.149414  -0.013432  3.657708  -0.009  0.097064  -0.00283  3.922012  -0.001  0.11071  -0.002224  3.935306  -0.001  0.133487  0.087488  -0.003882  3.91274  -0.002
C  C47  1  0.97476837  0.31389798  0.42623953  1  0.149266  -0.013433  3.657681  -0.009  0.096919  -0.002828  3.921999  -0.001  0.110567  -0.002224  3.935293  -0.001  0.13342  0.087342  -0.003881  3.912732  -0.002
C  C48  1  0.07550184  0.43342948  0.65610966  1  -0.067845  0.003688  3.671276  0.005  -0.108767  0.001202  3.932904  0.002  -0.107873  0.00105  3.95202  0.001  -0.005468  -0.108991  0.001368  3.920276  0.002
C  C49  1  0.92450254  0.56656585  0.34389172  1  -0.067725  0.003687  3.671333  0.005  -0.108633  0.001202  3.932953  0.002  -0.107742  0.00105  3.95207  0.001  -0.005458  -0.108852  0.001368  3.920312  0.002
C  C50  1  0.19365499  0.44646946  0.56816060  1  0.010656  -0.007234  3.745475  -0.005  -0.023627  -0.002743  4.022581  -0.001  -0.020728  -0.002837  4.0415  -0.002  -0.008542  -0.025862  -0.002514  4.009516  -0.001
C  C51  1  0.80635001  0.55352706  0.43183954  1  0.010578  -0.007231  3.74552  -0.005  -0.023726  -0.002744  4.02263  -0.001  -0.020828  -0.002834  4.041548  -0.002  -0.008521  -0.025964  -0.002514  4.009568  -0.001
C  C52  1  0.83106980  0.62942479  0.74456695  1  0.00875  0.000535  3.61364  0.001  -0.052551  0.000396  3.870671  0.001  -0.047756  0.000294  3.880526  0.001  -0.049189  -0.05558  0.000482  3.864775  0.001
C  C53  1  0.16893310  0.37057407  0.25543114  1  0.008665  0.000532  3.613755  0.001  -0.052624  0.000396  3.870768  0.001  -0.047825  0.000292  3.880622  0.001  -0.049236  -0.055656  0.000482  3.864875  0.001
C  C54  1  0.86394443  0.69283294  0.84121349  1  -0.12628  -0.000231  3.682454  0.0  -0.167051  -8.3e-05  3.94503  0.0  -0.168892  -4.6e-05  3.959828  0.0  -0.163908  -0.165738  -9.2e-05  3.935126  0.0
C  C55  1  0.13605529  0.30716827  0.15878532  1  -0.1264  -0.000231  3.682659  0.0  -0.167194  -8.3e-05  3.94531  0.0  -0.16904  -4.7e-05  3.960118  0.0  -0.163956  -0.165883  -9.2e-05  3.935404  0.0
C  C56  1  0.73477342  0.71115483  0.94552732  1  -0.128698  -2.9e-05  3.689349  0.0  -0.168488  -2e-06  3.94956  0.0  -0.169787  2e-06  3.963638  0.0  -0.163066  -0.167754  1.4e-05  3.940376  0.0
C  C57  1  0.26522580  0.28884756  0.05447039  1  -0.128559  -2.4e-05  3.689189  0.0  -0.168487  -2e-06  3.949582  0.0  -0.169788  7e-06  3.963669  0.0  -0.163105  -0.167755  1.4e-05  3.940398  0.0
C  C58  1  0.65546833  0.28830694  0.27493336  1  -0.046421  0.007407  3.782328  0.012  -0.020392  0.003285  4.014766  0.005  -0.027155  0.002127  4.035215  0.004  -0.01997  -0.015584  0.004522  4.002354  0.008
C  C59  1  0.34453239  0.71169194  0.72507114  1  -0.046539  0.007391  3.782261  0.012  -0.020498  0.003286  4.014726  0.005  -0.02726  0.002125  4.035172  0.004  -0.019998  -0.015687  0.004522  4.002318  0.008
C  C60  1  0.79386294  0.15272026  0.31606150  1  -0.110651  -0.005824  3.714627  -0.004  -0.151976  -0.000334  3.967797  0.0  -0.151119  -0.000605  3.985276  0.0  -0.093256  -0.154648  -0.001871  3.958747  -0.001
C  C61  1  0.20613776  0.84727861  0.68393951  1  -0.110465  -0.005792  3.714507  -0.004  -0.151748  -0.000335  3.967668  0.0  -0.150888  -0.000605  3.985146  0.0  -0.093175  -0.15442  -0.001873  3.95863  -0.001
C  C62  1  0.90237826  0.07518076  0.23154930  1  -0.041599  0.004295  3.812381  0.006  -0.014801  0.001348  4.045696  0.002  -0.019801  0.000925  4.065228  0.001  -0.021894  -0.011676  0.001818  4.033512  0.003
C  C63  1  0.09761975  0.92481927  0.76845178  1  -0.041634  0.00428  3.812343  0.006  -0.014844  0.001348  4.045668  0.002  -0.019846  0.000928  4.065199  0.001  -0.02188  -0.011722  0.001818  4.033502  0.003
C  C64  1  0.87405547  0.13340503  0.10654064  1  -0.225877  -0.009802  3.743594  -0.006  -0.260681  -0.001352  3.998749  0.0  -0.262058  -0.000189  4.014403  0.0  -0.10966  -0.259231  -0.00303  3.987716  -0.001
C  C65  1  0.12594205  0.86659618  0.89346108  1  -0.225879  -0.009774  3.743645  -0.006  -0.260741  -0.001353  3.998811  0.0  -0.262126  -0.000196  4.014484  0.0  -0.109728  -0.259293  -0.003032  3.987784  -0.001
C  C66  1  0.73659522  0.26944350  0.06525705  1  0.324813  0.002527  3.861706  0.004  0.317422  0.000281  4.131126  0.001  0.327314  0.000215  4.145608  0.0  0.074901  0.310298  0.000475  4.119334  0.001
C  C67  1  0.26340120  0.73055771  0.93474569  1  0.324727  0.002514  3.861824  0.004  0.317367  0.00028  4.131211  0.001  0.327257  0.000217  4.145693  0.0  0.074841  0.310242  0.000475  4.11943  0.001
C  C68  1  0.62621503  0.34615289  0.15005889  1  -0.200442  -0.010754  3.683241  -0.007  -0.236654  -0.001454  3.942142  -0.001  -0.237299  -0.00029  3.957424  0.0  -0.10267  -0.234621  -0.002538  3.929461  -0.001
C  C69  1  0.37378139  0.65384833  0.84994472  1  -0.200363  -0.01072  3.683224  -0.007  -0.236555  -0.001456  3.942092  -0.001  -0.237198  -0.000288  3.957374  0.0  -0.102618  -0.234524  -0.002541  3.929417  -0.001
C  C70  1  0.54176538  0.37457011  0.36494076  1  0.660481  -0.015074  3.84451  -0.01  0.61839  0.002032  4.139543  0.005  0.66037  0.002858  4.12897  0.006  0.220806  0.58451  -0.000673  4.146853  0.002
C  C71  1  0.45823337  0.62543348  0.63506021  1  0.660675  -0.015076  3.84438  -0.01  0.618501  0.002031  4.139525  0.005  0.660482  0.002855  4.128951  0.006  0.220875  0.58462  -0.000678  4.146839  0.002
C  C72  1  0.04958908  0.92982558  0.27452283  1  0.63932  -0.010424  3.90056  -0.008  0.592461  -0.002872  4.200396  -0.002  0.627915  -0.001421  4.193521  -0.001  0.205993  0.56735  -0.004636  4.202205  -0.004
C  C73  1  0.95041100  0.07017208  0.72547593  1  0.639366  -0.010421  3.900374  -0.008  0.592504  -0.002872  4.200199  -0.002  0.627958  -0.001419  4.193326  -0.001  0.206006  0.567389  -0.004637  4.202018  -0.004
N  N74  1  0.16111782  0.60448920  0.51712185  1  -0.393763  0.030304  3.345101  0.061  -0.351387  0.020406  3.650015  0.037  -0.375963  0.016793  3.663531  0.031  -0.359302  -0.331685  0.023556  3.640499  0.041
N  N75  1  0.83888829  0.39550732  0.48287813  1  -0.393609  0.030302  3.344928  0.061  -0.351219  0.020406  3.649825  0.037  -0.375801  0.016792  3.663345  0.031  -0.359254  -0.331535  0.023553  3.640332  0.041
N  N76  1  0.96955650  0.58611816  0.65842583  1  -0.067739  -0.000385  3.584551  0.001  0.027853  0.000261  3.800105  0.001  0.013425  0.000249  3.82632  0.001  -0.247085  0.037083  0.00012  3.782643  0.001
N  N77  1  0.03044691  0.41387954  0.34157511  1  -0.067774  -0.000384  3.584673  0.001  0.027809  0.000261  3.800234  0.001  0.013382  0.00025  3.82645  0.001  -0.247103  0.037039  0.000121  3.782767  0.001
N  N78  1  0.44662794  0.80127820  0.26751241  1  -0.372142  0.030093  3.334301  0.056  -0.329032  0.022459  3.632409  0.036  -0.35243  0.019102  3.644655  0.03  -0.358439  -0.311215  0.024978  3.624951  0.04
N  N79  1  0.55337177  0.19872300  0.73248378  1  -0.3722  0.030094  3.33424  0.056  -0.329054  0.022459  3.632322  0.036  -0.352459  0.019101  3.644578  0.03  -0.358444  -0.31124  0.024977  3.624857  0.04
N  N80  1  0.63116312  0.83355516  0.12402715  1  -0.073125  3.7e-05  3.570242  0.001  0.021894  0.000594  3.787575  0.001  0.007206  0.000556  3.813278  0.001  -0.246746  0.031489  0.000506  3.770835  0.001
N  N81  1  0.36883611  0.16644723  0.87597055  1  -0.073165  3.7e-05  3.570392  0.001  0.021838  0.000594  3.787727  0.001  0.007152  0.000557  3.813434  0.001  -0.246748  0.031431  0.000505  3.770995  0.001
O  O82  1  0.42312494  0.50304001  0.32416822  1  -0.596387  0.048734  2.103325  0.084  -0.563333  0.039242  2.388471  0.063  -0.6002  0.029222  2.375281  0.047  -0.300114  -0.531704  0.05023  2.397351  0.08
O  O83  1  0.57687565  0.49695649  0.67583513  1  -0.59651  0.048741  2.103155  0.084  -0.563445  0.039247  2.38839  0.063  -0.600319  0.029226  2.375206  0.047  -0.300174  -0.531823  0.050235  2.39728  0.08
O  O84  1  0.56862815  0.31313095  0.47856952  1  -0.628877  0.04593  2.164364  0.081  -0.602303  0.033614  2.461393  0.055  -0.642501  0.02199  2.447506  0.036  -0.315182  -0.563762  0.048142  2.467458  0.079
O  O85  1  0.43137650  0.68686914  0.52143328  1  -0.628945  0.04592  2.164449  0.081  -0.60235  0.033607  2.461523  0.055  -0.642543  0.021986  2.447631  0.036  -0.3152  -0.563804  0.048135  2.467583  0.079
O  O86  1  0.11315485  0.91929321  0.37008448  1  -0.600232  0.042391  2.020601  0.073  -0.565426  0.031404  2.28694  0.051  -0.601452  0.022895  2.278367  0.037  -0.304707  -0.534619  0.040883  2.289995  0.066
O  O87  1  0.88684449  0.08070089  0.62991526  1  -0.60029  0.042388  2.020602  0.073  -0.565427  0.031403  2.286891  0.051  -0.601451  0.022892  2.278305  0.037  -0.304682  -0.534622  0.04088  2.289949  0.066
O  O88  1  0.10578496  0.82072247  0.21721638  1  -0.65821  0.010874  1.979347  0.019  -0.618469  0.010937  2.228995  0.018  -0.645896  0.007582  2.217483  0.012  -0.322126  -0.596273  0.01482  2.235281  0.024
O  O89  1  0.89421143  0.17927871  0.78277938  1  -0.658281  0.010875  1.97915  0.019  -0.618537  0.010938  2.228795  0.018  -0.645965  0.007583  2.2173  0.012  -0.322166  -0.596336  0.01482  2.235081  0.024
O  O90  1  0.70455861  0.33188071  0.94494415  1  -0.534681  0.000385  2.153426  0.001  -0.479447  -1.9e-05  2.369522  0.0  -0.498288  -8.9e-05  2.358116  0.0  -0.352194  -0.465861  8.8e-05  2.37501  0.0
O  O91  1  0.29543842  0.66812169  0.05505822  1  -0.534666  0.000384  2.153518  0.001  -0.479454  -1.9e-05  2.369616  0.0  -0.498293  -8.9e-05  2.358141  0.0  -0.352157  -0.465864  8.8e-05  2.375104  0.0
