# generated using pymatgen
data_CdH15C21S3N5O6
_symmetry_space_group_name_H-M   'P 1'
_cell_length_a   8.63554464
_cell_length_b   11.84539984
_cell_length_c   12.15808579
_cell_angle_alpha   85.11086798
_cell_angle_beta   71.09332283
_cell_angle_gamma   90.50361936
_symmetry_Int_Tables_number   1
_chemical_formula_structural   CdH15C21S3N5O6
_chemical_formula_sum   'Cd2 H30 C42 S6 N10 O12'
_cell_volume   1171.41402319
_cell_formula_units_Z   2
loop_
 _symmetry_equiv_pos_site_id
 _symmetry_equiv_pos_as_xyz
  1  'x, y, z'
loop_
 _atom_site_type_symbol
 _atom_site_label
 _atom_site_symmetry_multiplicity
 _atom_site_fract_x
 _atom_site_fract_y
 _atom_site_fract_z
 _atom_site_occupancy
 _atom_site_hle17_bader_spin_density
 _atom_site_hle17_ddec_charge
 _atom_site_hle17_ddec_spin_density
 _atom_site_hle17_ddec_sum_bond_order
 _atom_site_hle17_magmom
 _atom_site_hse06_10hf_bader_spin_density
 _atom_site_hse06_10hf_ddec_charge
 _atom_site_hse06_10hf_ddec_spin_density
 _atom_site_hse06_10hf_ddec_sum_bond_order
 _atom_site_hse06_10hf_magmom
 _atom_site_hse06_bader_spin_density
 _atom_site_hse06_ddec_charge
 _atom_site_hse06_ddec_spin_density
 _atom_site_hse06_ddec_sum_bond_order
 _atom_site_hse06_magmom
 _atom_site_pbe_bader_spin_density
 _atom_site_pbe_cm5_charge
 _atom_site_pbe_ddec_charge
 _atom_site_pbe_ddec_spin_density
 _atom_site_pbe_ddec_sum_bond_order
 _atom_site_pbe_magmom
Cd  Cd0  1  0.83615298  0.36044813  0.07060799  1  0  1.184475  0  1.630543  0  0  0.985925  0  2.090316  0  0  1.045003  0  2.033187  0  0  0.790808  0.943816  0  2.129629  0
Cd  Cd1  1  0.16384447  0.63954279  0.92939011  1  0  1.184664  0  1.630256  0  0  0.986107  0  2.090025  0  0  1.045183  0  2.032892  0  0  0.790905  0.944  0  2.129342  0
H  H2  1  0.88772471  0.54139432  0.24851227  1  0  0.091608  0  0.985499  0  0  0.096464  0  1.054089  0  0  0.100314  0  1.050315  0  0  0.112398  0.093589  0  1.056939  0
H  H3  1  0.11227577  0.45860930  0.75148230  1  0  0.091657  0  0.98534  0  0  0.09652  0  1.05393  0  0  0.100367  0  1.050159  0  0  0.112418  0.093641  0  1.056784  0
H  H4  1  0.80219104  0.56375519  0.46504355  1  0  0.102766  0  0.977301  0  0  0.104942  0  1.053559  0  0  0.108774  0  1.051598  0  0  0.09913  0.102161  0  1.055149  0
H  H5  1  0.19782399  0.43624688  0.53495051  1  0  0.102698  0  0.977378  0  0  0.104923  0  1.053597  0  0  0.108753  0  1.05164  0  0  0.09912  0.102146  0  1.055181  0
H  H6  1  0.59589034  0.42389520  0.60321134  1  0  0.097192  0  0.938144  0  0  0.107008  0  1.000248  0  0  0.110033  0  0.998282  0  0  0.104715  0.104784  0  1.001734  0
H  H7  1  0.40413066  0.57610784  0.39678709  1  0  0.097193  0  0.938196  0  0  0.10706  0  1.000242  0  0  0.110081  0  0.998276  0  0  0.104737  0.104843  0  1.001725  0
H  H8  1  0.41573002  0.24843896  0.63291299  1  0  0.09703  0  0.934903  0  0  0.110729  0  0.989545  0  0  0.113824  0  0.988377  0  0  0.103915  0.108466  0  0.990526  0
H  H9  1  0.58428608  0.75156837  0.36709184  1  0  0.096992  0  0.934837  0  0  0.11071  0  0.989457  0  0  0.113809  0  0.988281  0  0  0.103908  0.108448  0  0.99043  0
H  H10  1  0.33015490  0.08339498  0.54965241  1  0  0.093663  0  0.979551  0  0  0.101296  0  1.049263  0  0  0.104109  0  1.048105  0  0  0.094941  0.09926  0  1.05014  0
H  H11  1  0.66986338  0.91660904  0.45035639  1  0  0.093727  0  0.979573  0  0  0.101352  0  1.049272  0  0  0.10416  0  1.048141  0  0  0.094966  0.099323  0  1.050147  0
H  H12  1  0.35777552  0.97450713  0.38117981  1  0  0.095183  0  0.991636  0  0  0.099046  0  1.067333  0  0  0.102299  0  1.064618  0  0  0.097209  0.096668  0  1.069327  0
H  H13  1  0.64222910  0.02549342  0.61883391  1  0  0.095225  0  0.991636  0  0  0.099076  0  1.067376  0  0  0.102326  0  1.064669  0  0  0.097222  0.096699  0  1.069366  0
H  H14  1  0.47983204  0.95970657  0.16391591  1  0  0.110329  0  0.949972  0  0  0.119795  0  1.010142  0  0  0.123568  0  1.00817  0  0  0.106674  0.117046  0  1.011783  0
H  H15  1  0.52015815  0.04029550  0.83609502  1  0  0.110324  0  0.949819  0  0  0.119767  0  1.010032  0  0  0.123541  0  1.008055  0  0  0.106646  0.117019  0  1.011669  0
H  H16  1  0.65585862  0.12462057  0.03938356  1  0  0.090671  0  0.955102  0  0  0.100859  0  1.015229  0  0  0.103463  0  1.01253  0  0  0.117163  0.098903  0  1.01724  0
H  H17  1  0.34413277  0.87537720  0.96062260  1  0  0.090771  0  0.955028  0  0  0.10089  0  1.015224  0  0  0.103495  0  1.012524  0  0  0.117185  0.098938  0  1.017228  0
H  H18  1  0.46208956  0.41123027  0.09451547  1  0  0.144031  0  0.944554  0  0  0.153421  0  1.00735  0  0  0.157066  0  1.004303  0  0  0.105721  0.150764  0  1.009722  0
H  H19  1  0.53790124  0.58876978  0.90547331  1  0  0.143949  0  0.944645  0  0  0.153392  0  1.007403  0  0  0.157041  0  1.004347  0  0  0.105694  0.150734  0  1.00977  0
H  H20  1  0.35479610  0.27558947  0.11985387  1  0  0.136369  0  0.946423  0  0  0.144261  0  1.013887  0  0  0.146878  0  1.013237  0  0  0.107788  0.142448  0  1.014414  0
H  H21  1  0.64520889  0.72440487  0.88014063  1  0  0.136446  0  0.946381  0  0  0.144257  0  1.01394  0  0  0.146878  0  1.013279  0  0  0.107769  0.142443  0  1.014475  0
H  H22  1  0.03915859  0.28847338  0.66962695  1  0  0.12174  0  0.935768  0  0  0.135119  0  0.996099  0  0  0.137304  0  0.995195  0  0  0.104386  0.133629  0  0.99673  0
H  H23  1  0.96085920  0.71151271  0.33037546  1  0  0.121632  0  0.935764  0  0  0.135024  0  0.9961  0  0  0.13721  0  0.995198  0  0  0.104331  0.133533  0  0.996724  0
H  H24  1  0.89607225  0.39406522  0.66418684  1  0  0.116701  0  0.952157  0  0  0.125382  0  1.023384  0  0  0.12727  0  1.023304  0  0  0.100712  0.124058  0  1.023504  0
H  H25  1  0.10395530  0.60592614  0.33582118  1  0  0.116742  0  0.952144  0  0  0.125457  0  1.023328  0  0  0.127353  0  1.023241  0  0  0.100725  0.124127  0  1.023456  0
H  H26  1  0.22469370  0.01812338  0.16716856  1  0  0.133726  0  0.958525  0  0  0.138054  0  1.030735  0  0  0.140244  0  1.030837  0  0  0.107665  0.13654  0  1.030753  0
H  H27  1  0.77530343  0.98188095  0.83281762  1  0  0.133615  0  0.958611  0  0  0.137928  0  1.030856  0  0  0.14011  0  1.030952  0  0  0.107598  0.136416  0  1.030878  0
H  H28  1  0.11158547  0.93048143  0.10562109  1  0  0.157358  0  0.927965  0  0  0.17005  0  0.984041  0  0  0.172719  0  0.983047  0  0  0.118458  0.168108  0  0.984948  0
H  H29  1  0.88840389  0.06952044  0.89437687  1  0  0.157402  0  0.92787  0  0  0.170112  0  0.98396  0  0  0.172775  0  0.982957  0  0  0.118476  0.168173  0  0.984872  0
H  H30  1  0.24961880  0.20857329  0.93437205  1  0  0.417742  0  0.772195  0  0  0.401565  0  0.822593  0  0  0.410894  0  0.813036  0  0  0.352293  0.394798  0  0.829706  0
H  H31  1  0.75034321  0.79143493  0.06561475  1  0  0.417667  0  0.772418  0  0  0.401517  0  0.822756  0  0  0.410853  0  0.813189  0  0  0.352231  0.394752  0  0.829866  0
C  C32  1  0.80149635  0.48095844  0.31289167  1  0  0.147204  0  3.661284  0  0  0.114943  0  3.913078  0  0  0.123096  0  3.928879  0  0  0.051566  0.10961  0  3.902322  0
C  C33  1  0.19850071  0.51904936  0.68710076  1  0  0.147214  0  3.66109  0  0  0.114914  0  3.912999  0  0  0.12307  0  3.928801  0  0  0.05156  0.109588  0  3.90223  0
C  C34  1  0.75196584  0.49330744  0.43334046  1  0  -0.115168  0  3.716641  0  0  -0.128024  0  3.974634  0  0  -0.135159  0  3.995823  0  0  -0.087404  -0.123403  0  3.960403  0
C  C35  1  0.24804203  0.50669968  0.56665547  1  0  -0.115144  0  3.716648  0  0  -0.128058  0  3.974706  0  0  -0.135194  0  3.995895  0  0  -0.087399  -0.123438  0  3.960471  0
C  C36  1  0.63906448  0.41560587  0.50953451  1  0  -0.054375  0  3.722222  0  0  -0.081204  0  3.974646  0  0  -0.079288  0  3.993995  0  0  -0.067397  -0.082205  0  3.961402  0
C  C37  1  0.36094458  0.58440300  0.49046429  1  0  -0.054351  0  3.72213  0  0  -0.08124  0  3.974558  0  0  -0.079313  0  3.993894  0  0  -0.067444  -0.082248  0  3.961325  0
C  C38  1  0.57884999  0.32396525  0.46600811  1  0  0.018747  0  3.810351  0  0  0.035561  0  4.043795  0  0  0.032452  0  4.06933  0  0  -0.005972  0.037489  0  4.026586  0
C  C39  1  0.42115176  0.67604442  0.53399218  1  0  0.018651  0  3.810533  0  0  0.035513  0  4.043871  0  0  0.032401  0  4.069409  0  0  -0.005873  0.037443  0  4.026665  0
C  C40  1  0.46317050  0.23958147  0.53943309  1  0  -0.103123  0  3.764976  0  0  -0.128633  0  4.024389  0  0  -0.132132  0  4.047508  0  0  -0.087582  -0.126213  0  4.008742  0
C  C41  1  0.53683716  0.76042747  0.46057176  1  0  -0.102893  0  3.764754  0  0  -0.12844  0  4.024121  0  0  -0.131935  0  4.047243  0  0  -0.087548  -0.126016  0  4.008466  0
C  C42  1  0.41647631  0.14876581  0.49401838  1  0  -0.087676  0  3.731928  0  0  -0.108521  0  3.984502  0  0  -0.111406  0  4.007793  0  0  -0.084856  -0.106427  0  3.96872  0
C  C43  1  0.58352999  0.85124059  0.50598783  1  0  -0.087823  0  3.732007  0  0  -0.108706  0  3.984595  0  0  -0.111603  0  4.007889  0  0  -0.084884  -0.10661  0  3.96881  0
C  C44  1  0.48114574  0.13560508  0.37189109  1  0  0.027912  0  3.787461  0  0  0.043955  0  4.017546  0  0  0.040443  0  4.042354  0  0  -0.004181  0.046085  0  4.000832  0
C  C45  1  0.51885569  0.86440128  0.62811535  1  0  0.027874  0  3.787646  0  0  0.043989  0  4.017667  0  0  0.040479  0  4.042472  0  0  -0.004189  0.046113  0  4.000962  0
C  C46  1  0.44089376  0.04032439  0.32316261  1  0  -0.041975  0  3.687081  0  0  -0.06687  0  3.936487  0  0  -0.064541  0  3.955645  0  0  -0.06606  -0.068071  0  3.923402  0
C  C47  1  0.55910628  0.95967858  0.67684528  1  0  -0.042004  0  3.687254  0  0  -0.066922  0  3.936626  0  0  -0.064591  0  3.955783  0  0  -0.066078  -0.068122  0  3.923547  0
C  C48  1  0.50640108  0.03302586  0.20419828  1  0  -0.13037  0  3.737905  0  0  -0.145853  0  3.9987  0  0  -0.15323  0  4.018731  0  0  -0.08808  -0.141144  0  3.985231  0
C  C49  1  0.49359020  0.96697195  0.79581118  1  0  -0.130321  0  3.737715  0  0  -0.145749  0  3.998506  0  0  -0.153127  0  4.018543  0  0  -0.088047  -0.141035  0  3.985028  0
C  C50  1  0.60830534  0.12281631  0.13419131  1  0  0.163362  0  3.67973  0  0  0.126108  0  3.941004  0  0  0.136024  0  3.95581  0  0  0.0575  0.119639  0  3.930845  0
C  C51  1  0.39168489  0.87718487  0.86581723  1  0  0.163188  0  3.679729  0  0  0.12597  0  3.941041  0  0  0.135884  0  3.955847  0  0  0.057464  0.119506  0  3.930885  0
C  C52  1  0.59060850  0.22007784  0.29530485  1  0  0.12683  0  3.780127  0  0  0.117334  0  4.022845  0  0  0.122127  0  4.04588  0  0  0.115904  0.114148  0  4.007244  0
C  C53  1  0.40938342  0.77993091  0.70469766  1  0  0.126616  0  3.780492  0  0  0.117101  0  4.023141  0  0  0.121893  0  4.046178  0  0  0.115733  0.113921  0  4.007547  0
C  C54  1  0.64053787  0.31595722  0.34358938  1  0  0.130185  0  3.765884  0  0  0.120987  0  4.006244  0  0  0.125041  0  4.02918  0  0  0.114259  0.118255  0  3.990706  0
C  C55  1  0.35945426  0.68405402  0.65640954  1  0  0.130165  0  3.766102  0  0  0.121058  0  4.006248  0  0  0.125116  0  4.029183  0  0  0.11425  0.118314  0  3.990726  0
C  C56  1  0.97775332  0.11747066  0.34127952  1  0  0.392607  0  3.799694  0  0  0.374796  0  4.090236  0  0  0.396225  0  4.09776  0  0  0.248926  0.360436  0  4.084928  0
C  C57  1  0.02224445  0.88252962  0.65872008  1  0  0.392692  0  3.799565  0  0  0.374851  0  4.090147  0  0  0.396281  0  4.097668  0  0  0.248898  0.360487  0  4.08485  0
C  C58  1  0.91675568  0.20619910  0.50615300  1  0  0.38246  0  3.814732  0  0  0.363026  0  4.10742  0  0  0.384579  0  4.115585  0  0  0.242181  0.348617  0  4.101591  0
C  C59  1  0.08324086  0.79380376  0.49384990  1  0  0.382421  0  3.814831  0  0  0.362956  0  4.107571  0  0  0.384508  0  4.115737  0  0  0.242162  0.348549  0  4.101735  0
C  C60  1  0.12157134  0.27572331  0.34424662  1  0  0.399613  0  3.79442  0  0  0.378025  0  4.090037  0  0  0.401045  0  4.095831  0  0  0.251836  0.362593  0  4.085872  0
C  C61  1  0.87842647  0.72427868  0.65575363  1  0  0.399483  0  3.794809  0  0  0.377955  0  4.090331  0  0  0.400975  0  4.096122  0  0  0.251783  0.362516  0  4.086176  0
C  C62  1  0.34154654  0.36684324  0.12771335  1  0  -0.298163  0  3.576368  0  0  -0.328668  0  3.82409  0  0  -0.333648  0  3.828267  0  0  -0.151825  -0.325436  0  3.82149  0
C  C63  1  0.65844113  0.63314674  0.87228531  1  0  -0.298159  0  3.576543  0  0  -0.328695  0  3.824265  0  0  -0.333675  0  3.828443  0  0  -0.151793  -0.325455  0  3.821658  0
C  C64  1  0.22980241  0.41317787  0.06005459  1  0  0.725178  0  3.874772  0  0  0.675872  0  4.174558  0  0  0.711156  0  4.166682  0  0  0.20445  0.651831  0  4.179067  0
C  C65  1  0.77017741  0.58680192  0.93994923  1  0  0.724802  0  3.875291  0  0  0.675497  0  4.175026  0  0  0.710781  0  4.167158  0  0  0.204163  0.651451  0  4.179537  0
C  C66  1  0.90909170  0.30785911  0.70067165  1  0  -0.29751  0  3.654265  0  0  -0.332614  0  3.906812  0  0  -0.336639  0  3.912217  0  0  -0.154196  -0.329853  0  3.90291  0
C  C67  1  0.09093128  0.69213292  0.29932742  1  0  -0.297386  0  3.65395  0  0  -0.332599  0  3.906649  0  0  -0.336633  0  3.912059  0  0  -0.154129  -0.329835  0  3.902739  0
C  C68  1  0.11332398  0.01145497  0.14353699  1  0  -0.321866  0  3.653239  0  0  -0.352306  0  3.902065  0  0  -0.35775  0  3.907344  0  0  -0.147734  -0.348802  0  3.898821  0
C  C69  1  0.88667288  0.98854602  0.85645369  1  0  -0.321809  0  3.653873  0  0  -0.352189  0  3.902622  0  0  -0.357582  0  3.907823  0  0  -0.147689  -0.348687  0  3.899384  0
C  C70  1  0.10907506  0.10566125  0.05288735  1  0  0.728052  0  3.742791  0  0  0.676943  0  4.054821  0  0  0.710292  0  4.044485  0  0  0.239922  0.654189  0  4.061439  0
C  C71  1  0.89088576  0.89434781  0.94709961  1  0  0.727684  0  3.742843  0  0  0.676569  0  4.054964  0  0  0.709913  0  4.044638  0  0  0.239778  0.653814  0  4.061568  0
C  C72  1  0.84373631  0.30193854  0.83396013  1  0  0.686342  0  3.911435  0  0  0.642438  0  4.209402  0  0  0.675484  0  4.204077  0  0  0.189524  0.619989  0  4.212139  0
C  C73  1  0.15629750  0.69805193  0.16604087  1  0  0.686614  0  3.910665  0  0  0.642738  0  4.208608  0  0  0.675785  0  4.203278  0  0  0.189686  0.620292  0  4.211347  0
S  S74  1  0.79535784  0.20627777  0.65193304  1  0  0.036335  0  2.48675  0  0  0.036382  0  2.837581  0  0  0.030657  0  2.835114  0  0  0.057399  0.040551  0  2.839102  0
S  S75  1  0.20464836  0.79372435  0.34807114  1  0  0.036204  0  2.486795  0  0  0.036294  0  2.837662  0  0  0.030565  0  2.835203  0  0  0.057339  0.040469  0  2.839176  0
S  S76  1  0.26289111  0.38810869  0.28110789  1  0  0.059476  0  2.346095  0  0  0.060192  0  2.677708  0  0  0.054475  0  2.675199  0  0  0.065831  0.064424  0  2.679421  0
S  S77  1  0.73711515  0.61188736  0.71888700  1  0  0.059557  0  2.346129  0  0  0.06024  0  2.677747  0  0  0.054524  0  2.675239  0  0  0.065886  0.064482  0  2.679455  0
S  S78  1  0.93654584  0.00225323  0.27267738  1  0  0.059319  0  2.365037  0  0  0.050409  0  2.695175  0  0  0.046726  0  2.69314  0  0  0.056596  0.053223  0  2.696623  0
S  S79  1  0.06345205  0.99774958  0.72732112  1  0  0.059383  0  2.365077  0  0  0.050457  0  2.695242  0  0  0.046759  0  2.693178  0  0  0.056641  0.053281  0  2.696694  0
N  N80  1  0.74703776  0.39487320  0.27010155  1  0  -0.346991  0  3.239252  0  0  -0.276692  0  3.501134  0  0  -0.296014  0  3.518897  0  0  -0.322583  -0.263414  0  3.488783  0
N  N81  1  0.25295079  0.60513971  0.72989717  1  0  -0.346902  0  3.239168  0  0  -0.276629  0  3.501038  0  0  -0.29595  0  3.518798  0  0  -0.322569  -0.263347  0  3.488686  0
N  N82  1  0.64970201  0.21302981  0.17848822  1  0  -0.367561  0  3.266405  0  0  -0.297009  0  3.540013  0  0  -0.317787  0  3.55776  0  0  -0.320619  -0.282775  0  3.527593  0
N  N83  1  0.35028967  0.78697300  0.82151492  1  0  -0.367423  0  3.266556  0  0  -0.29691  0  3.540197  0  0  -0.317686  0  3.557944  0  0  -0.320567  -0.282681  0  3.527787  0
N  N84  1  0.03769944  0.28511821  0.45771498  1  0  -0.477638  0  3.019398  0  0  -0.440338  0  3.289234  0  0  -0.459236  0  3.298147  0  0  -0.329381  -0.427896  0  3.283256  0
N  N85  1  0.96229493  0.71488623  0.54228166  1  0  -0.477636  0  3.019479  0  0  -0.440332  0  3.289283  0  0  -0.459233  0  3.298205  0  0  -0.329373  -0.427886  0  3.283302  0
N  N86  1  0.87572488  0.12255803  0.45062628  1  0  -0.474161  0  2.991591  0  0  -0.44147  0  3.264263  0  0  -0.45937  0  3.272008  0  0  -0.333742  -0.429689  0  3.259116  0
N  N87  1  0.12427280  0.87744228  0.54937580  1  0  -0.474153  0  2.991634  0  0  -0.44144  0  3.264319  0  0  -0.459341  0  3.272065  0  0  -0.333683  -0.429654  0  3.259171  0
N  N88  1  0.10278201  0.19055013  0.28309425  1  0  -0.451028  0  3.022716  0  0  -0.411655  0  3.286907  0  0  -0.430999  0  3.297091  0  0  -0.320077  -0.398854  0  3.280001  0
N  N89  1  0.89721700  0.80945187  0.71690655  1  0  -0.450944  0  3.022837  0  0  -0.411597  0  3.28705  0  0  -0.430951  0  3.297248  0  0  -0.320014  -0.398792  0  3.280149  0
O  O90  1  0.08216411  0.37726708  0.09909615  1  0  -0.674353  0  2.081118  0  0  -0.612169  0  2.359545  0  0  -0.642335  0  2.347637  0  0  -0.337373  -0.590941  0  2.367023  0
O  O91  1  0.91781181  0.62272403  0.90092962  1  0  -0.674274  0  2.081015  0  0  -0.611997  0  2.359351  0  0  -0.64216  0  2.347441  0  0  -0.337216  -0.590769  0  2.366833  0
O  O92  1  0.29644912  0.48197790  0.97032957  1  0  -0.659958  0  1.977707  0  0  -0.593305  0  2.226424  0  0  -0.621887  0  2.212251  0  0  -0.338936  -0.573163  0  2.235479  0
O  O93  1  0.70351970  0.51798712  0.02965831  1  0  -0.659594  0  1.978031  0  0  -0.59299  0  2.226783  0  0  -0.621571  0  2.212612  0  0  -0.338773  -0.572852  0  2.235851  0
O  O94  1  0.98590523  0.13793109  0.03330015  1  0  -0.564517  0  2.000721  0  0  -0.529126  0  2.243398  0  0  -0.551395  0  2.235873  0  0  -0.278687  -0.513831  0  2.248317  0
O  O95  1  0.01408833  0.86205213  0.96669625  1  0  -0.564605  0  1.999938  0  0  -0.52911  0  2.242469  0  0  -0.551389  0  2.234961  0  0  -0.27872  -0.51381  0  2.247378  0
O  O96  1  0.26159982  0.14733733  0.99042765  1  0  -0.528646  0  2.020863  0  0  -0.47468  0  2.219028  0  0  -0.495095  0  2.204494  0  0  -0.31902  -0.460422  0  2.228822  0
O  O97  1  0.73837684  0.85267188  0.00955835  1  0  -0.5283  0  2.021262  0  0  -0.47438  0  2.219398  0  0  -0.494805  0  2.204872  0  0  -0.318764  -0.460119  0  2.229193  0
O  O98  1  0.94150700  0.34945436  0.87818771  1  0  -0.660938  0  2.025691  0  0  -0.589343  0  2.278176  0  0  -0.620585  0  2.266438  0  0  -0.339132  -0.567255  0  2.285289  0
O  O99  1  0.05853251  0.65052684  0.12181379  1  0  -0.660938  0  2.025537  0  0  -0.5894  0  2.278093  0  0  -0.62064  0  2.266345  0  0  -0.33921  -0.567312  0  2.285207  0
O  O100  1  0.70680415  0.25480558  0.88846885  1  0  -0.618314  0  1.881267  0  0  -0.572536  0  2.095647  0  0  -0.595219  0  2.086755  0  0  -0.335128  -0.556482  0  2.101057  0
O  O101  1  0.29322248  0.74519513  0.11154093  1  0  -0.618469  0  1.880729  0  0  -0.572677  0  2.095091  0  0  -0.595361  0  2.086197  0  0  -0.335215  -0.556633  0  2.10052  0
