# generated using pymatgen
data_LaH4C5N3O5
_symmetry_space_group_name_H-M   'P 1'
_cell_length_a   7.14761406
_cell_length_b   10.07365716
_cell_length_c   11.63068312
_cell_angle_alpha   89.99927429
_cell_angle_beta   90.00017825
_cell_angle_gamma   104.98735568
_symmetry_Int_Tables_number   1
_chemical_formula_structural   LaH4C5N3O5
_chemical_formula_sum   'La4 H16 C20 N12 O20'
_cell_volume   808.95233252
_cell_formula_units_Z   4
loop_
 _symmetry_equiv_pos_site_id
 _symmetry_equiv_pos_as_xyz
  1  'x, y, z'
loop_
 _atom_site_type_symbol
 _atom_site_label
 _atom_site_symmetry_multiplicity
 _atom_site_fract_x
 _atom_site_fract_y
 _atom_site_fract_z
 _atom_site_occupancy
 _atom_site_hle17_bader_spin_density
 _atom_site_hle17_ddec_charge
 _atom_site_hle17_ddec_spin_density
 _atom_site_hle17_ddec_sum_bond_order
 _atom_site_hle17_magmom
 _atom_site_hse06_10hf_bader_spin_density
 _atom_site_hse06_10hf_ddec_charge
 _atom_site_hse06_10hf_ddec_spin_density
 _atom_site_hse06_10hf_ddec_sum_bond_order
 _atom_site_hse06_10hf_magmom
 _atom_site_hse06_bader_spin_density
 _atom_site_hse06_ddec_charge
 _atom_site_hse06_ddec_spin_density
 _atom_site_hse06_ddec_sum_bond_order
 _atom_site_hse06_magmom
 _atom_site_pbe_bader_spin_density
 _atom_site_pbe_cm5_charge
 _atom_site_pbe_ddec_charge
 _atom_site_pbe_ddec_spin_density
 _atom_site_pbe_ddec_sum_bond_order
 _atom_site_pbe_magmom
La  La0  1  0.77465484  0.92799521  0.38086237  1  0  2.015918  0  1.894642  0  0  1.88366  0  2.439544  0  0  1.981969  0  2.349405  0  0  1.380202  1.811479  0  2.500649  0
La  La1  1  0.72535285  0.57201240  0.88086242  1  0  2.015897  0  1.894703  0  0  1.883631  0  2.439632  0  0  1.981946  0  2.349468  0  0  1.380248  1.81143  0  2.500749  0
La  La2  1  0.22535228  0.07200421  0.61913800  1  0  2.015938  0  1.894617  0  0  1.883691  0  2.439511  0  0  1.982007  0  2.349347  0  0  1.380242  1.811488  0  2.500663  0
La  La3  1  0.27464630  0.42798812  0.11913538  1  0  2.015923  0  1.894619  0  0  1.883669  0  2.439535  0  0  1.981984  0  2.34937  0  0  1.380224  1.811463  0  2.500658  0
H  H4  1  0.24852162  0.03050621  0.13629129  1  0  0.125361  0  0.942673  0  0  0.128998  0  1.013812  0  0  0.133728  0  1.007836  0  0  0.147883  0.125342  0  1.018327  0
H  H5  1  0.25147692  0.46949309  0.63629306  1  0  0.12542  0  0.942646  0  0  0.129088  0  1.013755  0  0  0.133797  0  1.007811  0  0  0.147903  0.125446  0  1.018256  0
H  H6  1  0.75147296  0.96949333  0.86371167  1  0  0.125503  0  0.942572  0  0  0.129138  0  1.013715  0  0  0.133852  0  1.007763  0  0  0.147924  0.125508  0  1.018207  0
H  H7  1  0.74852323  0.53050639  0.36370646  1  0  0.125416  0  0.942658  0  0  0.12909  0  1.013762  0  0  0.133802  0  1.007809  0  0  0.147902  0.125446  0  1.018266  0
H  H8  1  0.36956897  0.96564881  0.93831571  1  0  0.124796  0  0.922639  0  0  0.137454  0  0.984508  0  0  0.13984  0  0.983082  0  0  0.126863  0.135661  0  0.985718  0
H  H9  1  0.13043672  0.53435008  0.43831110  1  0  0.124844  0  0.922586  0  0  0.137498  0  0.984455  0  0  0.139882  0  0.983031  0  0  0.126869  0.135705  0  0.985668  0
H  H10  1  0.63043554  0.03435476  0.06169326  1  0  0.124867  0  0.922659  0  0  0.137549  0  0.984477  0  0  0.139934  0  0.983053  0  0  0.126893  0.135755  0  0.985691  0
H  H11  1  0.86956583  0.46564834  0.56168498  1  0  0.124804  0  0.922655  0  0  0.137518  0  0.984466  0  0  0.139904  0  0.983039  0  0  0.126879  0.135723  0  0.985679  0
H  H12  1  0.19871779  0.84807173  0.85414401  1  0  0.136105  0  0.928541  0  0  0.144627  0  0.997055  0  0  0.147819  0  0.994349  0  0  0.139125  0.142376  0  0.998924  0
H  H13  1  0.30129188  0.65193145  0.35414187  1  0  0.136167  0  0.928462  0  0  0.144661  0  0.997035  0  0  0.147855  0  0.994322  0  0  0.139143  0.142411  0  0.998903  0
H  H14  1  0.80129148  0.15193694  0.14585808  1  0  0.136224  0  0.928418  0  0  0.144727  0  0.996961  0  0  0.147921  0  0.994243  0  0  0.139175  0.142476  0  0.998829  0
H  H15  1  0.69871285  0.34806901  0.64585592  1  0  0.136118  0  0.928494  0  0  0.144645  0  0.997033  0  0  0.147837  0  0.994327  0  0  0.139117  0.142394  0  0.998902  0
H  H16  1  0.50561952  0.07420001  0.29331130  1  0  0.394353  0  0.903489  0  0  0.373218  0  0.954833  0  0  0.380984  0  0.943937  0  0  0.277808  0.36751  0  0.962787  0
H  H17  1  0.99437322  0.42580285  0.79330885  1  0  0.39435  0  0.903487  0  0  0.373229  0  0.954802  0  0  0.380991  0  0.943912  0  0  0.277843  0.367524  0  0.962753  0
H  H18  1  0.49437567  0.92579745  0.70669509  1  0  0.394401  0  0.903413  0  0  0.373268  0  0.954754  0  0  0.381031  0  0.943861  0  0  0.27784  0.367561  0  0.96271  0
H  H19  1  0.00562872  0.57419765  0.20668980  1  0  0.394317  0  0.903532  0  0  0.373198  0  0.954842  0  0  0.38096  0  0.943952  0  0  0.27784  0.367492  0  0.962795  0
C  C20  1  0.68543342  0.68667051  0.16309308  1  0  0.635209  0  3.93802  0  0  0.589428  0  4.229323  0  0  0.625944  0  4.218597  0  0  0.240142  0.564388  0  4.236075  0
C  C21  1  0.81456426  0.81332493  0.66309495  1  0  0.635294  0  3.938  0  0  0.589521  0  4.229289  0  0  0.626034  0  4.218563  0  0  0.240188  0.564481  0  4.236046  0
C  C22  1  0.31456295  0.31333003  0.83689956  1  0  0.635313  0  3.93792  0  0  0.589556  0  4.22923  0  0  0.626071  0  4.218502  0  0  0.240195  0.564514  0  4.235985  0
C  C23  1  0.18543751  0.18667144  0.33690542  1  0  0.63516  0  3.938402  0  0  0.589407  0  4.229666  0  0  0.625919  0  4.218946  0  0  0.240128  0.564367  0  4.23642  0
C  C24  1  0.86775324  0.78244740  0.12266776  1  0  0.165445  0  3.830055  0  0  0.146981  0  4.107498  0  0  0.154257  0  4.121346  0  0  0.221904  0.141918  0  4.09835  0
C  C25  1  0.63224244  0.71755072  0.62266948  1  0  0.165508  0  3.830134  0  0  0.147067  0  4.107536  0  0  0.154347  0  4.121379  0  0  0.221967  0.142005  0  4.098389  0
C  C26  1  0.13224134  0.21755213  0.87732832  1  0  0.165571  0  3.829923  0  0  0.147026  0  4.107468  0  0  0.154307  0  4.121312  0  0  0.22197  0.141962  0  4.098317  0
C  C27  1  0.36775771  0.28244876  0.37733262  1  0  0.165374  0  3.830354  0  0  0.146942  0  4.107739  0  0  0.154216  0  4.121593  0  0  0.221922  0.141879  0  4.098587  0
C  C28  1  0.12765462  0.94190230  0.11916167  1  0  0.214883  0  3.545875  0  0  0.137827  0  3.81755  0  0  0.153769  0  3.823996  0  0  0.187121  0.127281  0  3.81354  0
C  C29  1  0.37234879  0.55809513  0.61916386  1  0  0.214966  0  3.5459  0  0  0.137791  0  3.817555  0  0  0.153742  0  3.82402  0  0  0.1871  0.127237  0  3.813533  0
C  C30  1  0.87234297  0.05809411  0.88084129  1  0  0.214812  0  3.545834  0  0  0.137702  0  3.817558  0  0  0.153652  0  3.824021  0  0  0.187068  0.127135  0  3.81353  0
C  C31  1  0.62765036  0.44190539  0.38083738  1  0  0.214956  0  3.545909  0  0  0.137766  0  3.817606  0  0  0.153718  0  3.824069  0  0  0.187109  0.127211  0  3.813584  0
C  C32  1  0.26767539  0.86381620  0.93918285  1  0  -0.187442  0  3.593285  0  0  -0.264228  0  3.837296  0  0  -0.26549  0  3.841074  0  0  -0.040843  -0.263394  0  3.835202  0
C  C33  1  0.23232929  0.63618372  0.43918075  1  0  -0.187421  0  3.593274  0  0  -0.264299  0  3.837247  0  0  -0.265556  0  3.841016  0  0  -0.040836  -0.263468  0  3.835155  0
C  C34  1  0.73232873  0.13618634  0.06082011  1  0  -0.187604  0  3.593425  0  0  -0.264367  0  3.837376  0  0  -0.265625  0  3.841151  0  0  -0.040857  -0.263533  0  3.83528  0
C  C35  1  0.76767265  0.36381678  0.56081704  1  0  -0.187474  0  3.593173  0  0  -0.264403  0  3.837197  0  0  -0.265663  0  3.840967  0  0  -0.040912  -0.263568  0  3.835102  0
C  C36  1  0.37120488  0.74907204  0.95942314  1  0  0.727959  0  3.832141  0  0  0.687104  0  4.130745  0  0  0.722866  0  4.121454  0  0  0.236847  0.662495  0  4.136395  0
C  C37  1  0.12879640  0.75092968  0.45942561  1  0  0.727858  0  3.83253  0  0  0.687065  0  4.131029  0  0  0.722838  0  4.121727  0  0  0.236877  0.662463  0  4.136674  0
C  C38  1  0.62879685  0.25093155  0.04057552  1  0  0.727944  0  3.832557  0  0  0.687033  0  4.131241  0  0  0.722793  0  4.121957  0  0  0.236854  0.662423  0  4.136886  0
C  C39  1  0.87120693  0.24907080  0.54057906  1  0  0.7279  0  3.832396  0  0  0.687035  0  4.131016  0  0  0.722806  0  4.12172  0  0  0.236797  0.662434  0  4.13666  0
N  N40  1  0.11960008  0.86184389  0.02483488  1  0  0.098573  0  3.549016  0  0  0.215003  0  3.735193  0  0  0.208225  0  3.75514  0  0  -0.113072  0.21909  0  3.72198  0
N  N41  1  0.38040574  0.63815387  0.52483449  1  0  0.098322  0  3.549286  0  0  0.215007  0  3.735199  0  0  0.208227  0  3.755147  0  0  -0.113037  0.219094  0  3.72199  0
N  N42  1  0.88039868  0.13815560  0.97516550  1  0  0.09848  0  3.549154  0  0  0.214971  0  3.735267  0  0  0.208193  0  3.755214  0  0  -0.113124  0.219058  0  3.722059  0
N  N43  1  0.61959541  0.36184457  0.47516416  1  0  0.098462  0  3.549043  0  0  0.215096  0  3.735037  0  0  0.208318  0  3.754981  0  0  -0.112984  0.219182  0  3.721827  0
N  N44  1  0.96787518  0.89474499  0.18205498  1  0  -0.431601  0  3.093042  0  0  -0.388837  0  3.380835  0  0  -0.409902  0  3.394722  0  0  -0.358461  -0.374405  0  3.371144  0
N  N45  1  0.53212724  0.60525528  0.68206118  1  0  -0.431667  0  3.09302  0  0  -0.388894  0  3.380819  0  0  -0.409956  0  3.394702  0  0  -0.358479  -0.374461  0  3.371132  0
N  N46  1  0.03211761  0.10525353  0.81794281  1  0  -0.431618  0  3.092987  0  0  -0.388814  0  3.380813  0  0  -0.409881  0  3.394696  0  0  -0.358429  -0.374381  0  3.37113  0
N  N47  1  0.46787052  0.39474525  0.31794178  1  0  -0.431604  0  3.093001  0  0  -0.388826  0  3.380811  0  0  -0.40989  0  3.394697  0  0  -0.358451  -0.374392  0  3.37112  0
N  N48  1  0.95463525  0.75977207  0.02603220  1  0  -0.320874  0  3.00345  0  0  -0.311346  0  3.271314  0  0  -0.324875  0  3.287009  0  0  -0.245769  -0.301908  0  3.260759  0
N  N49  1  0.54536703  0.74022638  0.52603264  1  0  -0.320855  0  3.003668  0  0  -0.311415  0  3.271478  0  0  -0.324947  0  3.287174  0  0  -0.245816  -0.301978  0  3.260925  0
N  N50  1  0.04536151  0.24022950  0.97396474  1  0  -0.320918  0  3.003465  0  0  -0.311373  0  3.27133  0  0  -0.324905  0  3.287025  0  0  -0.245803  -0.301932  0  3.260772  0
N  N51  1  0.45463413  0.25977206  0.47396773  1  0  -0.320766  0  3.003636  0  0  -0.311316  0  3.271451  0  0  -0.324847  0  3.287147  0  0  -0.245774  -0.301881  0  3.260898  0
O  O52  1  0.62093293  0.58023631  0.10032601  1  0  -0.713877  0  2.115385  0  0  -0.656777  0  2.375727  0  0  -0.693113  0  2.368494  0  0  -0.383806  -0.630864  0  2.379614  0
O  O53  1  0.87905518  0.91976427  0.60033544  1  0  -0.713871  0  2.115464  0  0  -0.656799  0  2.375783  0  0  -0.693137  0  2.368551  0  0  -0.383828  -0.630884  0  2.379674  0
O  O54  1  0.37906222  0.41976837  0.89966147  1  0  -0.713949  0  2.11547  0  0  -0.656796  0  2.375688  0  0  -0.693131  0  2.368449  0  0  -0.383829  -0.630884  0  2.37958  0
O  O55  1  0.12094480  0.08023108  0.39966322  1  0  -0.713825  0  2.115576  0  0  -0.65673  0  2.375836  0  0  -0.693062  0  2.3686  0  0  -0.383813  -0.630817  0  2.379729  0
O  O56  1  0.61158131  0.71392358  0.25548210  1  0  -0.61533  0  1.981678  0  0  -0.567041  0  2.226723  0  0  -0.596168  0  2.217701  0  0  -0.320798  -0.546373  0  2.232118  0
O  O57  1  0.88842510  0.78607145  0.75548012  1  0  -0.615413  0  1.981718  0  0  -0.567115  0  2.226752  0  0  -0.596242  0  2.217729  0  0  -0.320847  -0.546444  0  2.232149  0
O  O58  1  0.38841827  0.28607074  0.74451397  1  0  -0.61544  0  1.981814  0  0  -0.567148  0  2.226841  0  0  -0.596277  0  2.21782  0  0  -0.320843  -0.546476  0  2.232234  0
O  O59  1  0.11158264  0.21392590  0.24451940  1  0  -0.615313  0  1.981876  0  0  -0.56704  0  2.22691  0  0  -0.596166  0  2.217889  0  0  -0.320805  -0.546371  0  2.232307  0
O  O60  1  0.28355439  0.64911136  0.02103934  1  0  -0.689577  0  2.041164  0  0  -0.642413  0  2.298422  0  0  -0.675759  0  2.290581  0  0  -0.367447  -0.618506  0  2.302717  0
O  O61  1  0.21643114  0.85088459  0.52104922  1  0  -0.689545  0  2.041356  0  0  -0.642412  0  2.298584  0  0  -0.675764  0  2.290737  0  0  -0.367522  -0.618504  0  2.302884  0
O  O62  1  0.71643880  0.35088819  0.97895502  1  0  -0.689536  0  2.041349  0  0  -0.64236  0  2.298648  0  0  -0.675711  0  2.290811  0  0  -0.367475  -0.61846  0  2.302942  0
O  O63  1  0.78356266  0.14911288  0.47895975  1  0  -0.689573  0  2.041341  0  0  -0.642399  0  2.298591  0  0  -0.67575  0  2.29075  0  0  -0.367412  -0.618492  0  2.302887  0
O  O64  1  0.53362820  0.76504080  0.90990505  1  0  -0.690782  0  1.954654  0  0  -0.645892  0  2.203912  0  0  -0.678321  0  2.196636  0  0  -0.351184  -0.622659  0  2.208065  0
O  O65  1  0.96637871  0.73496432  0.40990232  1  0  -0.690752  0  1.954864  0  0  -0.645838  0  2.204001  0  0  -0.678268  0  2.196718  0  0  -0.351184  -0.622607  0  2.208149  0
O  O66  1  0.46637653  0.23495967  0.09009791  1  0  -0.690798  0  1.95483  0  0  -0.645874  0  2.204061  0  0  -0.678303  0  2.196788  0  0  -0.3512  -0.622639  0  2.208209  0
O  O67  1  0.03362302  0.26503927  0.59010408  1  0  -0.690773  0  1.954812  0  0  -0.645846  0  2.203995  0  0  -0.678275  0  2.196717  0  0  -0.351168  -0.622611  0  2.208145  0
O  O68  1  0.55075430  0.99197893  0.28346427  1  0  -0.989152  0  1.575192  0  0  -0.967833  0  1.799917  0  0  -1.005841  0  1.775612  0  0  -0.776535  -0.939491  0  1.815849  0
O  O69  1  0.94924923  0.50803016  0.78347575  1  0  -0.989089  0  1.575195  0  0  -0.967795  0  1.799963  0  0  -1.005797  0  1.775664  0  0  -0.776599  -0.939456  0  1.815894  0
O  O70  1  0.44924485  0.00802159  0.71653611  1  0  -0.98919  0  1.575154  0  0  -0.967876  0  1.799876  0  0  -1.005876  0  1.775572  0  0  -0.776578  -0.939527  0  1.815813  0
O  O71  1  0.05074992  0.49197036  0.21652463  1  0  -0.989081  0  1.575235  0  0  -0.967784  0  1.799977  0  0  -1.005786  0  1.775679  0  0  -0.77659  -0.939442  0  1.815908  0
