# generated using pymatgen
data_AlH13C16N2O5
_symmetry_space_group_name_H-M   'P 1'
_cell_length_a   6.65673718
_cell_length_b   17.00317618
_cell_length_c   17.00365169
_cell_angle_alpha   87.25055037
_cell_angle_beta   81.91835352
_cell_angle_gamma   81.92318992
_symmetry_Int_Tables_number   1
_chemical_formula_structural   AlH13C16N2O5
_chemical_formula_sum   'Al2 H26 C32 N4 O10'
_cell_volume   1885.77368281
_cell_formula_units_Z   2
loop_
 _symmetry_equiv_pos_site_id
 _symmetry_equiv_pos_as_xyz
  1  'x, y, z'
loop_
 _atom_site_type_symbol
 _atom_site_label
 _atom_site_symmetry_multiplicity
 _atom_site_fract_x
 _atom_site_fract_y
 _atom_site_fract_z
 _atom_site_occupancy
 _atom_site_pbe_bader_charge
 _atom_site_pbe_bader_spin_density
 _atom_site_pbe_cm5_charge
 _atom_site_pbe_ddec_charge
 _atom_site_pbe_ddec_spin_density
 _atom_site_pbe_ddec_sum_bond_order
 _atom_site_pbe_magmom
Al  Al0  1  0.50014852  0.49997754  0.49987776  1  2.503805  0  0.400703  1.65036  0  2.580771  0
Al  Al1  1  0.99993697  0.50009740  0.49999829  1  2.503862  0  0.400765  1.65093  0  2.580065  0
H  H2  1  0.74996549  0.42448230  0.57569186  1  0.598284  0  0.360151  0.436257  0  0.842948  0
H  H3  1  0.24992148  0.57593983  0.42436603  1  0.59401  0  0.359843  0.436874  0  0.841964  0
H  H4  1  0.39200471  0.73940932  0.45824704  1  0.087599  0  0.106703  0.108649  0  1.001812  0
H  H5  1  0.32485272  0.88843603  0.45660379  1  0.089716  0  0.105451  0.108574  0  1.016281  0
H  H6  1  0.85047694  0.89179307  0.57594880  1  0.075072  0  0.106931  0.112343  0  1.002508  0
H  H7  1  0.14712799  0.10932428  0.42324267  1  0.084931  0  0.106392  0.112432  0  1.001286  0
H  H8  1  0.67120425  0.11092244  0.54396358  1  0.131878  0  0.106759  0.110312  0  1.016326  0
H  H9  1  0.60601421  0.25994391  0.54303175  1  0.073812  0  0.107218  0.108131  0  1.001778  0
H  H10  1  0.89408229  0.45685868  0.74005807  1  0.073783  0  0.106979  0.107788  0  1.001589  0
H  H11  1  0.82874452  0.45600036  0.88906459  1  0.131561  0  0.106676  0.110321  0  1.016566  0
H  H12  1  0.35275392  0.57676437  0.89064709  1  0.086016  0  0.106291  0.112201  0  1.001716  0
H  H13  1  0.64946861  0.42406438  0.10823929  1  0.075801  0  0.106812  0.112206  0  1.002215  0
H  H14  1  0.17516305  0.54340034  0.11152846  1  0.089376  0  0.105433  0.108441  0  1.016167  0
H  H15  1  0.10805606  0.54177884  0.26055460  1  0.088307  0  0.106743  0.108794  0  1.001732  0
H  H16  1  0.09049864  0.70082510  0.54947975  1  0.060576  0  0.098196  0.145578  0  1.008197  0
H  H17  1  0.91997677  0.69059488  0.63678404  1  0.061091  0  0.097438  0.140679  0  0.985499  0
H  H18  1  0.03920632  0.77852042  0.61924828  1  0.023039  0  0.09017  0.124516  0  1.001069  0
H  H19  1  0.97123250  0.22440148  0.37488256  1  0.020658  0  0.089791  0.125039  0  1.000276  0
H  H20  1  0.07155494  0.31677594  0.37045011  1  0.072446  0  0.097144  0.14098  0  0.992196  0
H  H21  1  0.89917465  0.29298180  0.45304674  1  0.076806  0  0.097861  0.143342  0  1.00701  0
H  H22  1  0.52873952  0.62507255  0.77559644  1  0.020568  0  0.089809  0.125189  0  1.000025  0
H  H23  1  0.42846718  0.62949744  0.68321505  1  0.033347  0  0.097229  0.141021  0  0.992183  0
H  H24  1  0.60087426  0.54691711  0.70701795  1  0.076391  0  0.09784  0.14346  0  1.007241  0
H  H25  1  0.40931756  0.45063295  0.29907207  1  0.059808  0  0.098184  0.145445  0  1.008226  0
H  H26  1  0.57984012  0.36337997  0.30955541  1  0.062602  0  0.097299  0.140526  0  0.985857  0
H  H27  1  0.46093538  0.38069636  0.22153046  1  0.0236  0  0.090293  0.124679  0  1.000719  0
C  C28  1  0.19523601  0.50778931  0.64388701  1  1.578256  0  0.26814  0.648775  0  4.091389  0
C  C29  1  0.30481716  0.35610604  0.49210398  1  1.577958  0  0.268439  0.649315  0  4.09015  0
C  C30  1  0.80513031  0.49182025  0.35593974  1  1.582886  0  0.268933  0.65027  0  4.087943  0
C  C31  1  0.69496070  0.64404767  0.50821843  1  1.584169  0  0.269405  0.651211  0  4.087336  0
C  C32  1  0.66222704  0.73220601  0.51514040  1  -0.033103  0  -0.011539  -0.10775  0  3.908948  0
C  C33  1  0.49266942  0.77393502  0.48307740  1  -0.030745  0  -0.080662  -0.077864  0  4.01116  0
C  C34  1  0.45449857  0.85603952  0.48207360  1  0.018669  0  -0.085694  -0.147563  0  3.968455  0
C  C35  1  0.58830058  0.89816438  0.51497698  1  0.311134  0  0.085933  0.175916  0  4.06806  0
C  C36  1  0.75322885  0.85683865  0.54941501  1  -0.015539  0  -0.081066  -0.204687  0  3.902918  0
C  C37  1  0.79500109  0.77385525  0.55032405  1  -0.036472  0  0.004403  0.175495  0  3.928262  0
C  C38  1  0.24439772  0.14382843  0.45031412  1  0.020865  0  -0.080816  -0.205916  0  3.902882  0
C  C39  1  0.40850577  0.10207964  0.48486762  1  0.296478  0  0.087465  0.177979  0  4.063664  0
C  C40  1  0.54226641  0.14373726  0.51839337  1  -0.051239  0  -0.088612  -0.151245  0  3.97001  0
C  C41  1  0.50525247  0.22583977  0.51771666  1  -0.010838  0  -0.08163  -0.078924  0  4.011304  0
C  C42  1  0.33658360  0.26798041  0.48542737  1  -0.055576  0  -0.01024  -0.104467  0  3.907279  0
C  C43  1  0.20353902  0.22683900  0.44988870  1  -0.007342  0  0.002849  0.173914  0  3.931881  0
C  C44  1  0.16348017  0.51446330  0.73201407  1  -0.054469  0  -0.010082  -0.104162  0  3.906665  0
C  C45  1  0.99479554  0.48219084  0.77415975  1  -0.012069  0  -0.081601  -0.078614  0  4.011439  0
C  C46  1  0.95770463  0.48155225  0.85625505  1  -0.052945  0  -0.08858  -0.151697  0  3.970539  0
C  C47  1  0.09140312  0.51511208  0.89791501  1  0.29694  0  0.087425  0.178208  0  4.063815  0
C  C48  1  0.25554285  0.54966112  0.85615415  1  0.021298  0  -0.080729  -0.205555  0  3.90301  0
C  C49  1  0.29647913  0.55002953  0.77315294  1  -0.007393  0  0.002904  0.173763  0  3.930786  0
C  C50  1  0.74673959  0.45061797  0.14317275  1  -0.015642  0  -0.08104  -0.204512  0  3.90335  0
C  C51  1  0.91166781  0.48504895  0.10183209  1  0.310179  0  0.086089  0.175724  0  4.068679  0
C  C52  1  0.04549743  0.51794560  0.14393424  1  0.017951  0  -0.085699  -0.147217  0  3.968365  0
C  C53  1  0.00737585  0.51695521  0.22603681  1  -0.030502  0  -0.080895  -0.078423  0  4.011252  0
C  C54  1  0.83781431  0.48490236  0.26777678  1  -0.033173  0  -0.011284  -0.107014  0  3.908644  0
C  C55  1  0.70498670  0.44971419  0.22615237  1  -0.036969  0  0.004281  0.175003  0  3.928772  0
C  C56  1  0.97093807  0.73401234  0.59093738  1  -0.025665  0  -0.237791  -0.414996  0  3.953117  0
C  C57  1  0.02716802  0.26727653  0.40989460  1  -0.07339  0  -0.236555  -0.413324  0  3.956093  0
C  C58  1  0.47283581  0.59005249  0.73271603  1  -0.03436  0  -0.236686  -0.413687  0  3.955868  0
C  C59  1  0.52900702  0.40912435  0.26601896  1  -0.025975  0  -0.237634  -0.414695  0  3.953161  0
N  N60  1  0.56929341  0.98179672  0.51754699  1  -0.504399  0  -0.151636  -0.13919  0  3.280827  0
N  N61  1  0.42701370  0.01844027  0.48205605  1  -0.470091  0  -0.148575  -0.134844  0  3.273825  0
N  N62  1  0.07284795  0.51797034  0.98153708  1  -0.469892  0  -0.148854  -0.135434  0  3.275373  0
N  N63  1  0.93067403  0.48243822  0.01820497  1  -0.504097  0  -0.151401  -0.138506  0  3.281118  0
O  O64  1  0.37863332  0.50212803  0.60881631  1  -1.260985  0  -0.233448  -0.592585  0  2.370138  0
O  O65  1  0.12144875  0.39118385  0.49777612  1  -1.261194  0  -0.233521  -0.592519  0  2.369808  0
O  O66  1  0.96309656  0.49424619  0.38998779  1  -1.264522  0  -0.239023  -0.604125  0  2.351632  0
O  O67  1  0.53696607  0.60999934  0.50578590  1  -1.266112  0  -0.239289  -0.604719  0  2.351221  0
O  O68  1  0.62164007  0.49748089  0.39089491  1  -1.263502  0  -0.233302  -0.59182  0  2.367705  0
O  O69  1  0.87843018  0.60909326  0.50257254  1  -1.263306  0  -0.233379  -0.592197  0  2.367833  0
O  O70  1  0.03685512  0.50576807  0.60999784  1  -1.262745  0  -0.238697  -0.602983  0  2.352007  0
O  O71  1  0.46323984  0.38999193  0.49412881  1  -1.263042  0  -0.238946  -0.603428  0  2.351168  0
O  O72  1  0.75006693  0.46558215  0.53438742  1  -1.401211  0  -0.449558  -0.997454  0  2.229324  0
O  O73  1  0.24999924  0.53458252  0.46542261  1  -1.397028  0  -0.448904  -0.998522  0  2.227079  0
