# generated using pymatgen
data_ZnH16C20(N3O2)2
_symmetry_space_group_name_H-M   'P 1'
_cell_length_a   6.54216291
_cell_length_b   10.01006388
_cell_length_c   15.59744050
_cell_angle_alpha   87.23659959
_cell_angle_beta   81.60370156
_cell_angle_gamma   70.94436683
_symmetry_Int_Tables_number   1
_chemical_formula_structural   ZnH16C20(N3O2)2
_chemical_formula_sum   'Zn2 H32 C40 N12 O8'
_cell_volume   955.11597848
_cell_formula_units_Z   2
loop_
 _symmetry_equiv_pos_site_id
 _symmetry_equiv_pos_as_xyz
  1  'x, y, z'
loop_
 _atom_site_type_symbol
 _atom_site_label
 _atom_site_symmetry_multiplicity
 _atom_site_fract_x
 _atom_site_fract_y
 _atom_site_fract_z
 _atom_site_occupancy
 _atom_site_hle17_bader_spin_density
 _atom_site_hle17_ddec_charge
 _atom_site_hle17_ddec_spin_density
 _atom_site_hle17_ddec_sum_bond_order
 _atom_site_hle17_magmom
 _atom_site_hse06_10hf_bader_spin_density
 _atom_site_hse06_10hf_ddec_charge
 _atom_site_hse06_10hf_ddec_spin_density
 _atom_site_hse06_10hf_ddec_sum_bond_order
 _atom_site_hse06_10hf_magmom
 _atom_site_hse06_bader_spin_density
 _atom_site_hse06_ddec_charge
 _atom_site_hse06_ddec_spin_density
 _atom_site_hse06_ddec_sum_bond_order
 _atom_site_hse06_magmom
 _atom_site_pbe_bader_spin_density
 _atom_site_pbe_cm5_charge
 _atom_site_pbe_ddec_charge
 _atom_site_pbe_ddec_spin_density
 _atom_site_pbe_ddec_sum_bond_order
 _atom_site_pbe_magmom
Zn  Zn0  1  0.34794782  0.30436799  0.50012033  1  0  1.005357  0  1.846754  0  0  0.813538  0  2.325653  0  0  0.861914  0  2.26955  0  0  0.699064  0.779854  0  2.364172  0
Zn  Zn1  1  0.65263217  0.69562454  0.00011022  1  0  1.00597  0  1.845986  0  0  0.813876  0  2.324942  0  0  0.862222  0  2.268879  0  0  0.699378  0.780249  0  2.363315  0
H  H2  1  0.98373349  0.05536507  0.39655487  1  0  0.101421  0  0.962532  0  0  0.107796  0  1.028931  0  0  0.110863  0  1.027476  0  0  0.103571  0.105614  0  1.030043  0
H  H3  1  0.03986996  0.94470675  0.89642240  1  0  0.101278  0  0.962372  0  0  0.107848  0  1.028546  0  0  0.11091  0  1.027096  0  0  0.103242  0.105548  0  1.029756  0
H  H4  1  0.80846515  0.96652869  0.29116072  1  0  0.114165  0  0.955919  0  0  0.123446  0  1.018706  0  0  0.126595  0  1.017228  0  0  0.108614  0.121061  0  1.020255  0
H  H5  1  0.77546002  0.03357354  0.79110236  1  0  0.114457  0  0.955294  0  0  0.123799  0  1.018008  0  0  0.126902  0  1.016572  0  0  0.108483  0.121613  0  1.019084  0
H  H6  1  0.29347261  0.01498103  0.08378393  1  0  0.117348  0  0.945869  0  0  0.124817  0  1.00945  0  0  0.128512  0  1.007243  0  0  0.110027  0.122207  0  1.011001  0
H  H7  1  0.30840047  0.98452469  0.58350114  1  0  0.117379  0  0.945312  0  0  0.124389  0  1.009441  0  0  0.12805  0  1.007323  0  0  0.109644  0.121718  0  1.011126  0
H  H8  1  0.46041206  0.11204909  0.19067907  1  0  0.096614  0  0.972914  0  0  0.104975  0  1.03826  0  0  0.107933  0  1.036925  0  0  0.102377  0.102833  0  1.039324  0
H  H9  1  0.57265920  0.88745722  0.69036330  1  0  0.09615  0  0.971006  0  0  0.104607  0  1.036516  0  0  0.107548  0  1.035262  0  0  0.102253  0.10245  0  1.0376  0
H  H10  1  0.90741557  0.22998242  0.03451619  1  0  0.138893  0  0.957501  0  0  0.150114  0  1.030707  0  0  0.152847  0  1.029264  0  0  0.098916  0.148318  0  1.031561  0
H  H11  1  0.13648506  0.76989629  0.53456708  1  0  0.138784  0  0.957543  0  0  0.150502  0  1.030278  0  0  0.153229  0  1.028825  0  0  0.099099  0.148556  0  1.031302  0
H  H12  1  0.73616166  0.23918193  0.13491461  1  0  0.131462  0  0.93629  0  0  0.151959  0  0.994642  0  0  0.153726  0  0.994147  0  0  0.102177  0.150704  0  0.99493  0
H  H13  1  0.97426005  0.76074403  0.63494434  1  0  0.132102  0  0.934853  0  0  0.152326  0  0.993612  0  0  0.154117  0  0.993086  0  0  0.102366  0.151032  0  0.994095  0
H  H14  1  0.62498830  0.26060989  0.03605828  1  0  0.150898  0  0.953446  0  0  0.17067  0  1.008517  0  0  0.17305  0  1.007848  0  0  0.105556  0.169035  0  1.008963  0
H  H15  1  0.88445141  0.73953197  0.53606249  1  0  0.150178  0  0.954284  0  0  0.170406  0  1.008963  0  0  0.172749  0  1.008343  0  0  0.105212  0.168553  0  1.009617  0
H  H16  1  0.97419656  0.72772853  0.13728312  1  0  0.10322  0  0.974392  0  0  0.112214  0  1.038588  0  0  0.113688  0  1.037934  0  0  0.139099  0.110996  0  1.039235  0
H  H17  1  0.70241239  0.27223521  0.63705629  1  0  0.10337  0  0.973943  0  0  0.112545  0  1.037792  0  0  0.114078  0  1.037076  0  0  0.139336  0.111153  0  1.038635  0
H  H18  1  0.98793150  0.36051850  0.76189161  1  0  0.101169  0  0.955166  0  0  0.111132  0  1.016614  0  0  0.114183  0  1.015295  0  0  0.10309  0.108866  0  1.017729  0
H  H19  1  0.34872510  0.63929820  0.26167282  1  0  0.100599  0  0.95617  0  0  0.110661  0  1.017559  0  0  0.113709  0  1.016226  0  0  0.103077  0.108531  0  1.018567  0
H  H20  1  0.67552542  0.38044878  0.88014341  1  0  0.123694  0  0.949046  0  0  0.131815  0  1.01145  0  0  0.135298  0  1.009637  0  0  0.112424  0.129256  0  1.012964  0
H  H21  1  0.05603716  0.61976761  0.37999322  1  0  0.123206  0  0.949425  0  0  0.13188  0  1.011157  0  0  0.135377  0  1.00933  0  0  0.112434  0.129305  0  1.012733  0
H  H22  1  0.22668326  0.60518318  0.70530547  1  0  0.109982  0  0.946427  0  0  0.122816  0  1.002587  0  0  0.12569  0  1.001697  0  0  0.110076  0.120777  0  1.003344  0
H  H23  1  0.83090962  0.39522298  0.20548421  1  0  0.110693  0  0.945148  0  0  0.123253  0  1.001658  0  0  0.12609  0  1.000837  0  0  0.110651  0.121362  0  1.002057  0
H  H24  1  0.54044292  0.59739808  0.59084739  1  0  0.103655  0  0.971603  0  0  0.109562  0  1.037886  0  0  0.112839  0  1.036303  0  0  0.104656  0.107194  0  1.039047  0
H  H25  1  0.13702443  0.40269611  0.09092529  1  0  0.104255  0  0.97025  0  0  0.109918  0  1.036703  0  0  0.113197  0  1.035135  0  0  0.104654  0.107509  0  1.038065  0
H  H26  1  0.48873876  0.19318793  0.91698003  1  0  0.137739  0  0.949398  0  0  0.153721  0  1.016638  0  0  0.15605  0  1.015253  0  0  0.102574  0.152006  0  1.017612  0
H  H27  1  0.68186014  0.80705747  0.41691341  1  0  0.138252  0  0.947633  0  0  0.1539  0  1.015342  0  0  0.15621  0  1.01398  0  0  0.102534  0.152446  0  1.016131  0
H  H28  1  0.40032647  0.20582959  0.81333797  1  0  0.128684  0  0.933991  0  0  0.146954  0  0.996605  0  0  0.148648  0  0.996425  0  0  0.100492  0.1458  0  0.996693  0
H  H29  1  0.60578160  0.79459744  0.31331397  1  0  0.128877  0  0.935382  0  0  0.147501  0  0.997497  0  0  0.149151  0  0.99738  0  0  0.100545  0.146261  0  0.997684  0
H  H30  1  0.24730579  0.15591724  0.90573234  1  0  0.137365  0  0.936988  0  0  0.159722  0  0.990856  0  0  0.161169  0  0.991115  0  0  0.105151  0.158691  0  0.99062  0
H  H31  1  0.40313654  0.84419010  0.40577359  1  0  0.138542  0  0.938952  0  0  0.161003  0  0.992247  0  0  0.162437  0  0.992543  0  0  0.105825  0.159872  0  0.992234  0
H  H32  1  0.06328770  0.71198363  0.87021214  1  0  0.116327  0  0.945615  0  0  0.12279  0  1.013748  0  0  0.125387  0  1.010346  0  0  0.145271  0.120987  0  1.016066  0
H  H33  1  0.77509501  0.28822620  0.37041670  1  0  0.117012  0  0.945027  0  0  0.123473  0  1.013155  0  0  0.126111  0  1.009648  0  0  0.14527  0.121537  0  1.015595  0
C  C34  1  0.32665239  0.16251499  0.35868067  1  0  0.627787  0  3.940304  0  0  0.581887  0  4.230378  0  0  0.615475  0  4.224028  0  0  0.195122  0.559079  0  4.233877  0
C  C35  1  0.48955955  0.83746367  0.85854814  1  0  0.626482  0  3.938857  0  0  0.580693  0  4.229146  0  0  0.614278  0  4.222802  0  0  0.194113  0.558006  0  4.23252  0
C  C36  1  0.23194431  0.09121364  0.29930877  1  0  -0.068202  0  3.76179  0  0  -0.044804  0  3.989707  0  0  -0.052231  0  4.013531  0  0  -0.016911  -0.040054  0  3.973875  0
C  C37  1  0.32358616  0.90857902  0.79911484  1  0  -0.067428  0  3.760489  0  0  -0.044138  0  3.988814  0  0  -0.051546  0  4.012674  0  0  -0.016679  -0.039501  0  3.972669  0
C  C38  1  0.05296842  0.04538141  0.32834201  1  0  -0.063333  0  3.733188  0  0  -0.082568  0  3.978167  0  0  -0.082771  0  3.997635  0  0  -0.082522  -0.082197  0  3.964737  0
C  C39  1  0.09889377  0.95452368  0.82817527  1  0  -0.064437  0  3.733244  0  0  -0.083856  0  3.97837  0  0  -0.084102  0  3.997892  0  0  -0.08284  -0.083252  0  3.964847  0
C  C40  1  0.95665307  0.99264928  0.26975930  1  0  -0.126078  0  3.721748  0  0  -0.147566  0  3.972715  0  0  -0.150153  0  3.991699  0  0  -0.083249  -0.146081  0  3.960511  0
C  C41  1  0.94970766  0.00725232  0.76961169  1  0  -0.125361  0  3.72105  0  0  -0.147337  0  3.972516  0  0  -0.149855  0  3.991466  0  0  -0.082266  -0.14592  0  3.95964  0
C  C42  1  0.04160203  0.98550730  0.18208757  1  0  0.176367  0  3.774216  0  0  0.170141  0  4.021978  0  0  0.174645  0  4.044854  0  0  0.091831  0.167356  0  4.006435  0
C  C43  1  0.02732718  0.01427611  0.68191855  1  0  0.175428  0  3.775988  0  0  0.170246  0  4.022497  0  0  0.174773  0  4.045317  0  0  0.091608  0.167427  0  4.006763  0
C  C44  1  0.22647985  0.02406701  0.15228766  1  0  -0.130246  0  3.717497  0  0  -0.150511  0  3.968453  0  0  -0.153369  0  3.987806  0  0  -0.083873  -0.14851  0  3.954902  0
C  C45  1  0.25070439  0.97553644  0.65205172  1  0  -0.12996  0  3.717776  0  0  -0.149949  0  3.968074  0  0  -0.152819  0  3.987468  0  0  -0.083598  -0.148084  0  3.955043  0
C  C46  1  0.32057192  0.07659237  0.21154591  1  0  -0.062567  0  3.745628  0  0  -0.084206  0  3.990208  0  0  -0.085178  0  4.012204  0  0  -0.083306  -0.083091  0  3.975476  0
C  C47  1  0.39741321  0.92300272  0.71130198  1  0  -0.061633  0  3.744481  0  0  -0.083293  0  3.988958  0  0  -0.084289  0  4.010975  0  0  -0.083275  -0.082581  0  3.974413  0
C  C48  1  0.76680469  0.20195823  0.06760618  1  0  -0.402737  0  3.705939  0  0  -0.48172  0  3.944433  0  0  -0.486162  0  3.950426  0  0  -0.234538  -0.478433  0  3.939939  0
C  C49  1  0.96785418  0.79803154  0.56760852  1  0  -0.40236  0  3.705771  0  0  -0.482033  0  3.943765  0  0  -0.486489  0  3.949792  0  0  -0.234532  -0.478796  0  3.939755  0
C  C50  1  0.79858913  0.04896905  0.06680775  1  0  0.355913  0  3.703119  0  0  0.336681  0  3.977715  0  0  0.350093  0  3.991467  0  0  0.230355  0.327849  0  3.968133  0
C  C51  1  0.84718412  0.95108801  0.56675458  1  0  0.356854  0  3.70164  0  0  0.33823  0  3.975815  0  0  0.35164  0  3.98955  0  0  0.231263  0.329047  0  3.966553  0
C  C52  1  0.89741577  0.82615789  0.10526959  1  0  0.188204  0  3.62665  0  0  0.121033  0  3.89039  0  0  0.136413  0  3.90071  0  0  0.167143  0.111099  0  3.883269  0
C  C53  1  0.72377420  0.17386870  0.60512086  1  0  0.189914  0  3.620553  0  0  0.12297  0  3.884275  0  0  0.138254  0  3.894544  0  0  0.167548  0.112722  0  3.877621  0
C  C54  1  0.96640408  0.45224838  0.59502106  1  0  0.622666  0  3.94403  0  0  0.578374  0  4.231138  0  0  0.611857  0  4.224782  0  0  0.194771  0.555532  0  4.235033  0
C  C55  1  0.41865543  0.54737907  0.09496670  1  0  0.623077  0  3.941905  0  0  0.578407  0  4.229278  0  0  0.611896  0  4.222899  0  0  0.194676  0.555815  0  4.232765  0
C  C56  1  0.78356877  0.47811141  0.66950924  1  0  -0.07865  0  3.75849  0  0  -0.054897  0  3.988611  0  0  -0.062743  0  4.010988  0  0  -0.021112  -0.050044  0  3.973772  0
C  C57  1  0.26139124  0.52179165  0.16943490  1  0  -0.078878  0  3.759214  0  0  -0.054534  0  3.988415  0  0  -0.062444  0  4.010841  0  0  -0.020576  -0.049613  0  3.973754  0
C  C58  1  0.82084965  0.41691038  0.75099326  1  0  -0.059202  0  3.735512  0  0  -0.08582  0  3.98955  0  0  -0.085474  0  4.009956  0  0  -0.084665  -0.085625  0  3.975503  0
C  C59  1  0.23773766  0.58303913  0.25086139  1  0  -0.058068  0  3.73448  0  0  -0.084529  0  3.987758  0  0  -0.084162  0  4.008198  0  0  -0.084657  -0.085119  0  3.974926  0
C  C60  1  0.64726997  0.42407968  0.81598851  1  0  -0.138115  0  3.709666  0  0  -0.158861  0  3.963853  0  0  -0.162858  0  3.984008  0  0  -0.083498  -0.156264  0  3.95015  0
C  C61  1  0.07128223  0.57606060  0.31589100  1  0  -0.137157  0  3.707994  0  0  -0.158441  0  3.962012  0  0  -0.162443  0  3.982167  0  0  -0.08332  -0.155767  0  3.949102  0
C  C62  1  0.43443635  0.49077627  0.79785100  1  0  0.192608  0  3.761665  0  0  0.1879  0  4.004137  0  0  0.193644  0  4.026539  0  0  0.09967  0.184182  0  3.989021  0
C  C63  1  0.92483773  0.50951276  0.29785281  1  0  0.192352  0  3.760067  0  0  0.187649  0  4.002983  0  0  0.193392  0  4.025342  0  0  0.099363  0.183872  0  3.987602  0
C  C64  1  0.39427531  0.55610267  0.71804097  1  0  -0.136617  0  3.729384  0  0  -0.158615  0  3.98159  0  0  -0.162748  0  4.00236  0  0  -0.083793  -0.155927  0  3.96742  0
C  C65  1  0.94973911  0.44411503  0.21812981  1  0  -0.13731  0  3.727728  0  0  -0.159051  0  3.979812  0  0  -0.16318  0  4.000553  0  0  -0.084519  -0.156207  0  3.96576  0
C  C66  1  0.56920684  0.55133857  0.65444814  1  0  -0.0532  0  3.724905  0  0  -0.074551  0  3.971938  0  0  -0.07426  0  3.991891  0  0  -0.080467  -0.074311  0  3.958129  0
C  C67  1  0.11990707  0.44874222  0.15449485  1  0  -0.053766  0  3.725183  0  0  -0.07491  0  3.971848  0  0  -0.074602  0  3.991813  0  0  -0.080774  -0.075118  0  3.958969  0
C  C68  1  0.34461860  0.22443111  0.88299355  1  0  -0.385602  0  3.702188  0  0  -0.46848  0  3.942239  0  0  -0.47206  0  3.94821  0  0  -0.22639  -0.465743  0  3.937744  0
C  C69  1  0.56889576  0.77580862  0.38297266  1  0  -0.388265  0  3.704555  0  0  -0.470967  0  3.945137  0  0  -0.474513  0  3.951166  0  0  -0.22707  -0.468326  0  3.940928  0
C  C70  1  0.20707701  0.37344077  0.89924395  1  0  0.364769  0  3.684946  0  0  0.344577  0  3.961332  0  0  0.358705  0  3.973706  0  0  0.234595  0.33501  0  3.952865  0
C  C71  1  0.58032971  0.62676719  0.39924157  1  0  0.366704  0  3.681496  0  0  0.345412  0  3.959448  0  0  0.359536  0  3.97181  0  0  0.234632  0.335915  0  3.951043  0
C  C72  1  0.08012277  0.60390019  0.88915009  1  0  0.211326  0  3.614986  0  0  0.138309  0  3.891489  0  0  0.155125  0  3.90001  0  0  0.174904  0.126964  0  3.885748  0
C  C73  1  0.68381224  0.39630334  0.38926556  1  0  0.211499  0  3.616297  0  0  0.138604  0  3.892559  0  0  0.155457  0  3.901062  0  0  0.176176  0.127475  0  3.886823  0
N  N74  1  0.76691737  0.84453974  0.04557322  1  0  -0.262614  0  3.2442  0  0  -0.193599  0  3.557076  0  0  -0.209631  0  3.5682  0  0  -0.239906  -0.182845  0  3.549333  0
N  N75  1  0.61141527  0.15559259  0.54546722  1  0  -0.263179  0  3.242829  0  0  -0.195014  0  3.556725  0  0  -0.211026  0  3.567817  0  0  -0.239987  -0.184208  0  3.549086  0
N  N76  1  0.70312709  0.98476824  0.02103653  1  0  -0.28209  0  2.881123  0  0  -0.269315  0  3.156161  0  0  -0.278585  0  3.170434  0  0  -0.223707  -0.263023  0  3.146454  0
N  N77  1  0.68750596  0.01540133  0.52100283  1  0  -0.283229  0  2.882068  0  0  -0.270299  0  3.15721  0  0  -0.279589  0  3.171492  0  0  -0.224504  -0.263763  0  3.147271  0
N  N78  1  0.92399645  0.95167661  0.12027877  1  0  -0.171283  0  3.532106  0  0  -0.085192  0  3.748715  0  0  -0.101926  0  3.769678  0  0  -0.214227  -0.074277  0  3.734458  0
N  N79  1  0.87571684  0.04825047  0.62015410  1  0  -0.171382  0  3.531496  0  0  -0.085726  0  3.74765  0  0  -0.102471  0  3.768638  0  0  -0.214508  -0.07477  0  3.733368  0
N  N80  1  0.93817327  0.56098014  0.94257411  1  0  -0.274722  0  3.27868  0  0  -0.20325  0  3.598206  0  0  -0.22091  0  3.608879  0  0  -0.244297  -0.191441  0  3.590963  0
N  N81  1  0.49898250  0.43913536  0.44264988  1  0  -0.27528  0  3.279377  0  0  -0.20395  0  3.599096  0  0  -0.221627  0  3.609788  0  0  -0.24529  -0.19216  0  3.591899  0
N  N82  1  0.01636281  0.41582340  0.94914563  1  0  -0.278739  0  2.907633  0  0  -0.26156  0  3.181914  0  0  -0.27081  0  3.195593  0  0  -0.219144  -0.25537  0  3.172643  0
N  N83  1  0.43204996  0.58428512  0.44916944  1  0  -0.278725  0  2.903776  0  0  -0.261274  0  3.17836  0  0  -0.270472  0  3.19201  0  0  -0.218667  -0.254811  0  3.168954  0
N  N84  1  0.25222851  0.48959575  0.86015739  1  0  -0.16356  0  3.528547  0  0  -0.078247  0  3.741907  0  0  -0.095447  0  3.762862  0  0  -0.211134  -0.066811  0  3.72762  0
N  N85  1  0.74160863  0.51065533  0.36021413  1  0  -0.165387  0  3.530049  0  0  -0.079993  0  3.744174  0  0  -0.0972  0  3.765104  0  0  -0.211808  -0.068629  0  3.729921  0
O  O86  1  0.21325200  0.19811738  0.43466816  1  0  -0.643369  0  2.002641  0  0  -0.574286  0  2.272819  0  0  -0.6027  0  2.257608  0  0  -0.339965  -0.554287  0  2.282639  0
O  O87  1  0.41180179  0.80176154  0.93454117  1  0  -0.642798  0  2.0028  0  0  -0.573703  0  2.272722  0  0  -0.602131  0  2.257542  0  0  -0.339201  -0.553875  0  2.282537  0
O  O88  1  0.50121635  0.18628777  0.33223551  1  0  -0.617584  0  1.934349  0  0  -0.574022  0  2.163174  0  0  -0.59753  0  2.157013  0  0  -0.323289  -0.557413  0  2.166774  0
O  O89  1  0.68785522  0.81393860  0.83216365  1  0  -0.617016  0  1.934583  0  0  -0.573168  0  2.163041  0  0  -0.596694  0  2.156902  0  0  -0.322773  -0.556773  0  2.166608  0
O  O90  1  0.15435815  0.36661295  0.61106548  1  0  -0.653155  0  2.016575  0  0  -0.582576  0  2.283031  0  0  -0.611574  0  2.269616  0  0  -0.344269  -0.562348  0  2.291654  0
O  O91  1  0.52094495  0.63312440  0.11089955  1  0  -0.653646  0  2.01605  0  0  -0.582998  0  2.283275  0  0  -0.611899  0  2.269657  0  0  -0.344363  -0.562712  0  2.291509  0
O  O92  1  0.92939906  0.50622964  0.52252837  1  0  -0.607125  0  1.945627  0  0  -0.563572  0  2.175304  0  0  -0.586465  0  2.168277  0  0  -0.317839  -0.547525  0  2.179749  0
O  O93  1  0.43594989  0.49313683  0.02257369  1  0  -0.60699  0  1.944741  0  0  -0.563659  0  2.174939  0  0  -0.586522  0  2.167894  0  0  -0.3176  -0.547639  0  2.179183  0
