# generated using pymatgen
data_CuH7C10NO4
_symmetry_space_group_name_H-M   'P 1'
_cell_length_a   9.75766659
_cell_length_b   9.75764447
_cell_length_c   13.83878664
_cell_angle_alpha   77.17322670
_cell_angle_beta   77.17336195
_cell_angle_gamma   65.89917222
_symmetry_Int_Tables_number   1
_chemical_formula_structural   CuH7C10NO4
_chemical_formula_sum   'Cu4 H28 C40 N4 O16'
_cell_volume   1159.90323348
_cell_formula_units_Z   4
loop_
 _symmetry_equiv_pos_site_id
 _symmetry_equiv_pos_as_xyz
  1  'x, y, z'
loop_
 _atom_site_type_symbol
 _atom_site_label
 _atom_site_symmetry_multiplicity
 _atom_site_fract_x
 _atom_site_fract_y
 _atom_site_fract_z
 _atom_site_occupancy
 _atom_site_hle17_ddec_charge
 _atom_site_hle17_ddec_spin_density
 _atom_site_hle17_ddec_sum_bond_order
 _atom_site_hle17_magmom
 _atom_site_hse06_10hf_ddec_charge
 _atom_site_hse06_10hf_ddec_spin_density
 _atom_site_hse06_10hf_ddec_sum_bond_order
 _atom_site_hse06_10hf_magmom
 _atom_site_hse06_ddec_charge
 _atom_site_hse06_ddec_spin_density
 _atom_site_hse06_ddec_sum_bond_order
 _atom_site_hse06_magmom
 _atom_site_pbe_cm5_charge
 _atom_site_pbe_ddec_charge
 _atom_site_pbe_ddec_spin_density
 _atom_site_pbe_ddec_sum_bond_order
 _atom_site_pbe_magmom
Cu  Cu0  1  0.08296641  0.58267309  0.48772545  1  0.846392  0.694183  1.926151  0.504  0.832114  0.808892  2.34202  0.645  0.93487  0.8956  2.258198  0.745  0.68897  0.766798  0.711179  2.399609  0.554
Cu  Cu1  1  0.41732933  0.91703073  0.01227499  1  0.846354  -0.694183  1.926292  -0.504  0.832126  -0.808905  2.342153  -0.646  0.934837  -0.8956  2.258294  -0.745  0.688981  0.76683  -0.711157  2.399686  -0.554
Cu  Cu2  1  0.91703549  0.41732715  0.51227419  1  0.846352  -0.694188  1.926244  -0.504  0.832096  -0.808898  2.34211  -0.646  0.934808  -0.895597  2.258281  -0.745  0.688977  0.766806  -0.711169  2.399683  -0.554
Cu  Cu3  1  0.58267215  0.08296498  0.98772615  1  0.84633  0.694178  1.926082  0.504  0.832054  0.808892  2.341948  0.645  0.934803  0.895596  2.258118  0.745  0.688933  0.766743  0.711145  2.399556  0.555
H  H4  1  0.59120228  0.73547261  0.72762226  1  0.132614  0.000917  0.915543  0.002  0.141648  0.000552  0.968121  0.001  0.145341  0.000384  0.966005  0.001  0.116638  0.138963  0.000644  0.969987  0.001
H  H5  1  0.26452911  0.40879574  0.77237840  1  0.132621  -0.000905  0.915483  -0.002  0.141651  -0.000552  0.968064  -0.001  0.145344  -0.000383  0.965947  -0.001  0.116638  0.138968  -0.000644  0.969927  -0.001
H  H6  1  0.40879287  0.26452314  0.27237699  1  0.132638  -0.000917  0.915539  -0.002  0.141665  -0.000552  0.968125  -0.001  0.145358  -0.000384  0.966009  -0.001  0.116668  0.138987  -0.000644  0.969979  -0.001
H  H7  1  0.73547406  0.59120677  0.22762791  1  0.132591  0.000914  0.915525  0.002  0.141618  0.000552  0.968118  0.001  0.14531  0.000384  0.966002  0.001  0.116656  0.138941  0.000645  0.96997  0.001
H  H8  1  0.84269783  0.85819143  0.71303751  1  0.132915  -0.00099  0.921887  -0.002  0.140839  -0.0006  0.978155  -0.001  0.144592  -0.000438  0.97583  -0.001  0.116064  0.138277  -0.000677  0.97982  -0.001
H  H9  1  0.14180967  0.15730150  0.78696023  1  0.13294  0.000981  0.921894  0.002  0.140878  0.0006  0.978143  0.001  0.144631  0.000438  0.975817  0.001  0.11608  0.138315  0.000677  0.979809  0.001
H  H10  1  0.15729605  0.14180772  0.28695923  1  0.132896  0.000992  0.92195  0.002  0.140811  0.0006  0.978231  0.001  0.144565  0.000438  0.975906  0.001  0.116044  0.138247  0.000677  0.979896  0.001
H  H11  1  0.85819202  0.84270214  0.21304035  1  0.132916  -0.000987  0.921949  -0.002  0.140833  -0.0006  0.978223  -0.001  0.144587  -0.000438  0.975898  -0.001  0.116054  0.13827  -0.000677  0.979888  -0.001
H  H12  1  0.05701956  0.86345201  0.56712489  1  0.079029  -5.3e-05  0.949729  0.0  0.088253  -6.2e-05  1.013353  0.0  0.09156  -6.5e-05  1.010517  0.0  0.114079  0.0856  -5.9e-05  1.01568  0.0
H  H13  1  0.13654982  0.94298105  0.93287420  1  0.07905  4.9e-05  0.94966  0.0  0.088269  6.3e-05  1.013291  0.0  0.091577  6.5e-05  1.010454  0.0  0.114103  0.085616  5.9e-05  1.015617  0.0
H  H14  1  0.94298044  0.13655050  0.43287108  1  0.079052  4.9e-05  0.949763  0.0  0.088281  6.3e-05  1.013378  0.0  0.091587  6.5e-05  1.010541  0.0  0.114123  0.085627  5.9e-05  1.015703  0.0
H  H15  1  0.86345229  0.05702145  0.06712794  1  0.079015  -4.6e-05  0.949752  0.0  0.088247  -6.3e-05  1.013365  0.0  0.091554  -6.5e-05  1.010529  0.0  0.114089  0.085593  -5.9e-05  1.015691  0.0
H  H16  1  0.21249278  0.00933043  0.56989285  1  0.112428  -1e-06  0.95038  0.0  0.124346  -1.5e-05  1.006358  0.0  0.128332  1e-06  1.004575  0.0  0.107609  0.121487  -2e-05  1.008065  0.0
H  H17  1  0.99066907  0.78750937  0.93010773  1  0.112404  7e-06  0.95034  0.0  0.124323  1.5e-05  1.006321  0.0  0.128315  -1e-06  1.004529  0.0  0.107602  0.121463  2e-05  1.008028  0.0
H  H18  1  0.78750996  0.99066753  0.43010557  1  0.11245  0.0  0.950335  0.0  0.124335  1.5e-05  1.006348  0.0  0.128327  -1e-06  1.004556  0.0  0.107618  0.121474  2e-05  1.008052  0.0
H  H19  1  0.00933009  0.21249542  0.06989380  1  0.112451  -8e-06  0.950355  0.0  0.124327  -1.5e-05  1.006379  0.0  0.128307  1e-06  1.004603  0.0  0.107619  0.121479  -2e-05  1.008067  0.0
H  H20  1  0.57989182  0.69449574  0.39182771  1  0.108421  -3.2e-05  0.979433  0.0  0.117876  -2.9e-05  1.043873  0.0  0.121448  -5e-06  1.043393  0.0  0.103321  0.115508  -4.7e-05  1.043494  0.0
H  H21  1  0.30550134  0.42010632  0.10817367  1  0.108445  3.6e-05  0.979409  0.0  0.117867  3e-05  1.043885  0.0  0.121439  4e-06  1.043405  0.0  0.103309  0.115498  4.7e-05  1.043504  0.0
H  H22  1  0.42010966  0.30549998  0.60817199  1  0.108378  3.6e-05  0.97946  0.0  0.117821  3e-05  1.043921  0.0  0.121422  5e-06  1.043409  0.0  0.103316  0.115454  4.7e-05  1.043541  0.0
H  H23  1  0.69449592  0.57989509  0.89182941  1  0.108413  -3.9e-05  0.979451  0.0  0.117841  -2.9e-05  1.043917  0.0  0.121429  -4e-06  1.04342  0.0  0.10331  0.115474  -4.7e-05  1.043537  0.0
H  H24  1  0.40314226  0.56714257  0.39323366  1  0.085078  -3.7e-05  0.931123  0.0  0.094987  -4.3e-05  0.989967  0.0  0.098658  -5.1e-05  0.986785  0.0  0.116713  0.092017  -3.1e-05  0.992767  0.0
H  H25  1  0.43285815  0.59685482  0.10676728  1  0.08512  3.3e-05  0.931043  0.0  0.094996  4.3e-05  0.98992  0.0  0.098667  5.1e-05  0.986737  0.0  0.116701  0.092025  3e-05  0.99272  0.0
H  H26  1  0.59685900  0.43285653  0.60676410  1  0.085145  3.3e-05  0.931055  0.0  0.095054  4.3e-05  0.989898  0.0  0.098726  5.2e-05  0.986715  0.0  0.116739  0.092085  3e-05  0.992699  0.0
H  H27  1  0.56714354  0.40314316  0.89323420  1  0.085119  -3.3e-05  0.931076  0.0  0.095023  -4.3e-05  0.989923  0.0  0.098694  -5.1e-05  0.986741  0.0  0.116709  0.092054  -3e-05  0.992725  0.0
H  H28  1  0.62872455  0.88884915  0.43541755  1  0.09239  -2.8e-05  0.949724  0.0  0.107065  -6e-06  1.006339  0.0  0.109703  -5e-06  1.005284  0.0  0.104103  0.105008  -7e-06  1.0073  0.0
H  H29  1  0.11114846  0.37127577  0.06458041  1  0.092394  2.2e-05  0.949728  0.0  0.107083  6e-06  1.006326  0.0  0.109722  5e-06  1.005269  0.0  0.104113  0.105026  8e-06  1.007289  0.0
H  H30  1  0.37127713  0.11114882  0.56457959  1  0.092338  2.8e-05  0.94975  0.0  0.107079  6e-06  1.006283  0.0  0.109717  5e-06  1.005228  0.0  0.104078  0.105022  7e-06  1.007247  0.0
H  H31  1  0.88884817  0.62873017  0.93541989  1  0.092452  -2.2e-05  0.949618  0.0  0.107131  -6e-06  1.006227  0.0  0.109771  -5e-06  1.005171  0.0  0.104125  0.105075  -7e-06  1.00719  0.0
C  C32  1  0.79444919  0.67857158  0.61278147  1  0.664784  0.000777  3.887433  0.001  0.63028  0.000644  4.186009  0.001  0.671707  0.000493  4.179293  0.001  0.209354  0.602213  0.000844  4.189803  0.001
C  C33  1  0.32142883  0.20554664  0.88721991  1  0.664862  -0.000763  3.887319  -0.001  0.630296  -0.000645  4.185978  -0.001  0.671723  -0.000491  4.179264  -0.001  0.209385  0.602229  -0.000843  4.189778  -0.001
C  C34  1  0.20554680  0.32142756  0.38721711  1  0.664702  -0.000774  3.88764  -0.001  0.630194  -0.000645  4.186213  -0.001  0.671621  -0.000491  4.1795  -0.001  0.209279  0.602123  -0.000843  4.190004  -0.001
C  C35  1  0.67857413  0.79444793  0.11278263  1  0.664669  0.000762  3.887537  0.001  0.630176  0.000644  4.186086  0.001  0.6716  0.000493  4.179372  0.001  0.209259  0.602108  0.000844  4.189885  0.001
C  C36  1  0.69504284  0.75683019  0.69795955  1  -0.14242  5.2e-05  3.636591  0.001  -0.164219  0.000213  3.891214  0.001  -0.17045  -0.000245  3.904893  0.0  -0.074199  -0.160012  0.000455  3.882415  0.001
C  C37  1  0.24317151  0.30495373  0.80204067  1  -0.142425  -0.000297  3.636407  -0.001  -0.164203  -0.000211  3.891046  -0.001  -0.170432  0.000246  3.904724  0.0  -0.074194  -0.160001  -0.000455  3.88225  -0.001
C  C38  1  0.30495063  0.24317011  0.30203997  1  -0.142446  -2.5e-05  3.636575  -0.001  -0.16424  -0.000214  3.891206  -0.001  -0.170471  0.000245  3.904884  0.0  -0.074232  -0.16004  -0.000456  3.882399  -0.001
C  C39  1  0.75682744  0.69504880  0.19796413  1  -0.142268  0.00012  3.636623  0.001  -0.164063  0.00021  3.891242  0.001  -0.170293  -0.000247  3.904925  0.0  -0.074184  -0.159867  0.000456  3.882441  0.001
C  C40  1  0.73876093  0.83722384  0.74321683  1  -0.146725  0.002499  3.624036  0.002  -0.168026  0.001034  3.876973  0.001  -0.174178  0.000988  3.889857  0.001  -0.076247  -0.163458  0.001058  3.868521  0.001
C  C41  1  0.16277910  0.26123691  0.75678152  1  -0.14684  -0.002261  3.624107  -0.002  -0.168166  -0.001035  3.877051  -0.001  -0.174321  -0.00099  3.889935  -0.001  -0.07633  -0.163596  -0.001058  3.868597  -0.001
C  C42  1  0.26123401  0.16277531  0.25678191  1  -0.146706  -0.002527  3.623956  -0.002  -0.168012  -0.001032  3.876926  -0.001  -0.174165  -0.000989  3.889808  -0.001  -0.076226  -0.163446  -0.001057  3.868473  -0.001
C  C43  1  0.83722322  0.73876785  0.24321879  1  -0.146785  0.002434  3.624117  0.002  -0.1681  0.001037  3.877088  0.001  -0.174253  0.00099  3.889968  0.001  -0.076229  -0.163529  0.001057  3.868634  0.001
C  C44  1  0.65226027  0.89855700  0.83712188  1  0.658594  -0.001834  3.892519  -0.003  0.626418  -0.00091  4.189381  -0.002  0.6676  -0.000861  4.182199  -0.001  0.20437  0.598077  -0.000876  4.194317  -0.002
C  C45  1  0.10144647  0.34773867  0.66287684  1  0.658607  0.001805  3.89264  0.003  0.626459  0.000908  4.189456  0.002  0.667642  0.000863  4.182273  0.001  0.204428  0.598122  0.000876  4.19438  0.002
C  C46  1  0.34773804  0.10143873  0.16287687  1  0.658603  0.001838  3.892239  0.003  0.626432  0.000907  4.189115  0.002  0.667615  0.000862  4.181932  0.001  0.204375  0.59809  0.000876  4.194047  0.002
C  C47  1  0.89855437  0.65226725  0.33712424  1  0.658666  -0.00182  3.892552  -0.003  0.626494  -0.00091  4.189412  -0.002  0.667682  -0.000861  4.18222  -0.001  0.204407  0.59815  -0.000876  4.194339  -0.002
C  C48  1  0.17363836  0.83099128  0.52870063  1  0.119422  -0.0005  3.730093  0.0  0.095667  -0.000361  3.980716  0.0  0.102417  -0.00035  3.999141  0.0  0.041778  0.091983  -0.000359  3.969443  0.0
C  C49  1  0.16901102  0.82635966  0.97129889  1  0.119401  0.000575  3.730029  0.001  0.095654  0.000361  3.980669  0.0  0.102403  0.000351  3.999096  0.0  0.041779  0.091974  0.000358  3.969399  0.0
C  C50  1  0.82636205  0.16901010  0.47129401  1  0.119344  0.000558  3.730171  0.001  0.095605  0.000361  3.980783  0.0  0.102355  0.000349  3.999207  0.0  0.041765  0.091927  0.000358  3.969513  0.0
C  C51  1  0.83099088  0.17364059  0.02870436  1  0.119385  -0.000632  3.73006  -0.001  0.095631  -0.000361  3.980666  0.0  0.102382  -0.000348  3.99909  0.0  0.041778  0.091953  -0.000358  3.969397  0.0
C  C52  1  0.26211286  0.91106403  0.53045773  1  -0.163678  0.000397  3.700413  0.0  -0.177166  0.000197  3.936021  0.0  -0.18423  0.000225  3.955843  0.0  -0.083271  -0.174098  0.000144  3.924158  0.0
C  C53  1  0.08893605  0.73788581  0.96954276  1  -0.163662  -0.000492  3.700361  -0.001  -0.177145  -0.000193  3.935965  0.0  -0.184211  -0.000218  3.955786  0.0  -0.083259  -0.174075  -0.000144  3.924103  0.0
C  C54  1  0.73788798  0.08893621  0.46953774  1  -0.163711  -0.000442  3.700429  0.0  -0.177149  -0.000196  3.936025  0.0  -0.184217  -0.000229  3.955843  0.0  -0.083307  -0.174078  -0.000144  3.924161  0.0
C  C55  1  0.91106311  0.26211332  0.03046110  1  -0.163683  0.000531  3.700425  0.001  -0.177121  0.000198  3.936036  0.0  -0.184178  0.000226  3.955859  0.0  -0.083294  -0.174059  0.000144  3.924166  0.0
C  C56  1  0.41264166  0.86434725  0.48043991  1  0.128792  -0.000421  3.81576  0.0  0.144804  -0.000329  4.044569  0.0  0.149968  -0.000297  4.067422  0.0  0.004498  0.141604  -0.000361  4.02821  0.0
C  C57  1  0.13565104  0.58735781  0.01955941  1  0.128873  0.000472  3.815851  0.0  0.144877  0.000323  4.044656  0.0  0.150037  0.000289  4.067516  0.0  0.004537  0.14168  0.000361  4.028299  0.0
C  C58  1  0.58736107  0.13565072  0.51955491  1  0.128908  0.000455  3.815807  0.0  0.144873  0.000328  4.044677  0.0  0.150035  0.000302  4.067536  0.0  0.004553  0.141677  0.000361  4.028321  0.0
C  C59  1  0.86434770  0.41264246  0.98044434  1  0.128865  -0.00051  3.815799  -0.001  0.144849  -0.000329  4.044635  0.0  0.15001  -0.000296  4.067497  0.0  0.004517  0.141652  -0.000361  4.028281  0.0
C  C60  1  0.46372335  0.73770014  0.43038833  1  -0.160106  0.000337  3.687662  0.0  -0.175196  0.000172  3.92523  0.0  -0.182793  0.000215  3.945346  0.0  -0.081064  -0.167981  0.000123  3.90917  0.0
C  C61  1  0.26229776  0.53627537  0.06961200  1  -0.16016  -0.000422  3.687621  0.0  -0.175211  -0.000165  3.925169  0.0  -0.182806  -0.000207  3.945287  0.0  -0.081078  -0.167992  -0.000123  3.909108  0.0
C  C62  1  0.53627791  0.26229897  0.56960798  1  -0.160032  -0.000398  3.687652  0.0  -0.175103  -0.000171  3.925236  0.0  -0.182721  -0.00022  3.945338  0.0  -0.081052  -0.167886  -0.000123  3.909179  0.0
C  C63  1  0.73770056  0.46372603  0.93039092  1  -0.160033  0.000457  3.687493  0.0  -0.175092  0.000172  3.925068  0.0  -0.182701  0.000215  3.945177  0.0  -0.081029  -0.167875  0.000123  3.909012  0.0
C  C64  1  0.36658923  0.66532990  0.43166099  1  0.129629  -0.000529  3.715324  -0.001  0.105156  -0.000417  3.966388  0.0  0.112511  -0.000384  3.984108  0.0  0.047241  0.100635  -0.000418  3.954597  0.0
C  C65  1  0.33467056  0.63340769  0.06833920  1  0.129597  0.000606  3.715126  0.001  0.10516  0.000417  3.966186  0.0  0.112512  0.000386  3.983905  0.0  0.047308  0.100642  0.000418  3.954397  0.0
C  C66  1  0.63341139  0.33466808  0.56833487  1  0.129439  0.00059  3.715212  0.001  0.104983  0.000418  3.966284  0.0  0.11233  0.000385  3.984013  0.0  0.047174  0.100469  0.000417  3.954496  0.0
C  C67  1  0.66532965  0.36659143  0.93166377  1  0.129475  -0.000634  3.715198  -0.001  0.105019  -0.000416  3.966257  0.0  0.112372  -0.000382  3.983983  0.0  0.047247  0.100503  -0.000418  3.954471  0.0
C  C68  1  0.51600221  0.93899668  0.47779737  1  -0.095666  0.000729  3.719629  0.001  -0.113524  0.000345  3.966639  0.0  -0.115761  0.000352  3.985928  0.0  -0.078687  -0.111502  0.00035  3.952544  0.0
C  C69  1  0.06100172  0.48399939  0.02220161  1  -0.095668  -0.000649  3.7197  -0.001  -0.113532  -0.00036  3.96669  0.0  -0.115767  -0.00036  3.985977  0.0  -0.078689  -0.111515  -0.00035  3.952601  0.0
C  C70  1  0.48400094  0.06100015  0.52219900  1  -0.095766  -0.000722  3.719714  -0.001  -0.113662  -0.000346  3.966727  0.0  -0.115898  -0.000352  3.986015  0.0  -0.078684  -0.111649  -0.00035  3.952638  0.0
C  C71  1  0.93899681  0.51600427  0.97780091  1  -0.095901  0.000651  3.719695  0.001  -0.113762  0.000359  3.966729  0.0  -0.115998  0.000357  3.986017  0.0  -0.078756  -0.111746  0.00035  3.95264  0.0
N  N72  1  0.22354075  0.71001610  0.48019746  1  -0.304121  -0.001107  3.231493  0.0  -0.255164  -0.000588  3.513236  0.0  -0.276348  -0.000597  3.529167  0.0  -0.338581  -0.244434  -0.000605  3.504713  0.0
N  N73  1  0.28998491  0.77645847  0.01980289  1  -0.304143  0.00106  3.231476  0.0  -0.25522  0.000581  3.513236  0.0  -0.276391  0.000588  3.529151  0.0  -0.338662  -0.244491  0.000605  3.504711  0.0
N  N74  1  0.77646113  0.28998413  0.51979713  1  -0.304008  0.001062  3.23136  0.0  -0.255101  0.000586  3.51314  0.0  -0.276272  0.000598  3.529059  0.0  -0.33859  -0.244376  0.000606  3.504628  0.0
N  N75  1  0.71001804  0.22354177  0.98019948  1  -0.304059  -0.001021  3.23139  0.0  -0.255123  -0.000586  3.513144  0.0  -0.276303  -0.0006  3.529077  0.0  -0.338599  -0.244395  -0.000605  3.504633  0.0
O  O76  1  0.90466162  0.71842391  0.56875377  1  -0.577291  0.076776  2.109976  0.102  -0.556734  0.050549  2.392519  0.073  -0.602428  0.03893  2.387029  0.06  -0.310918  -0.526073  0.054745  2.3956  0.076
O  O77  1  0.28157845  0.09533327  0.93124822  1  -0.577295  -0.076794  2.110054  -0.102  -0.556715  -0.050545  2.392606  -0.073  -0.6024  -0.038929  2.3871  -0.06  -0.310929  -0.526055  -0.054746  2.395682  -0.076
O  O78  1  0.09533543  0.28157524  0.43124826  1  -0.57732  -0.076774  2.110067  -0.102  -0.556765  -0.050549  2.392608  -0.073  -0.60245  -0.038933  2.387107  -0.06  -0.310946  -0.526108  -0.054752  2.39569  -0.076
O  O79  1  0.71842344  0.90466131  0.06875232  1  -0.577317  0.076781  2.10998  0.102  -0.556772  0.050547  2.392534  0.073  -0.602461  0.038929  2.38704  0.06  -0.310926  -0.526111  0.054747  2.395625  0.076
O  O80  1  0.23609423  0.42819454  0.40475186  1  -0.564056  0.074644  2.057943  0.098  -0.542546  0.049963  2.330021  0.072  -0.587274  0.038562  2.322106  0.059  -0.306466  -0.512591  0.054116  2.334483  0.075
O  O81  1  0.57180703  0.76390303  0.09524601  1  -0.564107  -0.074638  2.05791  -0.098  -0.542608  -0.049962  2.329994  -0.072  -0.587326  -0.038562  2.322062  -0.059  -0.306509  -0.512658  -0.054117  2.334458  -0.075
O  O82  1  0.76390344  0.57180572  0.59524267  1  -0.564147  -0.07465  2.057895  -0.098  -0.542648  -0.049964  2.329986  -0.072  -0.587368  -0.038563  2.322059  -0.059  -0.306535  -0.512699  -0.054116  2.334457  -0.075
O  O83  1  0.42819319  0.23609610  0.90475769  1  -0.564146  0.074642  2.057858  0.098  -0.542624  0.049964  2.329976  0.072  -0.587349  0.038562  2.322057  0.059  -0.30652  -0.512669  0.054116  2.334451  0.075
O  O84  1  0.69473982  0.99032524  0.86376227  1  -0.552864  0.084619  2.034388  0.112  -0.535073  0.055642  2.296997  0.081  -0.579311  0.042939  2.288573  0.066  -0.311129  -0.50595  0.059097  2.30296  0.083
O  O85  1  0.00967854  0.30526314  0.63623430  1  -0.55288  -0.084589  2.034496  -0.112  -0.535103  -0.055635  2.297103  -0.081  -0.579333  -0.042937  2.288671  -0.066  -0.31116  -0.505986  -0.059092  2.30306  -0.083
O  O86  1  0.30526250  0.00966820  0.13623476  1  -0.552861  -0.084622  2.034311  -0.112  -0.535082  -0.055639  2.296938  -0.081  -0.579315  -0.042941  2.2885  -0.066  -0.311122  -0.505962  -0.0591  2.302887  -0.083
O  O87  1  0.99032378  0.69474162  0.36376601  1  -0.552912  0.084611  2.034429  0.112  -0.535114  0.055643  2.297034  0.081  -0.579356  0.042939  2.288609  0.066  -0.311162  -0.505994  0.059099  2.30299  0.083
O  O88  1  0.54710044  0.85199884  0.88332225  1  -0.583371  -0.069607  2.0887  -0.092  -0.561606  -0.046811  2.360063  -0.068  -0.605733  -0.036765  2.352818  -0.056  -0.314054  -0.531881  -0.049434  2.364279  -0.069
O  O89  1  0.14800566  0.45289929  0.61667832  1  -0.583388  0.069633  2.088737  0.092  -0.561637  0.046815  2.3601  0.068  -0.60577  0.036763  2.352862  0.056  -0.314119  -0.531913  0.049435  2.364321  0.069
O  O90  1  0.45289809  0.14799916  0.11667972  1  -0.583384  0.069605  2.088579  0.092  -0.56161  0.046816  2.359938  0.068  -0.605739  0.036766  2.352696  0.056  -0.31409  -0.531886  0.049439  2.364167  0.069
O  O91  1  0.85199919  0.54710434  0.38332394  1  -0.583397  -0.069616  2.088746  -0.092  -0.561628  -0.046811  2.360112  -0.068  -0.605753  -0.036764  2.352861  -0.056  -0.31408  -0.531907  -0.049436  2.364334  -0.069
