# generated using pymatgen
data_CdH20C14(N2O3)2
_symmetry_space_group_name_H-M   'P 1'
_cell_length_a   9.27850543
_cell_length_b   9.27850288
_cell_length_c   10.98004041
_cell_angle_alpha   73.97550526
_cell_angle_beta   73.97547851
_cell_angle_gamma   82.68452119
_symmetry_Int_Tables_number   1
_chemical_formula_structural   CdH20C14(N2O3)2
_chemical_formula_sum   'Cd2 H40 C28 N8 O12'
_cell_volume   871.90728646
_cell_formula_units_Z   2
loop_
 _symmetry_equiv_pos_site_id
 _symmetry_equiv_pos_as_xyz
  1  'x, y, z'
loop_
 _atom_site_type_symbol
 _atom_site_label
 _atom_site_symmetry_multiplicity
 _atom_site_fract_x
 _atom_site_fract_y
 _atom_site_fract_z
 _atom_site_occupancy
 _atom_site_hle17_bader_spin_density
 _atom_site_hle17_ddec_charge
 _atom_site_hle17_ddec_spin_density
 _atom_site_hle17_ddec_sum_bond_order
 _atom_site_hle17_magmom
 _atom_site_hse06_10hf_bader_spin_density
 _atom_site_hse06_10hf_ddec_charge
 _atom_site_hse06_10hf_ddec_spin_density
 _atom_site_hse06_10hf_ddec_sum_bond_order
 _atom_site_hse06_10hf_magmom
 _atom_site_hse06_bader_spin_density
 _atom_site_hse06_ddec_charge
 _atom_site_hse06_ddec_spin_density
 _atom_site_hse06_ddec_sum_bond_order
 _atom_site_hse06_magmom
 _atom_site_pbe_bader_spin_density
 _atom_site_pbe_cm5_charge
 _atom_site_pbe_ddec_charge
 _atom_site_pbe_ddec_spin_density
 _atom_site_pbe_ddec_sum_bond_order
 _atom_site_pbe_magmom
Cd  Cd0  1  0.44192852  0.55807236  0.25000026  1  0  1.160461  0  1.721644  0  0  0.976871  0  2.172906  0  0  1.029213  0  2.121051  0  0  0.765295  0.938912  0  2.209651  0
Cd  Cd1  1  0.55807280  0.44192872  0.74999947  1  0  1.160464  0  1.721637  0  0  0.97686  0  2.172913  0  0  1.029203  0  2.121057  0  0  0.765286  0.938898  0  2.209657  0
H  H2  1  0.39151535  0.31494324  0.18980008  1  0  0.410207  0  0.904036  0  0  0.376662  0  0.973189  0  0  0.388853  0  0.955554  0  0  0.279183  0.368102  0  0.985605  0
H  H3  1  0.68505630  0.60848466  0.31020000  1  0  0.410119  0  0.904144  0  0  0.376556  0  0.973325  0  0  0.38875  0  0.955687  0  0  0.279137  0.367998  0  0.985739  0
H  H4  1  0.60848491  0.68505671  0.81020016  1  0  0.41022  0  0.904018  0  0  0.376673  0  0.973172  0  0  0.388864  0  0.955537  0  0  0.279189  0.368115  0  0.985585  0
H  H5  1  0.31494397  0.39151530  0.68980024  1  0  0.410115  0  0.904151  0  0  0.376559  0  0.973324  0  0  0.38875  0  0.95569  0  0  0.279137  0.367998  0  0.98574  0
H  H6  1  0.34537172  0.43472935  0.06270557  1  0  0.417881  0  0.88875  0  0  0.38491  0  0.95644  0  0  0.396213  0  0.940148  0  0  0.280766  0.376762  0  0.968339  0
H  H7  1  0.56527105  0.65462789  0.43729443  1  0  0.417866  0  0.888771  0  0  0.384895  0  0.956462  0  0  0.396198  0  0.940168  0  0  0.28077  0.376746  0  0.968362  0
H  H8  1  0.65462743  0.56527059  0.93729584  1  0  0.417875  0  0.888754  0  0  0.384905  0  0.956442  0  0  0.396209  0  0.940148  0  0  0.280766  0.376758  0  0.96834  0
H  H9  1  0.43472922  0.34537207  0.56270580  1  0  0.417871  0  0.888761  0  0  0.384902  0  0.956448  0  0  0.396205  0  0.940154  0  0  0.280771  0.376754  0  0.968346  0
H  H10  1  0.06605444  0.58235998  0.26448524  1  0  0.104645  0  0.97264  0  0  0.11195  0  1.040157  0  0  0.114937  0  1.037507  0  0  0.11322  0.109934  0  1.041744  0
H  H11  1  0.41763903  0.93394774  0.23551277  1  0  0.104678  0  0.972606  0  0  0.111981  0  1.040118  0  0  0.11497  0  1.037465  0  0  0.113234  0.109961  0  1.041721  0
H  H12  1  0.93394806  0.41763999  0.73551356  1  0  0.104676  0  0.972603  0  0  0.111974  0  1.040125  0  0  0.114963  0  1.037473  0  0  0.113233  0.109958  0  1.041712  0
H  H13  1  0.58236228  0.06605335  0.76448514  1  0  0.104659  0  0.972611  0  0  0.111965  0  1.040119  0  0  0.114956  0  1.037464  0  0  0.113233  0.109941  0  1.041728  0
H  H14  1  0.85145264  0.72254588  0.43161975  1  0  0.117011  0  0.945381  0  0  0.131186  0  0.99883  0  0  0.133422  0  0.998184  0  0  0.124564  0.128828  0  1.000344  0
H  H15  1  0.27745439  0.14854752  0.06837920  1  0  0.117012  0  0.945347  0  0  0.131185  0  0.998804  0  0  0.133421  0  0.998157  0  0  0.124554  0.128827  0  1.000317  0
H  H16  1  0.14854867  0.27745521  0.56837906  1  0  0.116995  0  0.945377  0  0  0.131167  0  0.998829  0  0  0.133404  0  0.998183  0  0  0.124547  0.128807  0  1.000343  0
H  H17  1  0.72254594  0.85145131  0.93162038  1  0  0.116998  0  0.945389  0  0  0.13117  0  0.998846  0  0  0.133405  0  0.998198  0  0  0.124557  0.128812  0  1.000358  0
H  H18  1  0.26120375  0.66324862  0.54293881  1  0  0.098154  0  0.947743  0  0  0.105235  0  1.015718  0  0  0.107838  0  1.012697  0  0  0.132077  0.103074  0  1.018268  0
H  H19  1  0.33675253  0.73879502  0.95706098  1  0  0.098144  0  0.947746  0  0  0.105224  0  1.015716  0  0  0.107828  0  1.012695  0  0  0.132066  0.103062  0  1.018268  0
H  H20  1  0.73879637  0.33675358  0.45706185  1  0  0.098168  0  0.947764  0  0  0.105256  0  1.01573  0  0  0.107849  0  1.01272  0  0  0.132073  0.103094  0  1.018282  0
H  H21  1  0.66324676  0.26120268  0.04294002  1  0  0.098153  0  0.947752  0  0  0.105238  0  1.015715  0  0  0.10784  0  1.012694  0  0  0.132075  0.103076  0  1.018263  0
H  H22  1  0.05101381  0.78918290  0.67318512  1  0  0.074229  0  0.909697  0  0  0.094232  0  0.964636  0  0  0.094821  0  0.964589  0  0  0.112381  0.093627  0  0.964625  0
H  H23  1  0.21081664  0.94898409  0.82681533  1  0  0.074274  0  0.909716  0  0  0.094269  0  0.964646  0  0  0.094856  0  0.964603  0  0  0.112417  0.093662  0  0.964635  0
H  H24  1  0.94898414  0.21081816  0.32681541  1  0  0.074242  0  0.909685  0  0  0.094237  0  0.964636  0  0  0.09483  0  0.964586  0  0  0.112391  0.093632  0  0.964624  0
H  H25  1  0.78918265  0.05101360  0.17318567  1  0  0.074243  0  0.909668  0  0  0.094244  0  0.964614  0  0  0.094833  0  0.964567  0  0  0.112394  0.093639  0  0.964603  0
H  H26  1  0.86849783  0.74243125  0.68135065  1  0  0.089443  0  0.930536  0  0  0.104931  0  0.991847  0  0  0.106034  0  0.991037  0  0  0.110601  0.103627  0  0.992911  0
H  H27  1  0.25756907  0.13150042  0.81864934  1  0  0.089404  0  0.930588  0  0  0.1049  0  0.991884  0  0  0.106002  0  0.991074  0  0  0.110595  0.103593  0  0.992946  0
H  H28  1  0.13150019  0.25756868  0.31864921  1  0  0.089424  0  0.930576  0  0  0.104928  0  0.991868  0  0  0.106029  0  0.991061  0  0  0.110598  0.103622  0  0.992931  0
H  H29  1  0.74243022  0.86849728  0.18135166  1  0  0.089417  0  0.930528  0  0  0.104931  0  0.991816  0  0  0.106033  0  0.991007  0  0  0.110599  0.103628  0  0.992881  0
H  H30  1  0.83966861  0.96730006  0.50452616  1  0  0.065682  0  0.937991  0  0  0.083642  0  1.000889  0  0  0.083392  0  1.002759  0  0  0.089309  0.084592  0  0.99779  0
H  H31  1  0.03269929  0.16032812  0.99547629  1  0  0.065675  0  0.938012  0  0  0.083639  0  1.000915  0  0  0.083389  0  1.002781  0  0  0.089297  0.084588  0  0.997817  0
H  H32  1  0.16032717  0.03269986  0.49547605  1  0  0.065686  0  0.938005  0  0  0.083651  0  1.000908  0  0  0.0834  0  1.002775  0  0  0.089302  0.0846  0  0.99781  0
H  H33  1  0.96729993  0.83967070  0.00452537  1  0  0.065647  0  0.938032  0  0  0.083629  0  1.000919  0  0  0.083379  0  1.002788  0  0  0.089288  0.084578  0  0.997821  0
H  H34  1  0.88913495  0.02062348  0.62879257  1  0  0.072191  0  0.952428  0  0  0.088319  0  1.016571  0  0  0.088482  0  1.018748  0  0  0.092435  0.087901  0  1.01553  0
H  H35  1  0.97937653  0.11086304  0.87121012  1  0  0.072194  0  0.952446  0  0  0.088338  0  1.016578  0  0  0.088485  0  1.018772  0  0  0.092443  0.08792  0  1.015539  0
H  H36  1  0.11086196  0.97937645  0.37120938  1  0  0.072182  0  0.952456  0  0  0.088334  0  1.016577  0  0  0.08848  0  1.018771  0  0  0.092437  0.087916  0  1.015537  0
H  H37  1  0.02062276  0.88913466  0.12879269  1  0  0.072191  0  0.95241  0  0  0.088326  0  1.016558  0  0  0.088489  0  1.018735  0  0  0.092439  0.087908  0  1.015519  0
H  H38  1  0.52625896  0.09958128  0.58208164  1  0  0.119274  0  0.963453  0  0  0.126801  0  1.028475  0  0  0.130965  0  1.025765  0  0  0.106485  0.123508  0  1.031022  0
H  H39  1  0.90041868  0.47374100  0.91791887  1  0  0.119242  0  0.963488  0  0  0.126791  0  1.028487  0  0  0.130957  0  1.025775  0  0  0.106469  0.123496  0  1.031035  0
H  H40  1  0.47374018  0.90041867  0.41791886  1  0  0.119259  0  0.963498  0  0  0.126809  0  1.028491  0  0  0.130974  0  1.02578  0  0  0.106497  0.123515  0  1.03104  0
H  H41  1  0.09958144  0.52626120  0.08208087  1  0  0.119274  0  0.963439  0  0  0.126804  0  1.028464  0  0  0.130967  0  1.025756  0  0  0.106481  0.12351  0  1.031012  0
C  C42  1  0.07734117  0.62232886  0.34498896  1  0  0.004937  0  3.764505  0  0  -0.033083  0  4.042455  0  0  -0.03028  0  4.061808  0  0  -0.007021  -0.035189  0  4.028625  0
C  C43  1  0.37766713  0.92266036  0.15500991  1  0  0.00485  0  3.764687  0  0  -0.033165  0  4.042641  0  0  -0.030363  0  4.061993  0  0  -0.007076  -0.035275  0  4.02881  0
C  C44  1  0.92266043  0.37766774  0.65501085  1  0  0.004916  0  3.764557  0  0  -0.033098  0  4.042506  0  0  -0.030295  0  4.061858  0  0  -0.007029  -0.035203  0  4.028672  0
C  C45  1  0.62233321  0.07733847  0.84498966  1  0  0.004895  0  3.76457  0  0  -0.033117  0  4.042521  0  0  -0.030316  0  4.061874  0  0  -0.007074  -0.035225  0  4.028683  0
C  C46  1  0.96907300  0.69154904  0.42695721  1  0  -0.060932  0  3.664099  0  0  -0.099767  0  3.921936  0  0  -0.09803  0  3.940382  0  0  -0.000138  -0.099486  0  3.908827  0
C  C47  1  0.30845026  0.03092435  0.07304351  1  0  -0.060885  0  3.664275  0  0  -0.099715  0  3.922104  0  0  -0.097979  0  3.940551  0  0  -7.8e-05  -0.099433  0  3.908993  0
C  C48  1  0.03092615  0.30845091  0.57304330  1  0  -0.060971  0  3.664209  0  0  -0.099791  0  3.922029  0  0  -0.098058  0  3.94048  0  0  -0.000119  -0.09951  0  3.908918  0
C  C49  1  0.69155023  0.96907223  0.92695838  1  0  -0.060849  0  3.664151  0  0  -0.099685  0  3.921982  0  0  -0.097946  0  3.940427  0  0  -5.5e-05  -0.099402  0  3.908869  0
C  C50  1  0.18202090  0.66083409  0.48698068  1  0  0.160701  0  3.670705  0  0  0.101122  0  3.939826  0  0  0.114386  0  3.953881  0  0  0.138231  0.092069  0  3.930515  0
C  C51  1  0.33916679  0.81797761  0.01301956  1  0  0.160702  0  3.670591  0  0  0.101134  0  3.939711  0  0  0.114399  0  3.953766  0  0  0.13825  0.092081  0  3.9304  0
C  C52  1  0.81797817  0.33916698  0.51301958  1  0  0.160588  0  3.670582  0  0  0.101018  0  3.9397  0  0  0.114287  0  3.953763  0  0  0.138216  0.091964  0  3.930389  0
C  C53  1  0.66083355  0.18202122  0.98698093  1  0  0.160671  0  3.670673  0  0  0.101103  0  3.939785  0  0  0.114368  0  3.95384  0  0  0.138222  0.09205  0  3.930472  0
C  C54  1  0.96932428  0.79785759  0.61530724  1  0  0.007285  0  3.620757  0  0  -0.055381  0  3.880162  0  0  -0.051004  0  3.890856  0  0  -0.048782  -0.05797  0  3.872738  0
C  C55  1  0.20214286  0.03067333  0.88469285  1  0  0.007242  0  3.620867  0  0  -0.055401  0  3.880257  0  0  -0.051024  0  3.890949  0  0  -0.04883  -0.057979  0  3.872817  0
C  C56  1  0.03067374  0.20214234  0.38469262  1  0  0.007257  0  3.62076  0  0  -0.055416  0  3.880197  0  0  -0.051043  0  3.890892  0  0  -0.048792  -0.057999  0  3.872764  0
C  C57  1  0.79785755  0.96932438  0.11530788  1  0  0.007295  0  3.620606  0  0  -0.055384  0  3.880045  0  0  -0.051009  0  3.890745  0  0  -0.048782  -0.057972  0  3.872618  0
C  C58  1  0.93244549  0.96153914  0.55068498  1  0  -0.133546  0  3.699962  0  0  -0.175713  0  3.963951  0  0  -0.177019  0  3.978209  0  0  -0.166492  -0.175064  0  3.953828  0
C  C59  1  0.03846215  0.06755209  0.94931497  1  0  -0.133522  0  3.700002  0  0  -0.175732  0  3.964021  0  0  -0.177026  0  3.978284  0  0  -0.16649  -0.175085  0  3.953895  0
C  C60  1  0.06755246  0.03846191  0.44931463  1  0  -0.133536  0  3.700001  0  0  -0.175745  0  3.964021  0  0  -0.177041  0  3.978284  0  0  -0.166498  -0.175098  0  3.953896  0
C  C61  1  0.96153938  0.93244563  0.05068459  1  0  -0.133497  0  3.699926  0  0  -0.175711  0  3.96397  0  0  -0.177018  0  3.978232  0  0  -0.166484  -0.175063  0  3.953848  0
C  C62  1  0.48493399  0.19953428  0.38581440  1  0  0.677289  0  3.914287  0  0  0.631452  0  4.204563  0  0  0.665693  0  4.19649  0  0  0.201571  0.60852  0  4.208668  0
C  C63  1  0.80046636  0.51506558  0.11418548  1  0  0.677192  0  3.914248  0  0  0.63133  0  4.204556  0  0  0.665571  0  4.196487  0  0  0.201519  0.608397  0  4.20866  0
C  C64  1  0.51506612  0.80046792  0.61418444  1  0  0.677207  0  3.914299  0  0  0.631365  0  4.204578  0  0  0.665601  0  4.196507  0  0  0.201541  0.608431  0  4.208683  0
C  C65  1  0.19953503  0.48493438  0.88581358  1  0  0.677251  0  3.914282  0  0  0.63139  0  4.204578  0  0  0.665629  0  4.196505  0  0  0.20154  0.608457  0  4.208681  0
C  C66  1  0.50533619  0.07182175  0.49852164  1  0  -0.179057  0  3.680347  0  0  -0.199676  0  3.938666  0  0  -0.204705  0  3.952253  0  0  -0.090476  -0.195878  0  3.927245  0
C  C67  1  0.92818011  0.49466480  0.00147849  1  0  -0.179027  0  3.680351  0  0  -0.199665  0  3.938673  0  0  -0.204693  0  3.952259  0  0  -0.090457  -0.195866  0  3.927253  0
C  C68  1  0.49466400  0.92817933  0.50147744  1  0  -0.17899  0  3.6804  0  0  -0.199625  0  3.938697  0  0  -0.204652  0  3.952288  0  0  -0.090474  -0.195826  0  3.927278  0
C  C69  1  0.07182225  0.50533742  0.99852163  1  0  -0.178987  0  3.680293  0  0  -0.199612  0  3.938621  0  0  -0.204641  0  3.952216  0  0  -0.090461  -0.195814  0  3.927201  0
N  N70  1  0.20952694  0.60362781  0.38363274  1  0  -0.409365  0  3.276494  0  0  -0.336607  0  3.563297  0  0  -0.358381  0  3.58282  0  0  -0.364745  -0.321673  0  3.549839  0
N  N71  1  0.39637206  0.79047438  0.11636705  1  0  -0.40932  0  3.27648  0  0  -0.336568  0  3.563279  0  0  -0.358342  0  3.582804  0  0  -0.364725  -0.321634  0  3.549823  0
N  N72  1  0.79047550  0.39637329  0.61636672  1  0  -0.409276  0  3.276384  0  0  -0.336523  0  3.563187  0  0  -0.358295  0  3.582706  0  0  -0.364698  -0.321588  0  3.549724  0
N  N73  1  0.60362828  0.20952445  0.88363343  1  0  -0.409376  0  3.276508  0  0  -0.336625  0  3.563312  0  0  -0.358397  0  3.582834  0  0  -0.36475  -0.32169  0  3.549851  0
N  N74  1  0.03707846  0.71440965  0.51675225  1  0  -0.066476  0  3.594086  0  0  0.029224  0  3.810725  0  0  0.014382  0  3.838189  0  0  -0.246643  0.038758  0  3.79114  0
N  N75  1  0.28559037  0.96292016  0.98324790  1  0  -0.066491  0  3.594042  0  0  0.029193  0  3.810679  0  0  0.014349  0  3.838146  0  0  -0.246672  0.038724  0  3.791089  0
N  N76  1  0.96292061  0.28559142  0.48324801  1  0  -0.066389  0  3.593932  0  0  0.029294  0  3.810591  0  0  0.01445  0  3.838058  0  0  -0.246684  0.038823  0  3.791004  0
N  N77  1  0.71440892  0.03707754  0.01675310  1  0  -0.0665  0  3.594042  0  0  0.029197  0  3.810687  0  0  0.014353  0  3.838153  0  0  -0.246681  0.038728  0  3.7911  0
O  O78  1  0.46940852  0.17273828  0.28365666  1  0  -0.617544  0  1.941972  0  0  -0.565394  0  2.163177  0  0  -0.59017  0  2.154716  0  0  -0.314722  -0.5481  0  2.168221  0
O  O79  1  0.82726361  0.53059075  0.21634482  1  0  -0.617526  0  1.941921  0  0  -0.565334  0  2.16311  0  0  -0.590101  0  2.154631  0  0  -0.314713  -0.548043  0  2.168158  0
O  O80  1  0.53059077  0.82725942  0.71634252  1  0  -0.617532  0  1.941972  0  0  -0.565364  0  2.163142  0  0  -0.59014  0  2.154685  0  0  -0.31472  -0.548071  0  2.168186  0
O  O81  1  0.17274002  0.46940924  0.78365735  1  0  -0.617517  0  1.942034  0  0  -0.565344  0  2.163228  0  0  -0.59012  0  2.154771  0  0  -0.314699  -0.54805  0  2.168268  0
O  O82  1  0.48365159  0.33168107  0.40384490  1  0  -0.676306  0  2.023406  0  0  -0.600959  0  2.265735  0  0  -0.63018  0  2.252412  0  0  -0.327024  -0.580825  0  2.274817  0
O  O83  1  0.66832045  0.51634841  0.09615561  1  0  -0.676245  0  2.023428  0  0  -0.600891  0  2.265767  0  0  -0.630113  0  2.252447  0  0  -0.326995  -0.580758  0  2.274849  0
O  O84  1  0.51634860  0.66832001  0.59615419  1  0  -0.676264  0  2.023379  0  0  -0.600916  0  2.265703  0  0  -0.630133  0  2.252384  0  0  -0.327019  -0.58078  0  2.274786  0
O  O85  1  0.33168206  0.48365157  0.90384501  1  0  -0.676321  0  2.023404  0  0  -0.60095  0  2.265726  0  0  -0.63017  0  2.252405  0  0  -0.327025  -0.580816  0  2.274809  0
O  O86  1  0.33330537  0.41107521  0.15922773  1  0  -0.855948  0  1.867129  0  0  -0.791548  0  2.064534  0  0  -0.814274  0  2.029219  0  0  -0.597413  -0.77459  0  2.089831  0
O  O87  1  0.58892447  0.66669495  0.34077227  1  0  -0.855838  0  1.86719  0  0  -0.791429  0  2.064607  0  0  -0.814162  0  2.029293  0  0  -0.59737  -0.774471  0  2.089898  0
O  O88  1  0.66669489  0.58892475  0.84077251  1  0  -0.855947  0  1.867131  0  0  -0.791538  0  2.064527  0  0  -0.814276  0  2.029233  0  0  -0.597401  -0.774583  0  2.089825  0
O  O89  1  0.41107580  0.33330501  0.65922797  1  0  -0.855842  0  1.867187  0  0  -0.791433  0  2.064584  0  0  -0.814161  0  2.029272  0  0  -0.597374  -0.774474  0  2.08988  0
