# generated using pymatgen
data_Zn4H26C50I2O13
_symmetry_space_group_name_H-M   'P 1'
_cell_length_a   20.80346066
_cell_length_b   20.87237671
_cell_length_c   20.87463608
_cell_angle_alpha   104.40963640
_cell_angle_beta   112.05462585
_cell_angle_gamma   112.04656151
_symmetry_Int_Tables_number   1
_chemical_formula_structural   Zn4H26C50I2O13
_chemical_formula_sum   'Zn8 H52 C100 I4 O26'
_cell_volume   6938.86394153
_cell_formula_units_Z   2
loop_
 _symmetry_equiv_pos_site_id
 _symmetry_equiv_pos_as_xyz
  1  'x, y, z'
loop_
 _atom_site_type_symbol
 _atom_site_label
 _atom_site_symmetry_multiplicity
 _atom_site_fract_x
 _atom_site_fract_y
 _atom_site_fract_z
 _atom_site_occupancy
 _atom_site_pbe_bader_charge
 _atom_site_pbe_bader_spin_density
 _atom_site_pbe_cm5_charge
 _atom_site_pbe_ddec_charge
 _atom_site_pbe_ddec_spin_density
 _atom_site_pbe_ddec_sum_bond_order
 _atom_site_pbe_magmom
Zn  Zn0  1  0.56663765  0.52646208  0.44896956  1  1.3193  0  0.67801  0.978676  0  2.346066  0
Zn  Zn1  1  0.43333725  0.55103574  0.47357378  1  1.31892  0  0.677868  0.978284  0  2.346843  0
Zn  Zn2  1  0.56672092  0.11763691  0.04090934  1  1.315961  0  0.67984  0.979171  0  2.344909  0
Zn  Zn3  1  0.43324941  0.95907682  0.88238620  1  1.315758  0  0.679663  0.978917  0  2.345442  0
Zn  Zn4  1  0.57072825  0.54503226  0.60835585  1  1.320693  0  0.685032  0.97257  0  2.351983  0
Zn  Zn5  1  0.42928966  0.39165680  0.45500420  1  1.320556  0  0.685172  0.972744  0  2.350966  0
Zn  Zn6  1  0.57164927  0.96319734  0.02617518  1  1.321811  0  0.687047  0.975582  0  2.351286  0
Zn  Zn7  1  0.42834331  0.97385776  0.03681416  1  1.321679  0  0.687096  0.975623  0  2.351318  0
H  H8  1  0.48177825  0.34541547  0.22918566  1  0.032574  0  0.101474  0.077931  0  0.990811  0
H  H9  1  0.51796863  0.77074224  0.65450799  1  0.031422  0  0.101685  0.078104  0  0.990668  0
H  H10  1  0.26985389  0.20701367  0.93726385  1  0.03771  0  0.102687  0.098325  0  0.991123  0
H  H11  1  0.17347892  0.06561150  0.88600957  1  0.045132  0  0.101298  0.096177  0  0.995975  0
H  H12  1  0.20947554  0.99758735  0.96362936  1  0.086681  0  0.098439  0.095547  0  1.003581  0
H  H13  1  0.33591581  0.06794734  0.08915302  1  0.062759  0  0.100587  0.108546  0  1.030262  0
H  H14  1  0.60136777  0.93629813  0.72173787  1  0.041229  0  0.100454  0.100091  0  0.989948  0
H  H15  1  0.72986100  0.06269572  0.79274938  1  0.036036  0  0.102787  0.098174  0  0.991257  0
H  H16  1  0.82628308  0.11411215  0.93417469  1  0.04701  0  0.101409  0.096657  0  0.995491  0
H  H17  1  0.79044532  0.03658874  0.00230178  1  0.086748  0  0.098313  0.09576  0  1.003629  0
H  H18  1  0.66411444  0.91097849  0.93205671  1  0.063893  0  0.100752  0.108677  0  1.030426  0
H  H19  1  0.40481621  0.39068059  0.22982383  1  0.043423  0  0.097341  0.099302  0  1.005561  0
H  H20  1  0.49763185  0.26968605  0.15186208  1  0.04533  0  0.103943  0.082679  0  0.983603  0
H  H21  1  0.27395061  0.37683047  0.20863117  1  0.05551  0  0.100656  0.099064  0  0.990293  0
H  H22  1  0.16070864  0.24990661  0.17589888  1  0.040101  0  0.099028  0.093171  0  1.005992  0
H  H23  1  0.18041780  0.13777689  0.16372242  1  0.059887  0  0.102559  0.097202  0  0.98925  0
H  H24  1  0.30968325  0.15125620  0.18386045  1  0.033368  0  0.097432  0.092801  0  1.038917  0
H  H25  1  0.59478982  0.77005346  0.60905052  1  0.040996  0  0.09715  0.099224  0  1.005288  0
H  H26  1  0.72559006  0.79126971  0.62270550  1  0.065031  0  0.100409  0.098601  0  0.990728  0
H  H27  1  0.83903760  0.82416891  0.74956932  1  0.040028  0  0.098874  0.092697  0  1.006307  0
H  H28  1  0.81957234  0.83644177  0.86183219  1  0.060783  0  0.102362  0.097036  0  0.9897  0
H  H29  1  0.69036769  0.81627245  0.84855744  1  0.031991  0  0.097469  0.092509  0  1.039041  0
H  H30  1  0.39844520  0.27814510  0.06359165  1  0.039411  0  0.100748  0.100512  0  0.990034  0
H  H31  1  0.50226812  0.84813996  0.73034284  1  0.044372  0  0.103966  0.082857  0  0.983461  0
H  H32  1  0.62013316  0.22685162  0.39440316  1  0.067972  0  0.074009  0.075512  0  1.090342  0
H  H33  1  0.67638065  0.22259584  0.51850032  1  0.076219  0  0.096915  0.093522  0  0.994833  0
H  H34  1  0.60302862  0.21417423  0.59017333  1  0.078157  0  0.095872  0.090502  0  1.001895  0
H  H35  1  0.47107704  0.20957414  0.53359332  1  0.029876  0  0.092301  0.088089  0  1.020878  0
H  H36  1  0.41524382  0.21463505  0.40893780  1  0.051153  0  0.095583  0.099208  0  1.005504  0
H  H37  1  0.38002737  0.60548187  0.77320823  1  0.05321  0  0.073787  0.075123  0  1.090188  0
H  H38  1  0.32409738  0.48142434  0.77761427  1  0.076964  0  0.097029  0.093956  0  0.995043  0
H  H39  1  0.39772436  0.41002395  0.78622498  1  0.060083  0  0.095725  0.090421  0  1.002459  0
H  H40  1  0.52966613  0.46678603  0.79081371  1  0.034348  0  0.092603  0.088695  0  1.020529  0
H  H41  1  0.58517702  0.59139869  0.78557001  1  0.046773  0  0.095842  0.099567  0  1.005103  0
H  H42  1  0.57681266  0.10958380  0.26521590  1  0.067386  0  0.07024  0.065851  0  1.116205  0
H  H43  1  0.57562323  0.00458949  0.29818139  1  0.032644  0  0.094153  0.087834  0  1.002275  0
H  H44  1  0.46476693  0.92499757  0.31513357  1  0.048738  0  0.096655  0.090404  0  1.007546  0
H  H45  1  0.35404608  0.95293154  0.29680669  1  0.061794  0  0.099103  0.093453  0  0.995064  0
H  H46  1  0.35534781  0.05852585  0.26334273  1  0.030278  0  0.096668  0.094987  0  0.998729  0
H  H47  1  0.42340412  0.73474713  0.89059881  1  0.069174  0  0.070556  0.066202  0  1.116335  0
H  H48  1  0.42481793  0.70177668  0.99563959  1  0.036434  0  0.094323  0.088169  0  1.002469  0
H  H49  1  0.53589084  0.68506004  0.07524463  1  0.036044  0  0.096576  0.090187  0  1.007183  0
H  H50  1  0.64663004  0.70368316  0.04728799  1  0.058438  0  0.099055  0.093711  0  0.995983  0
H  H51  1  0.64507118  0.73706849  0.94161111  1  0.032724  0  0.096917  0.095315  0  0.99847  0
H  H52  1  0.60376135  0.38065012  0.30452256  1  0.078907  0  0.103667  0.107111  0  0.979267  0
H  H53  1  0.39610347  0.69537146  0.61941035  1  0.080573  0  0.103713  0.10716  0  0.979089  0
H  H54  1  0.60886393  0.29272792  0.22476495  1  0.114724  0  0.103117  0.105758  0  0.990724  0
H  H55  1  0.39103973  0.77515700  0.70736454  1  0.115147  0  0.102977  0.105824  0  0.990666  0
H  H56  1  0.41279526  0.20798545  0.30261799  1  0.037023  0  0.099076  0.072726  0  1.032931  0
H  H57  1  0.58733712  0.69750505  0.79201326  1  0.03511  0  0.098891  0.072602  0  1.032664  0
H  H58  1  0.39719204  0.12956196  0.20044773  1  0.041481  0  0.098786  0.068011  0  1.04125  0
H  H59  1  0.60290516  0.79965198  0.87042616  1  0.040541  0  0.098623  0.067865  0  1.0412  0
C  C60  1  0.49522978  0.63531212  0.63784414  1  1.571281  0  0.229341  0.597345  0  4.136019  0
C  C61  1  0.50472489  0.36216469  0.36467889  1  1.569855  0  0.229023  0.596774  0  4.136919  0
C  C62  1  0.80685712  0.16073262  0.14759356  1  0.150198  0  -0.000922  -0.1262  0  3.842704  0
C  C63  1  0.19392785  0.35482180  0.34179015  1  -0.04711  0  0.00107  -0.120531  0  3.838039  0
C  C64  1  0.80605185  0.65826222  0.64515488  1  -0.047714  0  0.001102  -0.120645  0  3.838016  0
C  C65  1  0.19311921  0.85241560  0.83928729  1  0.150384  0  -0.001075  -0.126622  0  3.842065  0
C  C66  1  0.11935691  0.31774108  0.30492299  1  0.068047  0  -0.004741  0.027781  0  4.247323  0
C  C67  1  0.88062127  0.69516075  0.68224760  1  0.068905  0  -0.004923  0.0278  0  4.247522  0
C  C68  1  0.11855506  0.81476962  0.80188508  1  -0.414121  0  -0.005162  0.02893  0  4.253816  0
C  C69  1  0.88141913  0.19811134  0.18523833  1  -0.412484  0  -0.005195  0.0286  0  4.254213  0
C  C70  1  0.49678306  0.85820426  0.86003601  1  1.580172  0  0.230817  0.598639  0  4.130188  0
C  C71  1  0.50322965  0.14000867  0.14179699  1  1.580471  0  0.231326  0.599286  0  4.128845  0
C  C72  1  0.03787866  0.27693246  0.26415640  1  -0.070263  0  0.003398  0.001522  0  4.190536  0
C  C73  1  0.96209978  0.73590508  0.72306902  1  -0.070161  0  0.003501  0.001248  0  4.190881  0
C  C74  1  0.03710491  0.77371815  0.76085325  1  0.10491  0  0.003351  0.000488  0  4.192747  0
C  C75  1  0.96287481  0.23913771  0.22630896  1  0.103792  0  0.003277  0.000216  0  4.19236  0
C  C76  1  0.71856969  0.61438742  0.60282440  1  1.654821  0  0.233695  0.656362  0  4.273205  0
C  C77  1  0.28141064  0.39715933  0.38564564  1  1.6555  0  0.233448  0.65604  0  4.273418  0
C  C78  1  0.71942351  0.11591554  0.10455503  1  1.767017  0  0.235701  0.661099  0  4.26293  0
C  C79  1  0.28055158  0.89545960  0.88410285  1  1.767756  0  0.236077  0.661593  0  4.262824  0
C  C80  1  0.50001913  0.39343617  0.60664440  1  1.700097  0  0.238919  0.660473  0  4.255897  0
C  C81  1  0.50000234  0.89407750  0.10595078  1  1.642572  0  0.236467  0.654465  0  4.263444  0
C  C82  1  0.49995648  0.61396515  0.38606636  1  1.651016  0  0.232084  0.657401  0  4.269386  0
C  C83  1  0.49999754  0.11323106  0.88669838  1  1.709935  0  0.236641  0.666681  0  4.255428  0
C  C84  1  0.49994240  0.65755088  0.34247941  1  0.184854  0  -0.006469  -0.134475  0  3.84494  0
C  C85  1  0.50001949  0.85050122  0.14955262  1  0.155691  0  0.00809  -0.115298  0  3.829187  0
C  C86  1  0.49999442  0.15678892  0.84312003  1  0.187567  0  -0.002037  -0.127406  0  3.837086  0
C  C87  1  0.49996067  0.69472243  0.30529710  1  -0.232943  0  -0.005774  0.030171  0  4.257039  0
C  C88  1  0.50001696  0.19399102  0.80597101  1  -0.347237  0  -0.005474  0.027804  0  4.255516  0
C  C89  1  0.49996672  0.73530975  0.26469579  1  -0.006199  0  0.002217  -0.001438  0  4.183421  0
C  C90  1  0.50002212  0.23462539  0.76537235  1  -0.023853  0  0.0033  0.000245  0  4.188961  0
C  C91  1  0.50001292  0.34985456  0.65026293  1  0.184074  0  0.008088  -0.11692  0  3.836954  0
C  C92  1  0.49998754  0.77272642  0.22730945  1  -0.003684  0  0.005844  0.002144  0  4.17611  0
C  C93  1  0.50002863  0.27205117  0.72800428  1  0.010253  0  0.004041  0.000829  0  4.18528  0
C  C94  1  0.50000265  0.81332826  0.18671741  1  -0.198566  0  0.000432  0.031742  0  4.226503  0
C  C95  1  0.50001659  0.31267249  0.68741372  1  -0.215364  0  -0.001579  0.02844  0  4.245082  0
C  C96  1  0.36811181  0.27272078  0.20982981  1  -0.023074  0  -0.016356  0.079322  0  3.943018  0
C  C97  1  0.35553269  0.33501793  0.21555047  1  -0.057838  0  -0.099877  -0.142677  0  3.990134  0
C  C98  1  0.28185974  0.32735681  0.20373705  1  0.012606  0  -0.098139  -0.086677  0  4.044509  0
C  C99  1  0.21846502  0.25637919  0.18522233  1  -0.042827  0  -0.095164  -0.086756  0  4.033633  0
C  C100  1  0.22966842  0.19367413  0.17864914  1  -0.075227  0  -0.090863  -0.073932  0  4.018295  0
C  C101  1  0.30358329  0.20175015  0.19085395  1  -0.031993  0  -0.090926  -0.122551  0  3.96866  0
C  C102  1  0.63172548  0.79016735  0.72706668  1  -0.012101  0  -0.016699  0.082728  0  3.938202  0
C  C103  1  0.64416959  0.78440059  0.66469436  1  -0.013925  0  -0.100047  -0.145539  0  3.989301  0
C  C104  1  0.71780388  0.79623160  0.67223576  1  -0.049356  0  -0.097703  -0.084721  0  4.043946  0
C  C105  1  0.78130643  0.81483363  0.74318410  1  -0.050892  0  -0.094971  -0.086714  0  4.033891  0
C  C106  1  0.77024347  0.82145278  0.80596142  1  -0.071872  0  -0.090716  -0.073733  0  4.017718  0
C  C107  1  0.69635730  0.80922708  0.79801237  1  -0.027277  0  -0.090588  -0.122839  0  3.96705  0
C  C108  1  0.37726227  0.17942139  0.08726043  1  -0.079841  0  -0.015863  0.078677  0  3.939665  0
C  C109  1  0.35668092  0.21641072  0.04201913  1  -0.081173  0  -0.094071  -0.131899  0  3.981705  0
C  C110  1  0.28413151  0.17642896  0.97067398  1  0.056616  0  -0.094624  -0.083328  0  4.046849  0
C  C111  1  0.23027988  0.09737359  0.94194657  1  -0.070361  0  -0.095679  -0.092527  0  4.040868  0
C  C112  1  0.25025317  0.05946449  0.98544160  1  -0.077681  0  -0.096819  -0.077609  0  4.032288  0
C  C113  1  0.32269897  0.10001553  0.05750249  1  0.008392  0  -0.101568  -0.148504  0  3.988544  0
C  C114  1  0.62266701  0.91272348  0.82051441  1  -0.081763  0  -0.016132  0.07854  0  3.939194  0
C  C115  1  0.64317840  0.95793204  0.78346187  1  -0.083417  0  -0.093692  -0.131689  0  3.980057  0
C  C116  1  0.71566501  0.02932187  0.82338204  1  0.05795  0  -0.094729  -0.082572  0  4.045052  0
C  C117  1  0.76951956  0.05813346  0.90245508  1  -0.074269  0  -0.096057  -0.093709  0  4.040793  0
C  C118  1  0.74964703  0.01467189  0.94040497  1  -0.070083  0  -0.096643  -0.07797  0  4.032692  0
C  C119  1  0.67724387  0.94257271  0.89991461  1  0.00475  0  -0.101634  -0.148311  0  3.988813  0
C  C120  1  0.45150914  0.28815560  0.22676220  1  0.011999  0  -0.06849  -0.072571  0  3.7299  0
C  C121  1  0.54835830  0.77321141  0.71176730  1  0.013907  0  -0.068657  -0.073259  0  3.729024  0
C  C122  1  0.45693842  0.23191173  0.16546235  1  -0.01113  0  -0.068695  -0.071176  0  3.728005  0
C  C123  1  0.54299206  0.83452641  0.76807740  1  -0.011838  0  -0.068535  -0.071471  0  3.728829  0
C  C124  1  0.51437458  0.22354919  0.39313694  1  0.025031  0  -0.023199  0.077129  0  3.936798  0
C  C125  1  0.58742469  0.22461807  0.42487053  1  -0.093729  0  -0.10672  -0.126639  0  4.007801  0
C  C126  1  0.61923035  0.22148839  0.49518424  1  -0.112259  0  -0.099923  -0.084292  0  4.03605  0
C  C127  1  0.57823332  0.21671751  0.53522878  1  -0.058347  0  -0.101663  -0.097132  0  4.054248  0
C  C128  1  0.50458795  0.21426241  0.50374372  1  -0.005222  0  -0.104615  -0.092831  0  4.058709  0
C  C129  1  0.47318175  0.21731205  0.43338237  1  -0.066579  0  -0.099181  -0.130092  0  3.993426  0
C  C130  1  0.48590036  0.60697002  0.77657893  1  0.017093  0  -0.023312  0.076393  0  3.938454  0
C  C131  1  0.41283259  0.57510648  0.77546143  1  -0.062006  0  -0.105562  -0.124371  0  4.007841  0
C  C132  1  0.38121406  0.50480810  0.77866891  1  -0.106933  0  -0.100901  -0.086472  0  4.038398  0
C  C133  1  0.42241334  0.46494779  0.78360927  1  -0.044963  0  -0.100574  -0.095604  0  4.054876  0
C  C134  1  0.49604941  0.49653195  0.78606300  1  -0.020432  0  -0.105984  -0.094724  0  4.060949  0
C  C135  1  0.52725377  0.56686249  0.78291163  1  -0.062569  0  -0.09923  -0.130004  0  3.99475  0
C  C136  1  0.46656290  0.09287040  0.26214718  1  -0.01025  0  -0.013628  0.094677  0  3.93022  0
C  C137  1  0.52742533  0.07581612  0.27181864  1  -0.054824  0  -0.107548  -0.128204  0  3.995381  0
C  C138  1  0.52688121  0.01604861  0.29066830  1  -0.014768  0  -0.100059  -0.07908  0  4.032906  0
C  C139  1  0.46501331  0.97154533  0.30018357  1  -0.05078  0  -0.101132  -0.098961  0  4.050466  0
C  C140  1  0.40315021  0.98715026  0.28982930  1  -0.060121  0  -0.097412  -0.081821  0  4.046937  0
C  C141  1  0.40397864  0.04678356  0.27071490  1  -0.055209  0  -0.095536  -0.1351  0  3.983666  0
C  C142  1  0.53371407  0.73797666  0.90725419  1  -0.06416  0  -0.014203  0.093626  0  3.930625  0
C  C143  1  0.47283908  0.72816344  0.92431192  1  -0.040844  0  -0.107497  -0.128037  0  3.99639  0
C  C144  1  0.47351304  0.70933543  0.98411307  1  -0.00493  0  -0.100458  -0.07984  0  4.032597  0
C  C145  1  0.53551643  0.69996641  0.02864028  1  -0.05996  0  -0.100578  -0.097631  0  4.048823  0
C  C146  1  0.59738250  0.71044615  0.01302122  1  -0.059638  0  -0.097563  -0.08304  0  4.048294  0
C  C147  1  0.59642337  0.72953867  0.95335266  1  -0.008623  0  -0.095811  -0.134888  0  3.983103  0
C  C148  1  0.59286691  0.33281996  0.31994368  1  -0.122866  0  -0.097569  -0.04414  0  3.648999  0
C  C149  1  0.40710016  0.68000085  0.66727920  1  -0.125585  0  -0.097828  -0.044567  0  3.649999  0
C  C150  1  0.59286905  0.26990978  0.26181934  1  -0.162286  0  -0.095802  -0.049574  0  3.627529  0
C  C151  1  0.40712924  0.73814151  0.73019436  1  -0.15879  0  -0.095527  -0.048888  0  3.627321  0
C  C152  1  0.47401065  0.22266543  0.31490591  1  0.016184  0  -0.079218  -0.073909  0  3.759857  0
C  C153  1  0.52612046  0.68517188  0.77739275  1  0.018419  0  -0.07931  -0.073777  0  3.759634  0
C  C154  1  0.46172013  0.15819113  0.24478797  1  -0.003218  0  -0.075432  -0.064631  0  3.729406  0
C  C155  1  0.53841318  0.75528410  0.84187067  1  -0.001169  0  -0.075031  -0.064042  0  3.728842  0
C  C156  1  0.50834684  0.30054956  0.31090228  1  0.025834  0  -0.010692  -0.034397  0  3.736893  0
C  C157  1  0.49163593  0.68909794  0.69947732  1  0.025808  0  -0.010506  -0.034683  0  3.737473  0
C  C158  1  0.50547529  0.19660748  0.20654028  1  0.031548  0  -0.008677  -0.03384  0  3.692618  0
C  C159  1  0.49456010  0.79347198  0.80345277  1  0.029271  0  -0.008748  -0.034355  0  3.693766  0
I  I160  1  0.69596693  0.40177385  0.44032573  1  0.044008  0  0.032943  -0.066247  0  1.436036  0
I  I161  1  0.30406482  0.55957972  0.59840681  1  0.043999  0  0.033032  -0.066181  0  1.436223  0
I  I162  1  0.69406503  0.25017890  0.30607749  1  0.032629  0  0.052895  -0.049934  0  1.468427  0
I  I163  1  0.30604541  0.69382579  0.75006367  1  0.031733  0  0.052927  -0.050181  0  1.468094  0
O  O164  1  0.50000165  0.50409369  0.49593120  1  -1.225023  0  -0.571769  -1.033204  0  2.514351  0
O  O165  1  0.54369574  0.43110170  0.37416228  1  -1.178159  0  -0.315983  -0.55463  0  2.411515  0
O  O166  1  0.45787667  0.06818757  0.11856204  1  -1.173085  0  -0.295773  -0.529582  0  2.455007  0
O  O167  1  0.54039001  0.60877858  0.66084895  1  -1.166973  0  -0.295287  -0.525923  0  2.440183  0
O  O168  1  0.45961769  0.33915651  0.39124673  1  -1.166611  0  -0.295062  -0.525552  0  2.440775  0
O  O169  1  0.54215142  0.88145430  0.93185216  1  -1.17312  0  -0.295556  -0.529247  0  2.455412  0
O  O170  1  0.45501108  0.88568138  0.82965928  1  -1.175558  0  -0.312083  -0.544361  0  2.379207  0
O  O171  1  0.54493829  0.17036046  0.11426746  1  -1.17649  0  -0.312313  -0.544722  0  2.379077  0
O  O172  1  0.45620511  0.62579959  0.56891408  1  -1.178973  0  -0.316014  -0.5546  0  2.411627  0
O  O173  1  0.68638099  0.60062921  0.64284765  1  -1.1425  0  -0.297394  -0.519417  0  2.294214  0
O  O174  1  0.31360271  0.35714637  0.39940596  1  -1.142549  0  -0.29727  -0.519289  0  2.294657  0
O  O175  1  0.68730099  0.04277719  0.08040665  1  -1.154929  0  -0.300136  -0.523934  0  2.287385  0
O  O176  1  0.31268487  0.91959910  0.95722435  1  -1.155724  0  -0.300117  -0.523914  0  2.287799  0
O  O177  1  0.49999276  0.00410949  0.99590006  1  -1.222811  0  -0.572034  -1.037013  0  2.518204  0
O  O178  1  0.55885418  0.46368495  0.64284879  1  -1.145681  0  -0.297302  -0.522488  0  2.282678  0
O  O179  1  0.44122376  0.35723967  0.53641260  1  -1.145851  0  -0.29704  -0.522014  0  2.284191  0
O  O180  1  0.56183680  0.92147711  0.09915388  1  -1.139138  0  -0.299536  -0.522966  0  2.276958  0
O  O181  1  0.43820072  0.90090300  0.07857173  1  -1.140364  0  -0.299408  -0.522782  0  2.278178  0
O  O182  1  0.45646916  0.61028534  0.41637879  1  -1.145748  0  -0.303664  -0.525567  0  2.271793  0
O  O183  1  0.54344256  0.58365830  0.38972906  1  -1.145043  0  -0.303997  -0.526095  0  2.271759  0
O  O184  1  0.45290669  0.03979742  0.84713468  1  -1.130565  0  -0.302728  -0.526805  0  2.274315  0
O  O185  1  0.54707099  0.15279331  0.96011703  1  -1.14993  0  -0.302535  -0.526694  0  2.274785  0
O  O186  1  0.68301266  0.59411101  0.53026079  1  -1.136962  0  -0.303548  -0.539873  0  2.30665  0
O  O187  1  0.31696213  0.46973698  0.40590521  1  -1.137204  0  -0.303531  -0.539785  0  2.305906  0
O  O188  1  0.68370209  0.15375083  0.09541352  1  -1.158915  0  -0.301506  -0.535452  0  2.301424  0
O  O189  1  0.31627172  0.90460378  0.84626284  1  -1.158364  0  -0.301855  -0.535899  0  2.301367  0
