# generated using pymatgen
data_LiH6C3BrN2
_symmetry_space_group_name_H-M   'P 1'
_cell_length_a   4.23087117
_cell_length_b   8.55554014
_cell_length_c   17.23730208
_cell_angle_alpha   89.99991778
_cell_angle_beta   90.00044452
_cell_angle_gamma   99.50388666
_symmetry_Int_Tables_number   1
_chemical_formula_structural   LiH6C3BrN2
_chemical_formula_sum   'Li4 H24 C12 Br4 N8'
_cell_volume   615.38129265
_cell_formula_units_Z   4
loop_
 _symmetry_equiv_pos_site_id
 _symmetry_equiv_pos_as_xyz
  1  'x, y, z'
loop_
 _atom_site_type_symbol
 _atom_site_label
 _atom_site_symmetry_multiplicity
 _atom_site_fract_x
 _atom_site_fract_y
 _atom_site_fract_z
 _atom_site_occupancy
 _atom_site_hle17_bader_spin_density
 _atom_site_hle17_ddec_charge
 _atom_site_hle17_ddec_spin_density
 _atom_site_hle17_ddec_sum_bond_order
 _atom_site_hle17_magmom
 _atom_site_hse06_10hf_bader_spin_density
 _atom_site_hse06_10hf_ddec_charge
 _atom_site_hse06_10hf_ddec_spin_density
 _atom_site_hse06_10hf_ddec_sum_bond_order
 _atom_site_hse06_10hf_magmom
 _atom_site_hse06_bader_spin_density
 _atom_site_hse06_ddec_charge
 _atom_site_hse06_ddec_spin_density
 _atom_site_hse06_ddec_sum_bond_order
 _atom_site_hse06_magmom
 _atom_site_pbe_bader_spin_density
 _atom_site_pbe_cm5_charge
 _atom_site_pbe_ddec_charge
 _atom_site_pbe_ddec_spin_density
 _atom_site_pbe_ddec_sum_bond_order
 _atom_site_pbe_magmom
Li  Li0  1  0.73715954  0.93578921  0.56245672  1  0  0.806882  0  0.458482  0  0  0.758476  0  0.568515  0  0  0.767818  0  0.554101  0  0  0.310969  0.751825  0  0.578757  0
Li  Li1  1  0.26283762  0.56420514  0.06245240  1  0  0.806906  0  0.458457  0  0  0.758512  0  0.568473  0  0  0.767852  0  0.55406  0  0  0.310961  0.751862  0  0.578719  0
Li  Li2  1  0.26284072  0.06420335  0.43754550  1  0  0.806892  0  0.458495  0  0  0.758461  0  0.568575  0  0  0.767804  0  0.554159  0  0  0.310954  0.751809  0  0.578817  0
Li  Li3  1  0.73715556  0.43578744  0.93754461  1  0  0.806879  0  0.458494  0  0  0.758466  0  0.568541  0  0  0.767808  0  0.554126  0  0  0.310955  0.751816  0  0.578787  0
H  H4  1  0.78561466  0.11942672  0.84994405  1  0  0.10436  0  0.949431  0  0  0.121911  0  1.017  0  0  0.122901  0  1.01687  0  0  0.108361  0.121108  0  1.017201  0
H  H5  1  0.21437946  0.38057239  0.34994346  1  0  0.104342  0  0.949396  0  0  0.121885  0  1.016977  0  0  0.122879  0  1.016848  0  0  0.10836  0.12108  0  1.017178  0
H  H6  1  0.21437032  0.88056945  0.15005585  1  0  0.104381  0  0.949332  0  0  0.121914  0  1.016923  0  0  0.12291  0  1.016794  0  0  0.108332  0.121111  0  1.017127  0
H  H7  1  0.78562135  0.61942846  0.65005354  1  0  0.104402  0  0.949436  0  0  0.121929  0  1.017014  0  0  0.12292  0  1.016883  0  0  0.10834  0.121125  0  1.017216  0
H  H8  1  0.72361470  0.95677240  0.91696056  1  0  0.109114  0  0.95067  0  0  0.12705  0  1.015348  0  0  0.128389  0  1.014837  0  0  0.094572  0.125974  0  1.01583  0
H  H9  1  0.27640229  0.54323367  0.41695743  1  0  0.109131  0  0.950734  0  0  0.12705  0  1.015425  0  0  0.12839  0  1.014913  0  0  0.094594  0.125979  0  1.015898  0
H  H10  1  0.27639735  0.04324028  0.08303877  1  0  0.109146  0  0.950754  0  0  0.127086  0  1.015403  0  0  0.128428  0  1.01489  0  0  0.094569  0.12601  0  1.015886  0
H  H11  1  0.72360601  0.45676834  0.58303899  1  0  0.109165  0  0.950738  0  0  0.1271  0  1.015383  0  0  0.12844  0  1.01487  0  0  0.094581  0.126029  0  1.015857  0
H  H12  1  0.41293540  0.07084121  0.89931338  1  0  0.111642  0  0.950656  0  0  0.130013  0  1.014643  0  0  0.131262  0  1.014427  0  0  0.099421  0.129033  0  1.014876  0
H  H13  1  0.58707843  0.42916256  0.39931348  1  0  0.111629  0  0.950617  0  0  0.130023  0  1.014575  0  0  0.131275  0  1.014358  0  0  0.099428  0.129045  0  1.014804  0
H  H14  1  0.58708206  0.92916670  0.10068652  1  0  0.111643  0  0.950646  0  0  0.130034  0  1.014601  0  0  0.131287  0  1.014385  0  0  0.099426  0.129055  0  1.014835  0
H  H15  1  0.41293376  0.57083706  0.60068584  1  0  0.11168  0  0.950655  0  0  0.130054  0  1.014612  0  0  0.131303  0  1.014396  0  0  0.099431  0.129075  0  1.014843  0
H  H16  1  0.17093668  0.70985409  0.77457008  1  0  0.10169  0  0.939709  0  0  0.122497  0  1.000384  0  0  0.122966  0  1.001068  0  0  0.10969  0.122106  0  0.999936  0
H  H17  1  0.82906439  0.79014614  0.27456437  1  0  0.101698  0  0.939839  0  0  0.122496  0  1.000508  0  0  0.122964  0  1.001193  0  0  0.10969  0.122104  0  1.000059  0
H  H18  1  0.82906885  0.29014675  0.22543679  1  0  0.101668  0  0.939765  0  0  0.122451  0  1.000461  0  0  0.12292  0  1.001147  0  0  0.109686  0.122059  0  1.00001  0
H  H19  1  0.17094003  0.20985826  0.72543438  1  0  0.101686  0  0.939748  0  0  0.12248  0  1.000433  0  0  0.122947  0  1.001119  0  0  0.109696  0.122088  0  0.999985  0
H  H20  1  0.06592836  0.79916818  0.86275080  1  0  0.105701  0  0.960049  0  0  0.124067  0  1.024448  0  0  0.124985  0  1.024714  0  0  0.10221  0.123313  0  1.024342  0
H  H21  1  0.93407182  0.70082847  0.36274709  1  0  0.105727  0  0.960015  0  0  0.124123  0  1.024391  0  0  0.125047  0  1.024652  0  0  0.102236  0.12337  0  1.024281  0
H  H22  1  0.93406842  0.20082795  0.13725317  1  0  0.105699  0  0.959999  0  0  0.124092  0  1.024393  0  0  0.125015  0  1.024652  0  0  0.102229  0.123338  0  1.024286  0
H  H23  1  0.06592940  0.29917357  0.63725223  1  0  0.105701  0  0.960063  0  0  0.124091  0  1.024436  0  0  0.125014  0  1.024698  0  0  0.102221  0.123337  0  1.024327  0
H  H24  1  0.38536007  0.68732211  0.86242337  1  0  0.097531  0  0.959135  0  0  0.110762  0  1.036397  0  0  0.11202  0  1.035878  0  0  0.107743  0.109749  0  1.036915  0
H  H25  1  0.61464412  0.81267928  0.36242013  1  0  0.097592  0  0.959039  0  0  0.110813  0  1.036307  0  0  0.112073  0  1.035782  0  0  0.107753  0.109795  0  1.036829  0
H  H26  1  0.61463879  0.31267995  0.13757886  1  0  0.097542  0  0.959034  0  0  0.110787  0  1.036279  0  0  0.112049  0  1.035755  0  0  0.107745  0.10977  0  1.036803  0
H  H27  1  0.38535946  0.18732275  0.63757920  1  0  0.097562  0  0.95904  0  0  0.110781  0  1.036311  0  0  0.112042  0  1.035785  0  0  0.107746  0.109766  0  1.036829  0
C  C28  1  0.61189845  0.92929429  0.73974943  1  0  0.449525  0  3.901203  0  0  0.409384  0  4.172824  0  0  0.430953  0  4.186695  0  0  0.31825  0.394804  0  4.163283  0
C  C29  1  0.38807642  0.57070843  0.23974360  1  0  0.449744  0  3.901286  0  0  0.409614  0  4.172892  0  0  0.431181  0  4.186756  0  0  0.318407  0.395035  0  4.163362  0
C  C30  1  0.38808389  0.07070784  0.26025338  1  0  0.449732  0  3.901181  0  0  0.409598  0  4.17278  0  0  0.431161  0  4.186648  0  0  0.318368  0.395016  0  4.163239  0
C  C31  1  0.61192883  0.42929834  0.76025398  1  0  0.449596  0  3.901554  0  0  0.409475  0  4.173155  0  0  0.43104  0  4.18702  0  0  0.318308  0.394898  0  4.163627  0
C  C32  1  0.61045603  0.02140087  0.87249907  1  0  -0.165797  0  3.614719  0  0  -0.265906  0  3.858679  0  0  -0.263116  0  3.867142  0  0  -0.130664  -0.267518  0  3.852952  0
C  C33  1  0.38953878  0.47859825  0.37249817  1  0  -0.165724  0  3.614724  0  0  -0.26583  0  3.858683  0  0  -0.263048  0  3.867151  0  0  -0.130662  -0.267446  0  3.852941  0
C  C34  1  0.38953922  0.97859764  0.12749851  1  0  -0.165793  0  3.614652  0  0  -0.265902  0  3.858595  0  0  -0.263128  0  3.867065  0  0  -0.130612  -0.267515  0  3.852872  0
C  C35  1  0.61046438  0.52140260  0.62749941  1  0  -0.16597  0  3.614774  0  0  -0.266051  0  3.858714  0  0  -0.263262  0  3.867175  0  0  -0.130664  -0.267665  0  3.852975  0
C  C36  1  0.26450518  0.76848455  0.82822123  1  0  -0.157938  0  3.624372  0  0  -0.258911  0  3.87058  0  0  -0.255914  0  3.879538  0  0  -0.125168  -0.260641  0  3.864409  0
C  C37  1  0.73549921  0.73152040  0.32821596  1  0  -0.157965  0  3.624315  0  0  -0.25894  0  3.870474  0  0  -0.255949  0  3.879438  0  0  -0.125145  -0.260669  0  3.864291  0
C  C38  1  0.73549451  0.23151987  0.17178447  1  0  -0.157836  0  3.624192  0  0  -0.258811  0  3.870353  0  0  -0.255821  0  3.879319  0  0  -0.125121  -0.260541  0  3.864179  0
C  C39  1  0.26450243  0.26848282  0.67178162  1  0  -0.157969  0  3.624272  0  0  -0.258936  0  3.870452  0  0  -0.255945  0  3.879419  0  0  -0.125164  -0.260666  0  3.864276  0
Br  Br40  1  0.18975472  0.80548879  0.51220592  1  0  -0.802773  0  0.752626  0  0  -0.751587  0  0.981444  0  0  -0.762036  0  0.960172  0  0  -0.272822  -0.743855  0  0.996407  0
Br  Br41  1  0.81023853  0.69450558  0.01220604  1  0  -0.802791  0  0.752644  0  0  -0.7516  0  0.981429  0  0  -0.762048  0  0.96016  0  0  -0.272818  -0.743852  0  0.996369  0
Br  Br42  1  0.81025262  0.19450373  0.48779457  1  0  -0.802779  0  0.752638  0  0  -0.751585  0  0.981457  0  0  -0.762035  0  0.960186  0  0  -0.272813  -0.743854  0  0.99642  0
Br  Br43  1  0.18975507  0.30548819  0.98779387  1  0  -0.802759  0  0.752617  0  0  -0.751596  0  0.981457  0  0  -0.762043  0  0.960184  0  0  -0.272805  -0.743857  0  0.996412  0
N  N44  1  0.71628508  0.94099148  0.67632835  1  0  -0.635865  0  2.686984  0  0  -0.605743  0  2.941537  0  0  -0.620756  0  2.946707  0  0  -0.447186  -0.595725  0  2.938179  0
N  N45  1  0.28370074  0.55900764  0.17632523  1  0  -0.636039  0  2.687161  0  0  -0.605935  0  2.941726  0  0  -0.620945  0  2.946891  0  0  -0.447286  -0.595925  0  2.938378  0
N  N46  1  0.28369991  0.05900469  0.32367388  1  0  -0.635985  0  2.686896  0  0  -0.605865  0  2.941458  0  0  -0.620875  0  2.946624  0  0  -0.447232  -0.595848  0  2.938098  0
N  N47  1  0.71630118  0.44098965  0.82366771  1  0  -0.635937  0  2.687507  0  0  -0.605822  0  2.942055  0  0  -0.620831  0  2.947217  0  0  -0.44724  -0.595813  0  2.938709  0
N  N48  1  0.48716470  0.91365866  0.80913024  1  0  -0.124076  0  3.541212  0  0  -0.022008  0  3.770075  0  0  -0.039468  0  3.790668  0  0  -0.275379  -0.010169  0  3.755686  0
N  N49  1  0.51283035  0.58634159  0.30912755  1  0  -0.124257  0  3.541262  0  0  -0.022203  0  3.770149  0  0  -0.039664  0  3.790743  0  0  -0.275525  -0.010361  0  3.755759  0
N  N50  1  0.51283055  0.08633985  0.19087314  1  0  -0.12431  0  3.541386  0  0  -0.022258  0  3.770279  0  0  -0.039713  0  3.790871  0  0  -0.275528  -0.010418  0  3.755889  0
N  N51  1  0.48717087  0.41366046  0.69086888  1  0  -0.124023  0  3.54095  0  0  -0.021988  0  3.769814  0  0  -0.039448  0  3.790409  0  0  -0.275398  -0.010146  0  3.755425  0
