# generated using pymatgen
data_ZnH19C26N3O4
_symmetry_space_group_name_H-M   'P 1'
_cell_length_a   17.17357736
_cell_length_b   18.25246287
_cell_length_c   19.66301259
_cell_angle_alpha   89.98173757
_cell_angle_beta   91.66351622
_cell_angle_gamma   95.18993798
_symmetry_Int_Tables_number   1
_chemical_formula_structural   ZnH19C26N3O4
_chemical_formula_sum   'Zn2 H38 C52 N6 O8'
_cell_volume   6135.69729292
_cell_formula_units_Z   2
loop_
 _symmetry_equiv_pos_site_id
 _symmetry_equiv_pos_as_xyz
  1  'x, y, z'
loop_
 _atom_site_type_symbol
 _atom_site_label
 _atom_site_symmetry_multiplicity
 _atom_site_fract_x
 _atom_site_fract_y
 _atom_site_fract_z
 _atom_site_occupancy
 _atom_site_pbe_bader_charge
 _atom_site_pbe_bader_spin_density
 _atom_site_pbe_cm5_charge
 _atom_site_pbe_ddec_charge
 _atom_site_pbe_ddec_spin_density
 _atom_site_pbe_ddec_sum_bond_order
 _atom_site_pbe_magmom
Zn  Zn0  1  0.49674683  0.42439674  0.49750501  1  1.279652  0  0.662553  0.813643  0  2.440516  0
Zn  Zn1  1  0.50118807  0.57687689  0.49756195  1  1.284265  0  0.662141  0.812524  0  2.438702  0
H  H2  1  0.73866089  0.40055240  0.52086854  1  0.080514  0  0.095388  0.102026  0  1.021085  0
H  H3  1  0.58707913  0.83761973  0.57832209  1  0.06616  0  0.111142  0.11554  0  0.99731  0
H  H4  1  0.41460085  0.30012199  0.42205681  1  0.131688  0  0.130521  0.10655  0  0.967748  0
H  H5  1  0.58293389  0.69996238  0.57449655  1  0.101725  0  0.130444  0.107063  0  0.969211  0
H  H6  1  0.48020936  0.06639782  0.38996599  1  0.056533  0  0.107015  0.106286  0  0.995075  0
H  H7  1  0.51906692  0.93502024  0.60774339  1  0.07394  0  0.107217  0.107052  0  0.995312  0
H  H8  1  0.47655081  0.93101482  0.39058784  1  0.089034  0  0.107246  0.106725  0  0.994136  0
H  H9  1  0.52281196  0.07040731  0.60711286  1  0.055007  0  0.107215  0.106795  0  0.994833  0
H  H10  1  0.88538286  0.40403770  0.52513114  1  0.050509  0  0.097013  0.094729  0  1.028556  0
H  H11  1  0.11670621  0.59546899  0.52717334  1  0.072295  0  0.097056  0.095115  0  1.027522  0
H  H12  1  0.24268930  0.36533093  0.48363244  1  0.081047  0  0.098467  0.10799  0  1.036991  0
H  H13  1  0.26147888  0.59954358  0.50910762  1  0.084745  0  0.096333  0.104517  0  1.017214  0
H  H14  1  0.75379162  0.63561315  0.53755456  1  0.092948  0  0.098744  0.108315  0  1.03712  0
H  H15  1  0.49585503  0.61616027  0.71412794  1  0.083099  0  0.100785  0.103491  0  1.006498  0
H  H16  1  0.50349964  0.38447027  0.28152000  1  0.096637  0  0.10103  0.104641  0  1.006932  0
H  H17  1  0.50178642  0.61707078  0.84098394  1  0.058275  0  0.097432  0.094912  0  1.010339  0
H  H18  1  0.49942390  0.38287407  0.15470832  1  0.048481  0  0.097181  0.09423  0  1.010985  0
H  H19  1  0.48602040  0.38005981  0.84067846  1  0.049096  0  0.09738  0.094979  0  1.009988  0
H  H20  1  0.51407557  0.61980425  0.15378003  1  0.033166  0  0.097159  0.094593  0  1.009956  0
H  H21  1  0.41362988  0.40470620  0.93572770  1  0.06347  0  0.099942  0.099022  0  1.005464  0
H  H22  1  0.58810550  0.59475901  0.05931656  1  0.01715  0  0.099759  0.098679  0  1.004695  0
H  H23  1  0.02891324  0.35160548  0.50846546  1  0.491545  0  0.305821  0.23762  0  0.999665  0
H  H24  1  0.41852634  0.40604929  0.06118231  1  0.064958  0  0.099388  0.098075  0  1.006215  0
H  H25  1  0.06459347  0.23353882  0.49061525  1  0.054602  0  0.107273  0.110846  0  0.978198  0
H  H26  1  0.16042667  0.26179333  0.52287369  1  0.066259  0  0.098295  0.099174  0  0.984439  0
H  H27  1  0.13635210  0.27432620  0.43502756  1  0.020647  0  0.094363  0.091942  0  0.986976  0
H  H28  1  0.97011659  0.64858482  0.54400125  1  0.446002  0  0.305408  0.237865  0  0.998817  0
H  H29  1  0.93208090  0.76717246  0.54922768  1  0.040779  0  0.106993  0.111186  0  0.978108  0
H  H30  1  0.84430003  0.73277057  0.58858361  1  0.047141  0  0.096629  0.096391  0  0.985655  0
H  H31  1  0.84878521  0.73420145  0.49806724  1  0.035866  0  0.096013  0.094753  0  0.98634  0
H  H32  1  0.47863237  0.38063633  0.71383279  1  0.084424  0  0.101222  0.10416  0  1.005241  0
H  H33  1  0.51932155  0.62003693  0.28060948  1  0.090831  0  0.10128  0.104741  0  1.004698  0
H  H34  1  0.58329070  0.59333198  0.93384251  1  0.035794  0  0.099399  0.097932  0  1.005405  0
H  H35  1  0.58839720  0.31667542  0.57231149  1  0.136232  0  0.131366  0.10727  0  0.967788  0
H  H36  1  0.40948403  0.68575210  0.42392982  1  0.116852  0  0.131855  0.107293  0  0.964256  0
H  H37  1  0.59372149  0.17978953  0.57623669  1  0.089464  0  0.112138  0.117934  0  0.993857  0
H  H38  1  0.40469907  0.82265953  0.42135612  1  0.074793  0  0.111858  0.117247  0  0.9938  0
H  H39  1  0.41096709  0.16250815  0.41962042  1  0.073884  0  0.111482  0.116314  0  0.996869  0
C  C40  1  0.51232207  0.50255026  0.36503688  1  1.51191  0  0.212653  0.592764  0  4.172665  0
C  C41  1  0.51531530  0.56844593  0.25231435  1  -0.002958  0  -0.08695  -0.088373  0  3.996929  0
C  C42  1  0.48696310  0.49840089  0.70643820  1  -0.072128  0  -0.019704  -0.031966  0  3.966366  0
C  C43  1  0.51162936  0.50228669  0.28877850  1  0.082406  0  -0.02022  -0.033348  0  3.964362  0
C  C44  1  0.45302607  0.44584991  0.96266372  1  -0.046436  0  -0.093873  -0.1306  0  4.005498  0
C  C45  1  0.54871721  0.55359937  0.03238627  1  0.042324  0  -0.093422  -0.13012  0  4.003765  0
C  C46  1  0.45580942  0.44661426  0.03343885  1  -0.044564  0  -0.094004  -0.130182  0  4.006768  0
C  C47  1  0.54596601  0.55280596  0.96160356  1  -0.107947  0  -0.0935  -0.129386  0  4.004644  0
C  C48  1  0.50365687  0.50054214  0.06988879  1  -0.031136  0  -0.010937  0.06316  0  4.012585  0
C  C49  1  0.49795680  0.49899753  0.92516251  1  0.001237  0  -0.010412  0.064411  0  4.011092  0
C  C50  1  0.55021641  0.27974723  0.53976356  1  0.488951  0  0.062915  0.108194  0  3.92157  0
C  C51  1  0.48530705  0.49846802  0.63023894  1  1.571781  0  0.212533  0.591525  0  4.176456  0
C  C52  1  0.44782003  0.72214359  0.45682429  1  0.547829  0  0.063214  0.108781  0  3.92125  0
C  C53  1  0.55233316  0.20385682  0.54170985  1  -0.015472  0  -0.08073  -0.183059  0  3.955419  0
C  C54  1  0.44598969  0.79806768  0.45561378  1  -0.071715  0  -0.080768  -0.182491  0  3.955065  0
C  C55  1  0.34573115  0.48547390  0.48586413  1  1.579024  0  0.212489  0.592249  0  4.155214  0
C  C56  1  0.65159969  0.51579260  0.52002946  1  1.535158  0  0.213293  0.592059  0  4.155219  0
C  C57  1  0.50232327  0.15915503  0.49800553  1  -0.021661  0  0.012589  0.11002  0  4.001252  0
C  C58  1  0.49625379  0.84219670  0.49959565  1  -0.030327  0  0.013687  0.11073  0  4.001712  0
C  C59  1  0.45209896  0.19441134  0.45373020  1  0.014714  0  -0.081981  -0.183305  0  3.961239  0
C  C60  1  0.54599964  0.80626639  0.54377375  1  0.005038  0  -0.081924  -0.182329  0  3.958625  0
C  C61  1  0.45323771  0.27051882  0.45491966  1  0.446127  0  0.062372  0.108304  0  3.925741  0
C  C62  1  0.49770574  0.56497180  0.81337212  1  -0.035102  0  -0.096161  -0.141529  0  4.00087  0
C  C63  1  0.54460016  0.73013905  0.54184182  1  0.499155  0  0.060986  0.107069  0  3.923444  0
C  C64  1  0.48759476  0.03762982  0.43801495  1  -0.067198  0  -0.085255  -0.120705  0  3.98518  0
C  C65  1  0.51172404  0.96376910  0.55969771  1  -0.012386  0  -0.084978  -0.121546  0  3.985178  0
C  C66  1  0.48550238  0.96132429  0.43837257  1  -0.040235  0  -0.084254  -0.11988  0  3.983152  0
C  C67  1  0.51384027  0.04008075  0.55933948  1  -0.038016  0  -0.084394  -0.119853  0  3.984117  0
C  C68  1  0.49752674  0.92305879  0.49926134  1  -0.003866  0  -0.005375  0.061875  0  4.00232  0
C  C69  1  0.50163538  0.07833698  0.49847811  1  -0.021327  0  -0.004214  0.062621  0  4.002028  0
C  C70  1  0.25899712  0.48236513  0.49457261  1  -0.057466  0  -0.015774  -0.002317  0  3.985944  0
C  C71  1  0.73890682  0.51832607  0.52852587  1  0.105467  0  -0.017088  -0.00157  0  3.986132  0
C  C72  1  0.22426837  0.54802089  0.50713712  1  0.000761  0  -0.107567  -0.129315  0  4.036694  0
C  C73  1  0.50294405  0.43513746  0.18206021  1  -0.057863  0  -0.095742  -0.139756  0  4.00038  0
C  C74  1  0.77532778  0.45216258  0.52622551  1  -0.066235  0  -0.107515  -0.129332  0  4.040971  0
C  C75  1  0.14484105  0.54557705  0.51735365  1  -0.011015  0  -0.09662  -0.138355  0  4.032092  0
C  C76  1  0.85594815  0.45422689  0.52860657  1  -0.046596  0  -0.097103  -0.138388  0  4.035298  0
C  C77  1  0.09758832  0.47836771  0.51534240  1  0.372818  0  0.076773  0.073511  0  4.045128  0
C  C78  1  0.90277755  0.52152505  0.53385683  1  0.453632  0  0.076145  0.07202  0  4.04663  0
C  C79  1  0.13275737  0.41121975  0.50335877  1  0.475405  0  0.109891  0.182306  0  4.047222  0
C  C80  1  0.86606259  0.58880522  0.53960283  1  0.428734  0  0.109877  0.183926  0  4.048393  0
C  C81  1  0.21385241  0.41496093  0.49276258  1  -0.054289  0  -0.106004  -0.217568  0  3.956673  0
C  C82  1  0.78370782  0.58558205  0.53591837  1  -0.072617  0  -0.106514  -0.220257  0  3.958532  0
C  C83  1  0.49389761  0.56486534  0.74264728  1  -0.034973  0  -0.087853  -0.088463  0  3.999211  0
C  C84  1  0.49433054  0.49861282  0.85008221  1  -0.045866  0  -0.006879  0.073396  0  4.007358  0
C  C85  1  0.50566231  0.43564464  0.25281909  1  -0.021357  0  -0.087757  -0.090137  0  3.999756  0
C  C86  1  0.11364105  0.27603273  0.48697209  1  0.299853  0  -0.129233  -0.19948  0  4.013836  0
C  C87  1  0.88251553  0.72493993  0.54551325  1  0.311842  0  -0.13046  -0.201036  0  4.014533  0
C  C88  1  0.50658364  0.50126870  0.14498597  1  0.010417  0  -0.007258  0.073495  0  4.00693  0
C  C89  1  0.48702907  0.43212498  0.81324937  1  -0.02228  0  -0.09615  -0.141429  0  3.999094  0
C  C90  1  0.51296925  0.56793644  0.18152682  1  -0.124964  0  -0.095464  -0.140587  0  4.000283  0
C  C91  1  0.48347642  0.43200820  0.74248673  1  -0.047165  0  -0.086905  -0.087822  0  3.995263  0
N  N92  1  0.01715741  0.47035563  0.52253771  1  -0.561404  0  -0.175886  -0.160119  0  3.373243  0
N  N93  1  0.98381269  0.52965698  0.53107737  1  -0.62833  0  -0.174828  -0.159075  0  3.364758  0
N  N94  1  0.50136832  0.31238385  0.49723681  1  -1.229636  0  -0.317248  -0.189618  0  3.509803  0
N  N95  1  0.49659043  0.68888942  0.49892913  1  -1.240518  0  -0.316477  -0.189552  0  3.510617  0
N  N96  1  0.08674342  0.34638679  0.50283605  1  -1.264085  0  -0.441359  -0.27224  0  3.654218  0
N  N97  1  0.91188363  0.65342143  0.54718452  1  -1.216795  0  -0.441274  -0.273837  0  3.650739  0
O  O98  1  0.50978300  0.44026736  0.39465512  1  -1.172945  0  -0.321792  -0.554086  0  2.326298  0
O  O99  1  0.48935295  0.56094277  0.60092645  1  -1.165239  0  -0.321761  -0.554319  0  2.326739  0
O  O100  1  0.51467928  0.56488205  0.39461751  1  -1.166382  0  -0.321275  -0.550853  0  2.317473  0
O  O101  1  0.48086528  0.43617715  0.60045089  1  -1.161924  0  -0.322412  -0.551819  0  2.320041  0
O  O102  1  0.37679787  0.42475420  0.48237437  1  -1.16974  0  -0.322909  -0.551653  0  2.305075  0
O  O103  1  0.62086065  0.57669137  0.51538334  1  -1.155952  0  -0.321342  -0.549335  0  2.304893  0
O  O104  1  0.38248599  0.54937644  0.48395251  1  -1.174063  0  -0.320874  -0.556436  0  2.334283  0
O  O105  1  0.61446666  0.45202676  0.51692695  1  -1.171917  0  -0.318984  -0.555154  0  2.3396  0
