# generated using pymatgen
data_CdH10C12(NO2)2
_symmetry_space_group_name_H-M   'P 1'
_cell_length_a   8.19352800
_cell_length_b   10.24209360
_cell_length_c   16.14549580
_cell_angle_alpha   102.16134849
_cell_angle_beta   90.01750354
_cell_angle_gamma   113.56722464
_symmetry_Int_Tables_number   1
_chemical_formula_structural   CdH10C12(NO2)2
_chemical_formula_sum   'Cd4 H40 C48 N8 O16'
_cell_volume   1208.61538647
_cell_formula_units_Z   4
loop_
 _symmetry_equiv_pos_site_id
 _symmetry_equiv_pos_as_xyz
  1  'x, y, z'
loop_
 _atom_site_type_symbol
 _atom_site_label
 _atom_site_symmetry_multiplicity
 _atom_site_fract_x
 _atom_site_fract_y
 _atom_site_fract_z
 _atom_site_occupancy
 _atom_site_hle17_bader_spin_density
 _atom_site_hle17_ddec_charge
 _atom_site_hle17_ddec_spin_density
 _atom_site_hle17_ddec_sum_bond_order
 _atom_site_hle17_magmom
 _atom_site_hse06_10hf_bader_spin_density
 _atom_site_hse06_10hf_ddec_charge
 _atom_site_hse06_10hf_ddec_spin_density
 _atom_site_hse06_10hf_ddec_sum_bond_order
 _atom_site_hse06_10hf_magmom
 _atom_site_hse06_bader_spin_density
 _atom_site_hse06_ddec_charge
 _atom_site_hse06_ddec_spin_density
 _atom_site_hse06_ddec_sum_bond_order
 _atom_site_hse06_magmom
 _atom_site_pbe_bader_spin_density
 _atom_site_pbe_cm5_charge
 _atom_site_pbe_ddec_charge
 _atom_site_pbe_ddec_spin_density
 _atom_site_pbe_ddec_sum_bond_order
 _atom_site_pbe_magmom
Cd  Cd0  1  0.65454829  0.00011897  0.24994540  1  0  1.18213  0  1.710608  0  0  1.003686  0  2.155931  0  0  1.051801  0  2.108705  0  0  0.811401  0.96823  0  2.189436  0
Cd  Cd1  1  0.34545191  0.99988103  0.75005442  1  0  1.182138  0  1.710618  0  0  1.003688  0  2.155948  0  0  1.051801  0  2.108721  0  0  0.811393  0.96823  0  2.189454  0
Cd  Cd2  1  0.15202193  0.99987402  0.24999345  1  0  1.190735  0  1.565621  0  0  1.00284  0  2.00966  0  0  1.069285  0  1.94697  0  0  0.745597  0.955734  0  2.052362  0
Cd  Cd3  1  0.84797759  0.00012708  0.75000590  1  0  1.190729  0  1.565648  0  0  1.002846  0  2.009684  0  0  1.069283  0  1.946997  0  0  0.745594  0.955736  0  2.05239  0
H  H4  1  0.25152246  0.24917128  0.87376300  1  0  0.112016  0  0.96179  0  0  0.119903  0  1.026912  0  0  0.122795  0  1.022944  0  0  0.139114  0.117801  0  1.029695  0
H  H5  1  0.00215709  0.75068122  0.62627140  1  0  0.111744  0  0.962517  0  0  0.120235  0  1.026903  0  0  0.123116  0  1.023018  0  0  0.139128  0.118186  0  1.029624  0
H  H6  1  0.74847718  0.75082761  0.12623915  1  0  0.112053  0  0.961785  0  0  0.119913  0  1.026941  0  0  0.122806  0  1.022974  0  0  0.139119  0.117812  0  1.029724  0
H  H7  1  0.99784255  0.24931769  0.37372827  1  0  0.111748  0  0.962472  0  0  0.12024  0  1.026859  0  0  0.12312  0  1.022977  0  0  0.139141  0.118193  0  1.029573  0
H  H8  1  0.65238715  0.33494963  0.70510668  1  0  0.104608  0  0.964826  0  0  0.114719  0  1.023591  0  0  0.116606  0  1.023787  0  0  0.116523  0.113357  0  1.023527  0
H  H9  1  0.31730046  0.66470561  0.79491999  1  0  0.104966  0  0.964552  0  0  0.11522  0  1.022974  0  0  0.117092  0  1.023216  0  0  0.116722  0.113866  0  1.023031  0
H  H10  1  0.34761060  0.66505038  0.29489191  1  0  0.104602  0  0.964843  0  0  0.114713  0  1.023609  0  0  0.1166  0  1.023805  0  0  0.116504  0.113351  0  1.023546  0
H  H11  1  0.68270640  0.33529550  0.20507750  1  0  0.10493  0  0.964605  0  0  0.115207  0  1.02299  0  0  0.117079  0  1.023231  0  0  0.116705  0.113844  0  1.023057  0
H  H12  1  0.67058827  0.60193026  0.79996744  1  0  0.135957  0  0.979171  0  0  0.142394  0  1.04099  0  0  0.146577  0  1.037763  0  0  0.12441  0.13935  0  1.043448  0
H  H13  1  0.06839642  0.39779799  0.70011337  1  0  0.136098  0  0.979115  0  0  0.142334  0  1.041253  0  0  0.146445  0  1.038062  0  0  0.12422  0.138837  0  1.044115  0
H  H14  1  0.32941113  0.39807302  0.20003221  1  0  0.135948  0  0.97923  0  0  0.142433  0  1.04099  0  0  0.146619  0  1.037756  0  0  0.124413  0.139386  0  1.043456  0
H  H15  1  0.93160554  0.60220310  0.29988784  1  0  0.136088  0  0.979097  0  0  0.142316  0  1.041245  0  0  0.146427  0  1.038055  0  0  0.12422  0.138819  0  1.044108  0
H  H16  1  0.64088332  0.74814715  0.90349642  1  0  0.1227  0  0.989758  0  0  0.131262  0  1.049132  0  0  0.13534  0  1.047091  0  0  0.106484  0.128202  0  1.050862  0
H  H17  1  0.89287592  0.25171233  0.59654568  1  0  0.12228  0  0.990223  0  0  0.131263  0  1.049054  0  0  0.135212  0  1.047191  0  0  0.106586  0.128251  0  1.050828  0
H  H18  1  0.35911322  0.25185285  0.09650341  1  0  0.122761  0  0.989647  0  0  0.131256  0  1.049118  0  0  0.135333  0  1.047076  0  0  0.106477  0.128196  0  1.050848  0
H  H19  1  0.10712141  0.74828439  0.40345369  1  0  0.12227  0  0.990263  0  0  0.131251  0  1.049093  0  0  0.135201  0  1.047229  0  0  0.106575  0.128239  0  1.050867  0
H  H20  1  0.58077202  0.91829882  0.01964545  1  0  0.103727  0  0.94963  0  0  0.113156  0  1.01306  0  0  0.116127  0  1.011064  0  0  0.106484  0.111112  0  1.014231  0
H  H21  1  0.66288842  0.08146488  0.48033481  1  0  0.104385  0  0.94964  0  0  0.113473  0  1.013128  0  0  0.116392  0  1.011252  0  0  0.106268  0.111145  0  1.014992  0
H  H22  1  0.41922518  0.08170009  0.98035422  1  0  0.103747  0  0.949622  0  0  0.11318  0  1.013042  0  0  0.11615  0  1.011047  0  0  0.106476  0.111141  0  1.0142  0
H  H23  1  0.33711014  0.91853185  0.51966333  1  0  0.10438  0  0.949672  0  0  0.113472  0  1.01315  0  0  0.11639  0  1.011276  0  0  0.10624  0.111144  0  1.015013  0
H  H24  1  0.11207726  0.56531357  0.06554077  1  0  0.096884  0  0.960735  0  0  0.106101  0  1.024776  0  0  0.109154  0  1.022895  0  0  0.104312  0.103887  0  1.026186  0
H  H25  1  0.54629343  0.43422355  0.43446584  1  0  0.097073  0  0.960936  0  0  0.106757  0  1.024442  0  0  0.109768  0  1.02268  0  0  0.104628  0.104422  0  1.02614  0
H  H26  1  0.88792349  0.43468752  0.93445920  1  0  0.096881  0  0.960712  0  0  0.106081  0  1.024775  0  0  0.109132  0  1.022896  0  0  0.104315  0.103867  0  1.026184  0
H  H27  1  0.45370609  0.56577754  0.56553475  1  0  0.097086  0  0.960934  0  0  0.106754  0  1.024455  0  0  0.109765  0  1.022695  0  0  0.104618  0.10442  0  1.026153  0
H  H28  1  0.16664837  0.39143036  0.94951070  1  0  0.112557  0  0.962884  0  0  0.12236  0  1.025713  0  0  0.125787  0  1.023683  0  0  0.109032  0.119815  0  1.027438  0
H  H29  1  0.77472241  0.60826036  0.55049446  1  0  0.112393  0  0.961952  0  0  0.122022  0  1.025186  0  0  0.125411  0  1.023212  0  0  0.108772  0.119402  0  1.027019  0
H  H30  1  0.83334993  0.60857074  0.05048927  1  0  0.112565  0  0.962878  0  0  0.122345  0  1.025735  0  0  0.125771  0  1.023707  0  0  0.109019  0.1198  0  1.02746  0
H  H31  1  0.22527778  0.39173962  0.44950722  1  0  0.112428  0  0.961991  0  0  0.122063  0  1.025212  0  0  0.125454  0  1.023232  0  0  0.108785  0.11944  0  1.027049  0
H  H32  1  0.03631910  0.29790697  0.08695021  1  0  0.131468  0  0.946938  0  0  0.150345  0  1.008373  0  0  0.15275  0  1.00793  0  0  0.094519  0.148654  0  1.008683  0
H  H33  1  0.73859924  0.70193446  0.41308821  1  0  0.131356  0  0.946879  0  0  0.150019  0  1.008686  0  0  0.15247  0  1.008184  0  0  0.094418  0.148346  0  1.008976  0
H  H34  1  0.96367811  0.70209194  0.91304885  1  0  0.131461  0  0.946929  0  0  0.150329  0  1.008382  0  0  0.152736  0  1.007931  0  0  0.094511  0.148637  0  1.008693  0
H  H35  1  0.26139974  0.29806554  0.58691161  1  0  0.131354  0  0.946872  0  0  0.150014  0  1.008681  0  0  0.152466  0  1.00818  0  0  0.094405  0.148342  0  1.008971  0
H  H36  1  0.80891527  0.16482279  0.07183181  1  0  0.134325  0  0.959649  0  0  0.151754  0  1.023194  0  0  0.1536  0  1.023491  0  0  0.094969  0.150421  0  1.023022  0
H  H37  1  0.64400270  0.83484010  0.42827841  1  0  0.133915  0  0.959457  0  0  0.151657  0  1.022483  0  0  0.153483  0  1.022848  0  0  0.094901  0.150282  0  1.02245  0
H  H38  1  0.19108316  0.83517612  0.92816725  1  0  0.134345  0  0.959627  0  0  0.151782  0  1.023164  0  0  0.153617  0  1.023473  0  0  0.094975  0.150449  0  1.022993  0
H  H39  1  0.35599804  0.16516100  0.57172156  1  0  0.133932  0  0.959449  0  0  0.151665  0  1.022481  0  0  0.153493  0  1.022845  0  0  0.094903  0.15029  0  1.022449  0
H  H40  1  0.97125506  0.13114066  0.00872910  1  0  0.146913  0  0.927148  0  0  0.169578  0  0.98013  0  0  0.171632  0  0.980053  0  0  0.102347  0.168082  0  0.980264  0
H  H41  1  0.84013211  0.86867296  0.49136168  1  0  0.147091  0  0.926478  0  0  0.169492  0  0.979833  0  0  0.171557  0  0.979733  0  0  0.102262  0.167998  0  0.979982  0
H  H42  1  0.02874269  0.86885934  0.99127010  1  0  0.146936  0  0.927099  0  0  0.169595  0  0.980092  0  0  0.171648  0  0.980015  0  0  0.102327  0.168098  0  0.980227  0
H  H43  1  0.15986863  0.13132813  0.50863829  1  0  0.147062  0  0.926508  0  0  0.169453  0  0.979872  0  0  0.171517  0  0.979775  0  0  0.102239  0.167963  0  0.980018  0
C  C44  1  0.36168636  0.30858335  0.84063330  1  0  0.183816  0  3.627944  0  0  0.122428  0  3.891165  0  0  0.137333  0  3.903672  0  0  0.149303  0.112668  0  3.882236  0
C  C45  1  0.05277961  0.69118563  0.65943554  1  0  0.18423  0  3.62784  0  0  0.122087  0  3.891065  0  0  0.13695  0  3.903632  0  0  0.149501  0.112416  0  3.88228  0
C  C46  1  0.63831438  0.69141772  0.15936914  1  0  0.183711  0  3.628087  0  0  0.12234  0  3.891314  0  0  0.137246  0  3.90382  0  0  0.149227  0.11258  0  3.882386  0
C  C47  1  0.94722303  0.30881437  0.34056367  1  0  0.184254  0  3.627874  0  0  0.122112  0  3.891108  0  0  0.136974  0  3.903675  0  0  0.149532  0.112442  0  3.882323  0
C  C48  1  0.57174675  0.35787213  0.75459808  1  0  0.014907  0  3.734618  0  0  -0.016435  0  3.996086  0  0  -0.014601  0  4.017547  0  0  0.000766  -0.017627  0  3.981284  0
C  C49  1  0.21364682  0.64182011  0.74546158  1  0  0.014473  0  3.73331  0  0  -0.016679  0  3.994404  0  0  -0.014893  0  4.015878  0  0  0.000397  -0.018159  0  3.979903  0
C  C50  1  0.42825046  0.64212677  0.24540222  1  0  0.014817  0  3.7347  0  0  -0.016531  0  3.996187  0  0  -0.014698  0  4.017649  0  0  0.000768  -0.017722  0  3.981384  0
C  C51  1  0.78635582  0.35817990  0.25453763  1  0  0.014511  0  3.733246  0  0  -0.016656  0  3.994324  0  0  -0.014869  0  4.015796  0  0  0.000442  -0.018128  0  3.979829  0
C  C52  1  0.58188698  0.49009328  0.80078640  1  0  -0.067243  0  3.631434  0  0  -0.106497  0  3.887854  0  0  -0.105621  0  3.905725  0  0  0.001006  -0.106837  0  3.875665  0
C  C53  1  0.09152641  0.50963490  0.69928131  1  0  -0.066286  0  3.630409  0  0  -0.105907  0  3.887064  0  0  -0.104938  0  3.904908  0  0  0.00153  -0.105981  0  3.875021  0
C  C54  1  0.41810889  0.50990783  0.19921110  1  0  -0.067224  0  3.631543  0  0  -0.106508  0  3.88793  0  0  -0.105632  0  3.905801  0  0  0.001011  -0.106846  0  3.875742  0
C  C55  1  0.90847867  0.49036510  0.30071852  1  0  -0.066281  0  3.630451  0  0  -0.105896  0  3.887122  0  0  -0.104927  0  3.904966  0  0  0.001524  -0.10597  0  3.875077  0
C  C56  1  0.41043717  0.55755747  0.92019108  1  0  0.189546  0  3.773191  0  0  0.178126  0  4.025616  0  0  0.186062  0  4.047244  0  0  0.099244  0.173149  0  4.010727  0
C  C57  1  0.85269793  0.44219792  0.57981418  1  0  0.188737  0  3.773604  0  0  0.177744  0  4.025373  0  0  0.185675  0  4.046961  0  0  0.098744  0.172504  0  4.010601  0
C  C58  1  0.58956235  0.44244362  0.07980951  1  0  0.189521  0  3.773205  0  0  0.17811  0  4.02562  0  0  0.186045  0  4.047248  0  0  0.099247  0.173133  0  4.010731  0
C  C59  1  0.14730116  0.55779988  0.42018596  1  0  0.188767  0  3.773548  0  0  0.177768  0  4.025321  0  0  0.185697  0  4.046909  0  0  0.09877  0.17253  0  4.010546  0
C  C60  1  0.52533433  0.70638487  0.93906577  1  0  -0.15974  0  3.705872  0  0  -0.178768  0  3.959887  0  0  -0.184666  0  3.978776  0  0  -0.093664  -0.174907  0  3.947215  0
C  C61  1  0.81895007  0.29338738  0.56095298  1  0  -0.15976  0  3.704238  0  0  -0.179386  0  3.958421  0  0  -0.185183  0  3.977313  0  0  -0.094138  -0.175344  0  3.945644  0
C  C62  1  0.47466342  0.29361513  0.06093467  1  0  -0.159725  0  3.705811  0  0  -0.178706  0  3.959815  0  0  -0.184599  0  3.978701  0  0  -0.093646  -0.174845  0  3.947142  0
C  C63  1  0.18104835  0.70661152  0.43904793  1  0  -0.159751  0  3.704234  0  0  -0.179361  0  3.958414  0  0  -0.185158  0  3.977306  0  0  -0.094141  -0.17532  0  3.945635  0
C  C64  1  0.49102162  0.80276909  0.00401395  1  0  -0.040871  0  3.730096  0  0  -0.066051  0  3.981404  0  0  -0.063593  0  3.999962  0  0  -0.078102  -0.067386  0  3.968751  0
C  C65  1  0.68837183  0.19694738  0.49594998  1  0  -0.041354  0  3.729501  0  0  -0.066212  0  3.981545  0  0  -0.063731  0  3.999995  0  0  -0.077708  -0.067519  0  3.969225  0
C  C66  1  0.50897735  0.19723091  0.99598649  1  0  -0.040967  0  3.730102  0  0  -0.066109  0  3.981414  0  0  -0.063653  0  3.999973  0  0  -0.078093  -0.067441  0  3.968759  0
C  C67  1  0.31162782  0.80305152  0.50405031  1  0  -0.041314  0  3.729469  0  0  -0.066179  0  3.981516  0  0  -0.063701  0  3.999963  0  0  -0.07764  -0.067485  0  3.969196  0
C  C68  1  0.34266302  0.75281983  0.05013518  1  0  -0.087244  0  3.787544  0  0  -0.062376  0  4.018037  0  0  -0.072622  0  4.042621  0  0  -0.022862  -0.056036  0  4.001877  0
C  C69  1  0.58984805  0.24685573  0.44983703  1  0  -0.084899  0  3.784869  0  0  -0.060632  0  4.015937  0  0  -0.070757  0  4.040348  0  0  -0.022149  -0.054219  0  3.999547  0
C  C70  1  0.65733473  0.24718017  0.94986402  1  0  -0.087211  0  3.787398  0  0  -0.062433  0  4.018006  0  0  -0.072679  0  4.042592  0  0  -0.022872  -0.056093  0  4.001846  0
C  C71  1  0.41015092  0.75314427  0.55016279  1  0  -0.084904  0  3.784827  0  0  -0.060646  0  4.015907  0  0  -0.07076  0  4.040303  0  0  -0.022158  -0.054236  0  3.999515  0
C  C72  1  0.22767535  0.60380253  0.02974318  1  0  -0.049246  0  3.749317  0  0  -0.074204  0  3.998726  0  0  -0.072181  0  4.018847  0  0  -0.081493  -0.075409  0  3.98533  0
C  C73  1  0.62356975  0.39582294  0.47026366  1  0  -0.050031  0  3.748428  0  0  -0.07526  0  3.998201  0  0  -0.073215  0  4.018199  0  0  -0.081708  -0.076286  0  3.984766  0
C  C74  1  0.77232484  0.39619746  0.97025789  1  0  -0.049209  0  3.749197  0  0  -0.074129  0  3.998629  0  0  -0.072106  0  4.01875  0  0  -0.081478  -0.075334  0  3.985234  0
C  C75  1  0.37643112  0.60417596  0.52973663  1  0  -0.050038  0  3.748429  0  0  -0.075253  0  3.998213  0  0  -0.073214  0  4.018212  0  0  -0.081709  -0.076281  0  3.984783  0
C  C76  1  0.25996355  0.50615633  0.96519842  1  0  -0.166017  0  3.736928  0  0  -0.187655  0  3.995717  0  0  -0.193494  0  4.016018  0  0  -0.094441  -0.184063  0  3.982285  0
C  C77  1  0.75352060  0.49355950  0.53480022  1  0  -0.165454  0  3.735692  0  0  -0.187243  0  3.994674  0  0  -0.193036  0  4.014951  0  0  -0.094094  -0.183302  0  3.981123  0
C  C78  1  0.74003476  0.49384477  0.03480155  1  0  -0.16605  0  3.736907  0  0  -0.187664  0  3.995689  0  0  -0.193503  0  4.01599  0  0  -0.094448  -0.184073  0  3.982257  0
C  C79  1  0.24647905  0.50643939  0.46520131  1  0  -0.165552  0  3.735799  0  0  -0.187341  0  3.994767  0  0  -0.193139  0  4.015056  0  0  -0.094133  -0.1834  0  3.981218  0
C  C80  1  0.30394163  0.85597846  0.11920239  1  0  0.64449  0  3.924641  0  0  0.59308  0  4.215003  0  0  0.62826  0  4.209494  0  0  0.198732  0.569282  0  4.217889  0
C  C81  1  0.44799112  0.14374751  0.38074608  1  0  0.644013  0  3.926833  0  0  0.593268  0  4.216525  0  0  0.628359  0  4.210989  0  0  0.198936  0.569413  0  4.219362  0
C  C82  1  0.69605856  0.14402154  0.88079806  1  0  0.644545  0  3.924543  0  0  0.593149  0  4.214922  0  0  0.628329  0  4.209411  0  0  0.198753  0.56935  0  4.217807  0
C  C83  1  0.55201207  0.85625358  0.61925389  1  0  0.644059  0  3.926839  0  0  0.593315  0  4.216538  0  0  0.628403  0  4.211003  0  0  0.198952  0.569468  0  4.219366  0
C  C84  1  0.99177671  0.10704748  0.13600770  1  0  0.74388  0  3.863887  0  0  0.698789  0  4.160427  0  0  0.733125  0  4.154096  0  0  0.200192  0.675397  0  4.1638  0
C  C85  1  0.88442298  0.89291342  0.36405114  1  0  0.743417  0  3.865189  0  0  0.697362  0  4.163026  0  0  0.731651  0  4.156732  0  0  0.199368  0.67388  0  4.166388  0
C  C86  1  0.00822227  0.89295253  0.86399088  1  0  0.743952  0  3.863728  0  0  0.698864  0  4.160276  0  0  0.7332  0  4.153942  0  0  0.200257  0.675472  0  4.163651  0
C  C87  1  0.11557599  0.10708658  0.63594869  1  0  0.743436  0  3.865126  0  0  0.69738  0  4.162955  0  0  0.731674  0  4.156656  0  0  0.19935  0.673898  0  4.166318  0
C  C88  1  0.94924402  0.18082071  0.07274470  1  0  -0.450853  0  3.650422  0  0  -0.526393  0  3.882488  0  0  -0.533772  0  3.885707  0  0  -0.247983  -0.521151  0  3.880167  0
C  C89  1  0.76842564  0.81898877  0.42732654  1  0  -0.450758  0  3.648889  0  0  -0.525861  0  3.881381  0  0  -0.533278  0  3.884536  0  0  -0.247995  -0.520589  0  3.879062  0
C  C90  1  0.05075319  0.81917821  0.92725435  1  0  -0.450922  0  3.650344  0  0  -0.526453  0  3.882428  0  0  -0.533821  0  3.885658  0  0  -0.247978  -0.521212  0  3.880108  0
C  C91  1  0.23157401  0.18101014  0.57267313  1  0  -0.450776  0  3.648931  0  0  -0.525856  0  3.881423  0  0  -0.533276  0  3.884579  0  0  -0.247977  -0.520589  0  3.879102  0
N  N92  1  0.43418406  0.24606967  0.78008763  1  0  -0.394553  0  3.26843  0  0  -0.312506  0  3.541023  0  0  -0.335124  0  3.560156  0  0  -0.357421  -0.296673  0  3.52734  0
N  N93  1  0.18789917  0.75366217  0.71996548  1  0  -0.395257  0  3.26592  0  0  -0.313186  0  3.538688  0  0  -0.335765  0  3.557881  0  0  -0.357671  -0.297222  0  3.525304  0
N  N94  1  0.56581369  0.75393032  0.21991343  1  0  -0.394426  0  3.268457  0  0  -0.31238  0  3.541033  0  0  -0.335001  0  3.560173  0  0  -0.357372  -0.296547  0  3.527347  0
N  N95  1  0.81210659  0.24633674  0.28003358  1  0  -0.395289  0  3.265972  0  0  -0.313236  0  3.538771  0  0  -0.335816  0  3.557963  0  0  -0.357747  -0.297273  0  3.525385  0
N  N96  1  0.44735523  0.45728539  0.85576810  1  0  -0.090015  0  3.578971  0  0  0.000733  0  3.78918  0  0  -0.015067  0  3.814885  0  0  -0.22038  0.011272  0  3.771489  0
N  N97  1  0.98972122  0.54247321  0.64431229  1  0  -0.09035  0  3.580026  0  0  0.001004  0  3.789661  0  0  -0.014826  0  3.815368  0  0  -0.220185  0.011487  0  3.771962  0
N  N98  1  0.55264429  0.54271571  0.14423187  1  0  -0.089969  0  3.578972  0  0  0.000772  0  3.789194  0  0  -0.015028  0  3.8149  0  0  -0.22036  0.011311  0  3.771502  0
N  N99  1  0.01027721  0.45752569  0.35568862  1  0  -0.090353  0  3.580077  0  0  0.001  0  3.789706  0  0  -0.01483  0  3.815413  0  0  -0.220198  0.011483  0  3.772007  0
O  O100  1  0.14483427  0.81392717  0.14150789  1  0  -0.626226  0  1.96633  0  0  -0.560896  0  2.21048  0  0  -0.591236  0  2.199922  0  0  -0.324205  -0.539754  0  2.2169  0
O  O101  1  0.33081849  0.18579683  0.35855347  1  0  -0.62648  0  1.968133  0  0  -0.561413  0  2.212067  0  0  -0.59173  0  2.201534  0  0  -0.324476  -0.540238  0  2.218665  0
O  O102  1  0.85516593  0.18607283  0.85849193  1  0  -0.626248  0  1.96632  0  0  -0.560903  0  2.210449  0  0  -0.591245  0  2.199895  0  0  -0.324205  -0.539761  0  2.216872  0
O  O103  1  0.66918482  0.81420207  0.64144682  1  0  -0.626543  0  1.968167  0  0  -0.561465  0  2.212076  0  0  -0.591781  0  2.201544  0  0  -0.32451  -0.540292  0  2.218671  0
O  O104  1  0.42825423  0.98133319  0.15269781  1  0  -0.678054  0  1.994507  0  0  -0.610421  0  2.2487  0  0  -0.63858  0  2.236024  0  0  -0.341838  -0.59045  0  2.256796  0
O  O105  1  0.44699704  0.01844261  0.34713314  1  0  -0.67838  0  1.995849  0  0  -0.610856  0  2.249786  0  0  -0.638985  0  2.237156  0  0  -0.342016  -0.590966  0  2.258158  0
O  O106  1  0.57174651  0.01866790  0.84730278  1  0  -0.678084  0  1.994493  0  0  -0.610451  0  2.248687  0  0  -0.638605  0  2.236005  0  0  -0.341852  -0.590484  0  2.256795  0
O  O107  1  0.55300261  0.98155631  0.65286592  1  0  -0.678352  0  1.995885  0  0  -0.610825  0  2.249821  0  0  -0.638954  0  2.237193  0  0  -0.34196  -0.590936  0  2.258189  0
O  O108  1  0.87177303  0.98912714  0.14894641  1  0  -0.705787  0  2.009633  0  0  -0.642392  0  2.271201  0  0  -0.67091  0  2.258994  0  0  -0.342297  -0.622192  0  2.278834  0
O  O109  1  0.88219290  0.01088110  0.35126928  1  0  -0.704686  0  2.009066  0  0  -0.64114  0  2.270833  0  0  -0.669642  0  2.258777  0  0  -0.341677  -0.621113  0  2.278802  0
O  O110  1  0.12822717  0.01087286  0.85105280  1  0  -0.705796  0  2.009571  0  0  -0.642414  0  2.271169  0  0  -0.670926  0  2.258948  0  0  -0.342323  -0.622215  0  2.278804  0
O  O111  1  0.11780906  0.98912000  0.64873069  1  0  -0.70468  0  2.00904  0  0  -0.641131  0  2.270801  0  0  -0.669635  0  2.258744  0  0  -0.341657  -0.621103  0  2.278769  0
O  O112  1  0.15008423  0.16376475  0.17346152  1  0  -0.648159  0  1.9887  0  0  -0.573531  0  2.223525  0  0  -0.604312  0  2.21262  0  0  -0.321281  -0.552038  0  2.230303  0
O  O113  1  0.98599149  0.83626057  0.32650459  1  0  -0.649167  0  1.991309  0  0  -0.573307  0  2.225272  0  0  -0.604074  0  2.21453  0  0  -0.321028  -0.551404  0  2.232334  0
O  O114  1  0.84991420  0.83623416  0.82653753  1  0  -0.648169  0  1.988673  0  0  -0.573565  0  2.223528  0  0  -0.604343  0  2.212621  0  0  -0.321313  -0.55207  0  2.230301  0
O  O115  1  0.01400749  0.16373943  0.67349586  1  0  -0.649144  0  1.991218  0  0  -0.573299  0  2.225208  0  0  -0.604063  0  2.21446  0  0  -0.32102  -0.551395  0  2.232269  0
