# generated using pymatgen
data_DyH17C26N4O9
_symmetry_space_group_name_H-M   'P 1'
_cell_length_a   9.04667697
_cell_length_b   9.32230679
_cell_length_c   15.97623958
_cell_angle_alpha   75.06013518
_cell_angle_beta   74.16387500
_cell_angle_gamma   77.43546119
_symmetry_Int_Tables_number   1
_chemical_formula_structural   DyH17C26N4O9
_chemical_formula_sum   'Dy2 H34 C52 N8 O18'
_cell_volume   1236.61490649
_cell_formula_units_Z   2
loop_
 _symmetry_equiv_pos_site_id
 _symmetry_equiv_pos_as_xyz
  1  'x, y, z'
loop_
 _atom_site_type_symbol
 _atom_site_label
 _atom_site_symmetry_multiplicity
 _atom_site_fract_x
 _atom_site_fract_y
 _atom_site_fract_z
 _atom_site_occupancy
 _atom_site_pbe_bader_spin_density
 _atom_site_pbe_cm5_charge
 _atom_site_pbe_ddec_charge
 _atom_site_pbe_ddec_spin_density
 _atom_site_pbe_ddec_sum_bond_order
 _atom_site_pbe_magmom
Dy  Dy0  1  0.69068190  0.89048955  0.72186091  1  0  1.537787  1.839755  0  2.339344  0
Dy  Dy1  1  0.30931748  0.10950882  0.27814109  1  0  1.537801  1.839736  0  2.339401  0
H  H2  1  0.28526378  0.25841585  0.94047345  1  0  0.29587  0.367004  0  0.972945  0
H  H3  1  0.71474305  0.74157912  0.05952416  1  0  0.295892  0.36707  0  0.972844  0
H  H4  1  0.41935351  0.71834511  0.88189504  1  0  0.124399  0.092401  0  0.988421  0
H  H5  1  0.58064647  0.28165663  0.11810636  1  0  0.124388  0.092372  0  0.988397  0
H  H6  1  0.13569685  0.75733055  0.96245515  1  0  0.111374  0.135558  0  1.040734  0
H  H7  1  0.86430331  0.24267006  0.03754514  1  0  0.111377  0.135571  0  1.040707  0
H  H8  1  0.96539482  0.99258085  0.90998500  1  0  0.111132  0.111643  0  1.003151  0
H  H9  1  0.03460378  0.00741525  0.09001496  1  0  0.11114  0.11169  0  1.003069  0
H  H10  1  0.04316994  0.39907403  0.65349274  1  0  0.109873  0.117626  0  0.983685  0
H  H11  1  0.95682543  0.60092771  0.34650999  1  0  0.109859  0.117618  0  0.983776  0
H  H12  1  0.93441219  0.23312903  0.79553362  1  0  0.100276  0.097471  0  1.056859  0
H  H13  1  0.06558470  0.76687046  0.20446860  1  0  0.100282  0.097486  0  1.056835  0
H  H14  1  0.27073712  0.45241115  0.52344239  1  0  0.116105  0.121668  0  0.980059  0
H  H15  1  0.72926208  0.54758833  0.47655760  1  0  0.116098  0.121658  0  0.980058  0
H  H16  1  0.54724886  0.37735392  0.45041586  1  0  0.106158  0.106573  0  1.029859  0
H  H17  1  0.45274610  0.62264330  0.54958387  1  0  0.106164  0.10661  0  1.029765  0
H  H18  1  0.70561329  0.15015714  0.52683546  1  0  0.123841  0.094524  0  1.012179  0
H  H19  1  0.29438572  0.84984347  0.47316563  1  0  0.123848  0.094563  0  1.012133  0
H  H20  1  0.64086677  0.17278326  0.99088483  1  0  0.109666  0.113264  0  1.052909  0
H  H21  1  0.35913054  0.82722072  0.00911538  1  0  0.109659  0.113249  0  1.052905  0
H  H22  1  0.63740608  0.44371408  0.90394770  1  0  0.121172  0.123819  0  0.970281  0
H  H23  1  0.36259753  0.55628652  0.09605143  1  0  0.12118  0.123839  0  0.970288  0
H  H24  1  0.67704459  0.27931070  0.66987795  1  0  0.120751  0.085669  0  1.029762  0
H  H25  1  0.32295442  0.72068991  0.33012189  1  0  0.120758  0.085689  0  1.029727  0
H  H26  1  0.32316929  0.79338373  0.64404382  1  0  0.116923  0.125819  0  1.001876  0
H  H27  1  0.67683068  0.20661800  0.35595633  1  0  0.116924  0.125829  0  1.001871  0
H  H28  1  0.36669102  0.54995790  0.75670426  1  0  0.111172  0.110407  0  1.020577  0
H  H29  1  0.63331010  0.45004382  0.24329446  1  0  0.111167  0.110417  0  1.020585  0
H  H30  1  0.86945512  0.58939090  0.85136127  1  0  0.1269  0.097281  0  1.010907  0
H  H31  1  0.13054674  0.41060633  0.14863927  1  0  0.12691  0.097274  0  1.010922  0
H  H32  1  0.79977775  0.86724051  0.52616948  1  0  0.297558  0.421079  0  0.902875  0
H  H33  1  0.20021956  0.13276348  0.47383137  1  0  0.297552  0.421098  0  0.902842  0
H  H34  1  0.73499779  0.71226231  0.59328684  1  0  0.288356  0.387155  0  0.960426  0
H  H35  1  0.26500563  0.28773943  0.40671402  1  0  0.288351  0.387151  0  0.960407  0
C  C36  1  0.33934344  0.81816639  0.85988776  1  0  0.063777  0.125649  0  3.959826  0
C  C37  1  0.66065768  0.18183535  0.14011221  1  0  0.063759  0.125623  0  3.959755  0
C  C38  1  0.18209090  0.84049964  0.90487829  1  0  -0.082621  -0.136011  0  3.954581  0
C  C39  1  0.81790926  0.15950097  0.09512200  1  0  -0.082618  -0.136007  0  3.954554  0
C  C40  1  0.08705939  0.97057057  0.87508026  1  0  -0.051524  -0.039604  0  3.866897  0
C  C41  1  0.91293884  0.02942778  0.12492004  1  0  -0.051518  -0.039599  0  3.866845  0
C  C42  1  0.14781690  0.07439012  0.79832678  1  0  0.003633  0.048607  0  3.984343  0
C  C43  1  0.85218096  0.92561049  0.20167386  1  0  0.00362  0.048491  0  3.984468  0
C  C44  1  0.30739137  0.04042238  0.75626625  1  0  0.123885  0.136701  0  3.982011  0
C  C45  1  0.69260745  0.95957935  0.24373408  1  0  0.123901  0.136722  0  3.982062  0
C  C46  1  0.37246430  0.13818897  0.67488095  1  0  0.126148  0.142522  0  3.964876  0
C  C47  1  0.62753375  0.86181051  0.32511983  1  0  0.12614  0.142546  0  3.964925  0
C  C48  1  0.27511573  0.26665927  0.63777038  1  0  0.00037  0.051012  0  3.997915  0
C  C49  1  0.72488195  0.73334247  0.36223075  1  0  0.000413  0.051113  0  3.997812  0
C  C50  1  0.11579275  0.29982231  0.68312497  1  0  -0.079045  -0.114629  0  3.96907  0
C  C51  1  0.88420511  0.70017830  0.31687630  1  0  -0.079061  -0.114718  0  3.96923  0
C  C52  1  0.05512601  0.20771977  0.76075388  1  0  -0.08165  -0.104492  0  3.976491  0
C  C53  1  0.94487185  0.79228085  0.23924801  1  0  -0.081645  -0.104433  0  3.976506  0
C  C54  1  0.34143887  0.35446583  0.55554392  1  0  -0.055295  -0.060602  0  3.90379  0
C  C55  1  0.65855821  0.64553253  0.44445594  1  0  -0.055318  -0.060623  0  3.90367  0
C  C56  1  0.49505488  0.31259871  0.51471669  1  0  -0.081117  -0.12241  0  3.969609  0
C  C57  1  0.50494105  0.68739964  0.48528334  1  0  -0.081111  -0.12242  0  3.969446  0
C  C58  1  0.58363574  0.18542021  0.55689575  1  0  0.063938  0.125779  0  3.926974  0
C  C59  1  0.41636327  0.81458040  0.44310409  1  0  0.063917  0.125786  0  3.926995  0
C  C60  1  0.67188956  0.92575260  0.92278171  1  0  0.217841  0.558485  0  4.225961  0
C  C61  1  0.32810660  0.07425139  0.07721869  1  0  0.217872  0.558477  0  4.22589  0
C  C62  1  0.65870457  0.08952886  0.87559876  1  0  0.119975  0.113722  0  3.972205  0
C  C63  1  0.34129444  0.91047175  0.12440233  1  0  0.12003  0.113811  0  3.972216  0
C  C64  1  0.64709815  0.20364951  0.91989276  1  0  -0.070329  -0.116802  0  3.923834  0
C  C65  1  0.35289971  0.79635109  0.08010726  1  0  -0.07033  -0.116763  0  3.923752  0
C  C66  1  0.64500059  0.35131977  0.87202604  1  0  -0.050813  -0.020874  0  3.892112  0
C  C67  1  0.35499975  0.64867971  0.12797314  1  0  -0.050763  -0.020848  0  3.89203  0
C  C68  1  0.65752635  0.37989021  0.78025134  1  0  -0.010041  -0.083679  0  3.944193  0
C  C69  1  0.34247744  0.62010926  0.21974731  1  0  -0.010123  -0.083763  0  3.944146  0
C  C70  1  0.66585693  0.25923815  0.74134064  1  0  0.065406  0.110369  0  3.919372  0
C  C71  1  0.33414322  0.74076246  0.25865902  1  0  0.065413  0.110406  0  3.91928  0
C  C72  1  0.66884658  0.53336118  0.72140630  1  0  0.218032  0.589919  0  4.221456  0
C  C73  1  0.33115702  0.46663943  0.27859470  1  0  0.217969  0.589774  0  4.221708  0
C  C74  1  0.03784481  0.96308632  0.62592555  1  0  0.217513  0.566667  0  4.228478  0
C  C75  1  0.96215402  0.03691541  0.37407353  1  0  0.217463  0.566583  0  4.22862  0
C  C76  1  0.07492447  0.81381488  0.68886160  1  0  0.120602  0.115004  0  3.963261  0
C  C77  1  0.92507569  0.18618573  0.31113806  1  0  0.120639  0.114922  0  3.963276  0
C  C78  1  0.22679315  0.74187751  0.69035874  1  0  -0.076048  -0.134406  0  3.936192  0
C  C79  1  0.77320701  0.25812309  0.30964092  1  0  -0.076069  -0.134361  0  3.936175  0
C  C80  1  0.25009468  0.60880679  0.75287246  1  0  -0.056994  -0.035132  0  3.913857  0
C  C81  1  0.74990815  0.39119157  0.24712651  1  0  -0.057003  -0.035191  0  3.913946  0
C  C82  1  0.12114498  0.55178033  0.81282863  1  0  -0.006703  -0.083595  0  3.953676  0
C  C83  1  0.87885803  0.44821690  0.18717048  1  0  -0.006675  -0.083569  0  3.953533  0
C  C84  1  0.97294644  0.62950169  0.80582951  1  0  0.067551  0.114538  0  3.905966  0
C  C85  1  0.02705790  0.37049442  0.19416957  1  0  0.067491  0.114487  0  3.906009  0
C  C86  1  0.13331379  0.41322346  0.88483481  1  0  0.228176  0.584619  0  4.163665  0
C  C87  1  0.86669230  0.58677600  0.11516036  1  0  0.228174  0.584603  0  4.163652  0
N  N88  1  0.40146047  0.91541303  0.78846615  1  0  -0.390926  -0.384927  0  3.524714  0
N  N89  1  0.59853873  0.08458646  0.21153383  1  0  -0.390892  -0.384856  0  3.524664  0
N  N90  1  0.52479200  0.10063881  0.63524558  1  0  -0.381075  -0.373973  0  3.494231  0
N  N91  1  0.47520833  0.89936068  0.36475610  1  0  -0.381057  -0.374072  0  3.494408  0
N  N92  1  0.66448235  0.11736598  0.78765845  1  0  -0.381294  -0.359816  0  3.520709  0
N  N93  1  0.33551799  0.88263350  0.21234136  1  0  -0.381324  -0.359904  0  3.520848  0
N  N94  1  0.95065819  0.75622240  0.74502267  1  0  -0.395111  -0.357025  0  3.533557  0
N  N95  1  0.04934597  0.24377482  0.25497627  1  0  -0.395103  -0.356922  0  3.533607  0
O  O96  1  0.67243087  0.83144484  0.87732051  1  0  -0.38785  -0.632822  0  2.307477  0
O  O97  1  0.32755301  0.16855691  0.12268525  1  0  -0.387882  -0.632821  0  2.307366  0
O  O98  1  0.68475242  0.89614928  0.00246007  1  0  -0.299146  -0.516045  0  2.21829  0
O  O99  1  0.31526038  0.10385132  0.99753764  1  0  -0.299161  -0.516028  0  2.218418  0
O  O100  1  0.64786900  0.64301724  0.76027013  1  0  -0.407583  -0.65275  0  2.320674  0
O  O101  1  0.35212214  0.35698225  0.23973422  1  0  -0.407533  -0.652671  0  2.320809  0
O  O102  1  0.69922252  0.54299000  0.63828149  1  0  -0.307224  -0.543686  0  2.169027  0
O  O103  1  0.30079258  0.45701062  0.36171775  1  0  -0.307224  -0.54365  0  2.169116  0
O  O104  1  0.89331559  0.01931553  0.63558673  1  0  -0.404883  -0.637612  0  2.295024  0
O  O105  1  0.10668209  0.98068620  0.36441439  1  0  -0.404866  -0.637546  0  2.295056  0
O  O106  1  0.15094241  0.01805935  0.57185799  1  0  -0.300677  -0.528408  0  2.195554  0
O  O107  1  0.84905853  0.98194351  0.42814309  1  0  -0.300659  -0.528356  0  2.195597  0
O  O108  1  0.01675442  0.36057322  0.93187892  1  0  -0.295943  -0.509394  0  2.141906  0
O  O109  1  0.98324762  0.63942289  0.06812052  1  0  -0.295908  -0.509309  0  2.142086  0
O  O110  1  0.27856072  0.35714083  0.89124306  1  0  -0.331286  -0.493495  0  2.310106  0
O  O111  1  0.72144114  0.64285638  0.10875310  1  0  -0.3313  -0.493553  0  2.309946  0
O  O112  1  0.75044972  0.81827838  0.58803294  1  0  -0.680996  -0.890195  0  2.113586  0
O  O113  1  0.24954281  0.18172672  0.41196659  1  0  -0.680992  -0.890209  0  2.113611  0
