# generated using pymatgen
data_Ho2CuH16C32(N2O13)2
_symmetry_space_group_name_H-M   'P 1'
_cell_length_a   9.82284136
_cell_length_b   10.22902159
_cell_length_c   10.97052241
_cell_angle_alpha   70.25137338
_cell_angle_beta   84.94008825
_cell_angle_gamma   71.39869784
_symmetry_Int_Tables_number   1
_chemical_formula_structural   Ho2CuH16C32(N2O13)2
_chemical_formula_sum   'Ho2 Cu1 H16 C32 N4 O26'
_cell_volume   983.03127139
_cell_formula_units_Z   1
loop_
 _symmetry_equiv_pos_site_id
 _symmetry_equiv_pos_as_xyz
  1  'x, y, z'
loop_
 _atom_site_type_symbol
 _atom_site_label
 _atom_site_symmetry_multiplicity
 _atom_site_fract_x
 _atom_site_fract_y
 _atom_site_fract_z
 _atom_site_occupancy
 _atom_site_hle17_ddec_charge
 _atom_site_hle17_ddec_spin_density
 _atom_site_hle17_ddec_sum_bond_order
 _atom_site_hle17_magmom
 _atom_site_hse06_10hf_ddec_charge
 _atom_site_hse06_10hf_ddec_spin_density
 _atom_site_hse06_10hf_ddec_sum_bond_order
 _atom_site_hse06_10hf_magmom
 _atom_site_hse06_ddec_charge
 _atom_site_hse06_ddec_spin_density
 _atom_site_hse06_ddec_sum_bond_order
 _atom_site_hse06_magmom
 _atom_site_pbe_cm5_charge
 _atom_site_pbe_ddec_charge
 _atom_site_pbe_ddec_spin_density
 _atom_site_pbe_ddec_sum_bond_order
 _atom_site_pbe_magmom
Ho  Ho0  1  0.40668082  0.40564617  0.41731198  1  2.283686  -0.000711  1.602207  -0.001  2.139335  -0.000331  2.072637  0.0  2.272581  -0.000499  1.874524  -0.001  1.531464  2.103163  1.5e-05  2.102646  0.0
Ho  Ho1  1  0.59331809  0.59434957  0.58268958  1  2.283694  -0.000706  1.602177  -0.001  2.139365  -0.000328  2.072611  0.0  2.272606  -0.000501  1.874492  -0.001  1.531463  2.103207  1.5e-05  2.102582  0.0
Cu  Cu2  1  0.50000001  0.99999686  0.50000464  1  1.123191  0.708484  1.63351  0.541  1.136662  0.811228  2.023594  0.678  1.224734  0.873747  1.963436  0.768  0.770647  1.077415  0.76023  2.069572  0.612
H  H3  1  0.91982098  0.36639385  0.48124849  1  0.134023  0.000137  0.922242  0.0  0.139942  0.000124  0.987559  0.0  0.144994  6.6e-05  0.982883  0.0  0.123882  0.136097  0.000118  0.991406  0.0
H  H4  1  0.08017869  0.63361285  0.51874230  1  0.134039  0.000128  0.922178  0.0  0.139966  0.000125  0.987474  0.0  0.144997  6.6e-05  0.982825  0.0  0.123878  0.136118  0.000118  0.991322  0.0
H  H5  1  0.80692541  0.97005138  0.66082776  1  0.123348  -0.000105  0.947926  0.0  0.128177  -0.000114  1.016934  0.0  0.132062  -0.0001  1.013192  0.0  0.117586  0.125098  -0.000113  1.019853  0.0
H  H6  1  0.19307497  0.02995637  0.33916994  1  0.123401  -0.000109  0.947935  0.0  0.128239  -0.000114  1.01693  0.0  0.132127  -9.9e-05  1.013182  0.0  0.117632  0.125162  -0.000113  1.01985  0.0
H  H7  1  0.24917887  0.95697225  0.65322920  1  0.135149  -0.000291  0.952198  0.0  0.133398  -0.000208  1.029323  0.0  0.138514  -0.000233  1.023651  0.0  0.120093  0.129749  -0.000164  1.033135  0.0
H  H8  1  0.75081979  0.04303442  0.34676624  1  0.135245  -0.000302  0.952113  0.0  0.133536  -0.000209  1.029173  0.0  0.138651  -0.000233  1.023505  0.0  0.120182  0.129888  -0.000164  1.032987  0.0
H  H9  1  0.46237692  0.37315639  0.97759342  1  0.134337  -0.000146  0.903205  0.0  0.143505  -1.6e-05  0.960523  0.0  0.147927  -1.3e-05  0.956232  0.0  0.126579  0.140095  -1e-05  0.963755  0.0
H  H10  1  0.53762573  0.62683713  0.02241399  1  0.134342  -0.000147  0.9032  0.0  0.143515  -1.6e-05  0.960515  0.0  0.147939  -1.4e-05  0.956223  0.0  0.126557  0.140104  -1e-05  0.963748  0.0
H  H11  1  0.35055828  0.98783128  0.20370180  1  0.125044  -3.4e-05  0.954848  0.0  0.129804  3.5e-05  1.022093  0.0  0.133433  4e-06  1.018672  0.0  0.118219  0.127063  6e-05  1.024681  0.0
H  H12  1  0.64943725  0.01216550  0.79630791  1  0.125084  -3.7e-05  0.954871  0.0  0.129876  3.5e-05  1.02205  0.0  0.133505  5e-06  1.018628  0.0  0.118275  0.127131  6e-05  1.024641  0.0
H  H13  1  0.29342131  0.14891822  0.78873078  1  0.137517  -7.8e-05  0.934682  0.0  0.14105  5.5e-05  1.002117  0.0  0.145531  2.1e-05  0.997637  0.0  0.119439  0.137769  3.6e-05  1.005359  0.0
H  H14  1  0.70657829  0.85107529  0.21127962  1  0.137523  -7.9e-05  0.934749  0.0  0.141042  5.6e-05  1.00219  0.0  0.145519  2.3e-05  0.997719  0.0  0.119473  0.137764  3.6e-05  1.005432  0.0
H  H15  1  0.12739846  0.57958206  0.27542130  1  0.452772  1.7e-05  0.799018  0.0  0.43749  3.4e-05  0.841842  0.0  0.445792  1.6e-05  0.830116  0.0  0.336341  0.431889  2.9e-05  0.849928  0.0
H  H16  1  0.87260349  0.42041039  0.72458194  1  0.4528  1.6e-05  0.79898  0.0  0.437519  3.4e-05  0.841804  0.0  0.445823  1.6e-05  0.830075  0.0  0.336375  0.431917  2.9e-05  0.849892  0.0
H  H17  1  0.22757924  0.67123439  0.19198285  1  0.451458  -0.0  0.829736  0.0  0.420839  -3e-06  0.890306  0.0  0.432092  -3e-06  0.873627  0.0  0.311453  0.413306  -4e-06  0.901594  0.0
H  H18  1  0.77241864  0.32876135  0.80801878  1  0.451436  -0.0  0.829753  0.0  0.420819  -3e-06  0.890324  0.0  0.43207  -2e-06  0.873652  0.0  0.311476  0.413285  -4e-06  0.901614  0.0
C  C19  1  0.09573005  0.16990322  0.56027075  1  -0.06223  -1.1e-05  3.719763  0.0  -0.03691  -0.000276  3.956826  0.0  -0.048118  -0.000254  3.978167  0.0  -0.009957  -0.029764  -0.000249  3.94254  0.0
C  C20  1  0.90426793  0.83010568  0.43971767  1  -0.061894  -0.000176  3.719513  0.0  -0.03657  -0.000268  3.956624  0.0  -0.04776  -0.000256  3.977939  0.0  -0.009834  -0.029431  -0.000249  3.942334  0.0
C  C21  1  0.94996726  0.24958545  0.53392997  1  -0.032513  -0.000789  3.617328  0.0  -0.079524  -0.000209  3.875397  0.0  -0.072998  -0.00027  3.889265  0.0  -0.056215  -0.08493  -0.000233  3.867305  0.0
C  C22  1  0.05003105  0.75042235  0.46605877  1  -0.032719  -0.000562  3.617315  0.0  -0.079728  -0.000222  3.87536  0.0  -0.073191  -0.000263  3.889235  0.0  -0.056268  -0.085128  -0.000233  3.867259  0.0
C  C23  1  0.84599914  0.17776902  0.56836752  1  -0.050809  0.000295  3.730652  0.0  -0.025537  3.7e-05  3.967447  0.0  -0.036037  6.5e-05  3.988698  0.0  -0.006209  -0.01866  4.2e-05  3.952663  0.0
C  C24  1  0.15400155  0.82223769  0.43162228  1  -0.050847  0.000176  3.730775  0.0  -0.025562  4.3e-05  3.967502  0.0  -0.036065  6.2e-05  3.988757  0.0  -0.006231  -0.018687  4.2e-05  3.952715  0.0
C  C25  1  0.88613331  0.02806530  0.63626638  1  -0.075776  -0.000568  3.685723  0.0  -0.117335  -0.000266  3.945167  0.0  -0.112665  -0.000291  3.962199  0.0  -0.062477  -0.118297  -0.000327  3.932259  0.0
C  C26  1  0.11386570  0.97194357  0.36372652  1  -0.075786  -0.000382  3.685838  0.0  -0.117366  -0.000271  3.945233  0.0  -0.112702  -0.000284  3.962277  0.0  -0.062527  -0.118339  -0.000327  3.932331  0.0
C  C27  1  0.02982673  0.95353639  0.67073197  1  0.067441  0.000229  3.697085  0.0  0.058304  3.4e-05  3.946512  0.0  0.053007  5.6e-05  3.969959  0.0  0.076791  0.061032  3.2e-05  3.930534  0.0
C  C28  1  0.97017296  0.04647359  0.32925780  1  0.067384  0.00012  3.697218  0.0  0.058323  3.1e-05  3.946613  0.0  0.053021  5.4e-05  3.970067  0.0  0.076813  0.061064  3.2e-05  3.930614  0.0
C  C29  1  0.13690689  0.02056589  0.63080122  1  -0.056536  -0.000815  3.64166  0.0  -0.095504  -0.000449  3.900645  0.0  -0.089838  -0.000505  3.915086  0.0  -0.056753  -0.097132  -0.00049  3.889452  0.0
C  C30  1  0.86309041  0.97944189  0.36919033  1  -0.056755  -0.00054  3.641856  0.0  -0.095786  -0.000455  3.900886  0.0  -0.090117  -0.000506  3.915313  0.0  -0.05693  -0.097414  -0.00049  3.889692  0.0
C  C31  1  0.20328683  0.24801609  0.50570319  1  0.677012  -0.000488  3.869138  0.001  0.635998  0.002208  4.152308  0.004  0.673631  0.002116  4.148962  0.004  0.215068  0.609136  0.00196  4.159046  0.004
C  C32  1  0.79671008  0.75198623  0.49429100  1  0.676996  -0.000465  3.869143  0.001  0.635945  0.002208  4.152392  0.004  0.673572  0.002118  4.149057  0.004  0.214998  0.609091  0.001961  4.159126  0.004
C  C33  1  0.69355593  0.25784074  0.52552081  1  0.712391  -1.6e-05  3.857736  0.0  0.668958  -9e-06  4.138713  0.0  0.704793  -5e-06  4.136467  0.0  0.222696  0.644547  -5e-05  4.145755  0.0
C  C34  1  0.30644335  0.74216049  0.47447262  1  0.712397  3e-06  3.857794  0.0  0.669033  -1.2e-05  4.13864  0.0  0.704869  -8e-06  4.136392  0.0  0.222762  0.644621  -5e-05  4.145675  0.0
C  C35  1  0.38287960  0.26886775  0.87052311  1  -0.050132  -0.000147  3.684722  0.0  -0.028186  -1.1e-05  3.927877  0.0  -0.038791  -0.000278  3.949196  0.0  -0.003736  -0.021318  0.000323  3.912398  0.0
C  C36  1  0.61712100  0.73112578  0.12948355  1  -0.050013  -0.000179  3.684827  0.0  -0.028077  -1.3e-05  3.927967  0.0  -0.038678  -0.000274  3.949284  0.0  -0.003684  -0.021219  0.000323  3.912505  0.0
C  C37  1  0.41932212  0.28507218  0.98441479  1  -0.008416  0.00269  3.585556  0.003  -0.056093  0.001783  3.841748  0.002  -0.049917  0.001193  3.85668  0.001  -0.046374  -0.059069  0.002097  3.830652  0.002
C  C38  1  0.58068119  0.71491915  0.01559416  1  -0.008501  0.002703  3.585619  0.003  -0.056199  0.001786  3.841792  0.002  -0.050028  0.00119  3.856725  0.001  -0.04641  -0.059175  0.002097  3.830691  0.002
C  C39  1  0.40673646  0.18415890  0.10485088  1  -0.048685  0.008983  3.701523  0.01  -0.023936  0.004298  3.938181  0.005  -0.035473  0.002488  3.960447  0.003  -0.004787  -0.016338  0.005746  3.922594  0.007
C  C40  1  0.59326856  0.81583353  0.89515669  1  -0.048635  0.008973  3.701434  0.01  -0.023786  0.004294  3.938003  0.005  -0.035321  0.002491  3.96027  0.003  -0.004669  -0.016167  0.005745  3.922378  0.007
C  C41  1  0.35347880  0.07069355  0.11143905  1  -0.077825  0.001384  3.694822  0.001  -0.119311  0.00043  3.956525  0.0  -0.114588  0.00033  3.974176  0.0  -0.06584  -0.122528  0.000754  3.944794  0.001
C  C42  1  0.64652148  0.92930106  0.88856912  1  -0.077848  0.0014  3.69487  0.001  -0.119339  0.000433  3.956557  0.0  -0.114615  0.000323  3.974204  0.0  -0.065913  -0.12256  0.000754  3.944823  0.001
C  C43  1  0.30592982  0.06440332  0.99864880  1  0.061961  -0.001796  3.730291  -0.001  0.048052  -0.000444  3.987655  0.0  0.041282  -0.000514  4.012536  0.0  0.074718  0.052486  -0.000405  3.970748  0.0
C  C44  1  0.69406980  0.93559346  0.00136058  1  0.061908  -0.001813  3.729974  -0.001  0.04797  -0.000454  3.98753  0.0  0.041203  -0.0005  4.012406  0.0  0.074686  0.052403  -0.000405  3.970627  0.0
C  C45  1  0.32178363  0.16052717  0.87724191  1  -0.070057  0.003548  3.648749  0.003  -0.109395  0.001397  3.905555  0.001  -0.10433  0.000946  3.921403  0.001  -0.061484  -0.112533  0.00153  3.894478  0.001
C  C46  1  0.67821665  0.83946744  0.12276627  1  -0.070054  0.003575  3.648604  0.003  -0.109343  0.001398  3.905426  0.001  -0.104278  0.00094  3.921272  0.001  -0.061476  -0.112484  0.00153  3.894356  0.001
C  C47  1  0.41814661  0.36013889  0.73930544  1  0.71712  8.5e-05  3.845728  0.0  0.67049  6.9e-05  4.137396  0.0  0.707343  2.9e-05  4.130758  0.0  0.233693  0.646272  9.1e-05  4.143768  0.0
C  C48  1  0.58185465  0.63985246  0.26070093  1  0.716941  8e-05  3.845917  0.0  0.67031  6.9e-05  4.137606  0.0  0.707164  3.3e-05  4.130969  0.0  0.233536  0.646095  9.1e-05  4.143979  0.0
C  C49  1  0.45077496  0.18765356  0.23137300  1  0.693649  -0.006474  3.841292  -0.006  0.653326  -0.000504  4.133137  -0.001  0.693069  -0.000626  4.125394  -0.001  0.231765  0.626347  -0.0  4.13971  -0.001
C  C50  1  0.54923177  0.81233997  0.76863226  1  0.693668  -0.006478  3.841333  -0.006  0.653258  -0.000503  4.13329  -0.001  0.693  -0.000623  4.125547  -0.001  0.231673  0.626271  -0.0  4.139862  -0.001
N  N51  1  0.06945670  0.79618866  0.74582326  1  0.465576  -1e-05  3.960821  0.0  0.520261  -6e-06  4.221758  0.0  0.54035  -3e-06  4.231139  0.0  0.05595  0.506867  2e-06  4.215027  0.0
N  N52  1  0.93054233  0.20382351  0.25416406  1  0.46529  -4e-06  3.960845  0.0  0.519886  -4e-06  4.2219  0.0  0.539975  -3e-06  4.231284  0.0  0.055812  0.506491  2e-06  4.215171  0.0
N  N53  1  0.24260209  0.94937769  0.00961421  1  0.47719  -3.3e-05  3.942997  0.0  0.534873  -2.8e-05  4.194851  0.0  0.556434  -1.4e-05  4.203802  0.0  0.061696  0.520375  -2.3e-05  4.189169  0.0
N  N54  1  0.75739450  0.05062236  0.99039712  1  0.477375  -3.9e-05  3.942768  0.0  0.534857  -2.4e-05  4.194954  0.0  0.556418  -1.2e-05  4.203906  0.0  0.061675  0.520362  -2.3e-05  4.189276  0.0
O  O55  1  0.33561312  0.17857521  0.49274946  1  -0.732846  0.042838  2.22901  0.061  -0.691482  0.033162  2.519248  0.051  -0.737879  0.024516  2.507793  0.041  -0.369968  -0.664529  0.039505  2.529761  0.057
O  O56  1  0.66438719  0.82142600  0.50724754  1  -0.732866  0.042828  2.229108  0.061  -0.691475  0.033161  2.519329  0.051  -0.737872  0.024514  2.507884  0.041  -0.369916  -0.664525  0.039503  2.529841  0.057
O  O57  1  0.16485499  0.38611450  0.46848705  1  -0.649042  0.013056  1.953362  0.017  -0.608029  0.006608  2.189242  0.009  -0.642903  0.003019  2.178808  0.005  -0.349283  -0.587642  0.011834  2.194731  0.016
O  O58  1  0.83514567  0.61388893  0.53150285  1  -0.649013  0.01304  1.953371  0.017  -0.60804  0.006608  2.189313  0.009  -0.642915  0.003018  2.178888  0.005  -0.349257  -0.58765  0.011833  2.194789  0.016
O  O59  1  0.64136860  0.39208574  0.51729567  1  -0.820358  3.9e-05  2.220887  0.0  -0.75954  -7e-05  2.474807  0.0  -0.805466  -6.2e-05  2.464287  0.0  -0.422985  -0.740697  -5e-06  2.479938  0.0
O  O60  1  0.35862591  0.60791439  0.48270213  1  -0.820223  3.4e-05  2.220757  0.0  -0.759433  -7.1e-05  2.474646  0.0  -0.805357  -5.7e-05  2.464125  0.0  -0.42298  -0.740596  -5e-06  2.479786  0.0
O  O61  1  0.61811512  0.19411523  0.49329685  1  -0.705605  -0.001023  2.047148  0.0  -0.676715  -0.000893  2.31998  0.0  -0.710466  -0.00113  2.305472  0.0  -0.359158  -0.659826  -0.00062  2.330777  0.001
O  O62  1  0.38188891  0.80588382  0.50669689  1  -0.705683  -0.001035  2.047129  0.0  -0.676848  -0.000891  2.319976  0.0  -0.710598  -0.001134  2.305464  0.0  -0.359252  -0.659963  -0.00062  2.330773  0.001
O  O63  1  0.96978930  0.74295643  0.78477685  1  -0.351378  2.4e-05  1.717833  0.0  -0.348348  -9e-06  1.896111  0.0  -0.36013  2e-06  1.893162  0.0  -0.14105  -0.340143  -2e-06  1.898217  0.0
O  O64  1  0.03020940  0.25705684  0.21520833  1  -0.351078  1.2e-05  1.717665  0.0  -0.348001  -7e-06  1.895972  0.0  -0.359786  4e-06  1.893031  0.0  -0.140874  -0.339794  -2e-06  1.898079  0.0
O  O65  1  0.19871169  0.72670988  0.76407610  1  -0.314804  5.2e-05  1.752971  0.0  -0.310988  3.9e-05  1.938948  0.0  -0.32146  3.1e-05  1.935459  0.0  -0.11079  -0.303544  4.2e-05  1.941517  0.0
O  O66  1  0.80128971  0.27330120  0.23591045  1  -0.314817  4.2e-05  1.75316  0.0  -0.311  4.1e-05  1.939194  0.0  -0.321464  3e-05  1.935696  0.0  -0.110818  -0.303554  4.2e-05  1.941766  0.0
O  O67  1  0.38802238  0.33221034  0.64266025  1  -0.714127  0.000765  2.083147  0.001  -0.66402  0.000224  2.33046  0.0  -0.701406  5e-05  2.319871  0.0  -0.385717  -0.645371  0.000307  2.335275  0.0
O  O68  1  0.61197649  0.66777882  0.35734791  1  -0.714133  0.000765  2.08331  0.001  -0.664016  0.000223  2.330606  0.0  -0.701399  5e-05  2.320012  0.0  -0.385723  -0.645368  0.000307  2.335419  0.0
O  O69  1  0.48002202  0.45274986  0.73697896  1  -0.705547  -0.000166  2.025858  0.0  -0.659391  -7.2e-05  2.278474  0.0  -0.697008  -6.6e-05  2.264058  0.0  -0.397448  -0.640997  -3.4e-05  2.284907  0.0
O  O70  1  0.51998399  0.54723932  0.26302498  1  -0.705438  -0.00016  2.025891  0.0  -0.659274  -7.3e-05  2.278503  0.0  -0.696897  -7.2e-05  2.264094  0.0  -0.397355  -0.640876  -3.3e-05  2.284936  0.0
O  O71  1  0.43725261  0.30714928  0.24695764  1  -0.670003  0.001126  2.021364  0.003  -0.627052  0.000815  2.265503  0.002  -0.663807  0.000153  2.250085  0.001  -0.363308  -0.610123  0.001387  2.2735  0.003
O  O72  1  0.56275345  0.69284645  0.75304426  1  -0.670056  0.001125  2.02128  0.003  -0.627093  0.000816  2.265472  0.002  -0.663844  0.000153  2.250049  0.001  -0.363324  -0.61017  0.001387  2.273472  0.003
O  O73  1  0.49788054  0.05874596  0.31482542  1  -0.608473  0.084673  2.077302  0.117  -0.593372  0.047141  2.374892  0.072  -0.636678  0.033097  2.363594  0.055  -0.321218  -0.56399  0.056891  2.383413  0.081
O  O74  1  0.50212211  0.94124756  0.68518199  1  -0.608475  0.084672  2.077513  0.117  -0.593349  0.047137  2.375146  0.072  -0.636652  0.033098  2.363847  0.055  -0.321149  -0.563967  0.056891  2.383667  0.081
O  O75  1  0.24670934  0.85609144  0.11918033  1  -0.381012  -0.000174  1.8172  0.0  -0.362172  4e-05  2.01027  0.0  -0.377604  1.2e-05  2.006247  0.0  -0.124128  -0.352151  5e-06  2.013563  0.0
O  O76  1  0.75328557  0.14391078  0.88083046  1  -0.381102  -0.000139  1.817133  0.0  -0.362174  3.8e-05  2.010287  0.0  -0.377603  1.4e-05  2.006263  0.0  -0.124106  -0.35215  5e-06  2.01358  0.0
O  O77  1  0.18784503  0.95014341  0.91207964  1  -0.329278  -0.000364  1.774703  0.0  -0.328012  -0.000183  1.967537  0.0  -0.339403  -0.000191  1.964438  0.0  -0.119811  -0.3209  -0.000139  1.970533  0.0
O  O78  1  0.81214987  0.04985883  0.08792750  1  -0.329321  -0.000401  1.77467  0.0  -0.327999  -0.000182  1.967636  0.0  -0.33939  -0.000199  1.964535  0.0  -0.119813  -0.320887  -0.000139  1.970635  0.0
O  O79  1  0.22631562  0.57829742  0.25752889  1  -0.895832  -6.2e-05  1.871282  0.0  -0.851299  -4e-05  2.049959  0.0  -0.878258  -3e-05  2.012343  0.0  -0.624038  -0.839538  -5.2e-05  2.071194  0.0
O  O80  1  0.77368362  0.42169723  0.74247297  1  -0.895847  -6.3e-05  1.871215  0.0  -0.851314  -4e-05  2.049866  0.0  -0.878273  -3e-05  2.012247  0.0  -0.624097  -0.839557  -5.2e-05  2.071103  0.0
