# generated using pymatgen
data_ErH8(C3O5)2
_symmetry_space_group_name_H-M   'P 1'
_cell_length_a   5.97034197
_cell_length_b   7.33660397
_cell_length_c   13.09012437
_cell_angle_alpha   104.94040465
_cell_angle_beta   102.18429789
_cell_angle_gamma   90.07485672
_symmetry_Int_Tables_number   1
_chemical_formula_structural   ErH8(C3O5)2
_chemical_formula_sum   'Er2 H16 C12 O20'
_cell_volume   540.56828913
_cell_formula_units_Z   2
loop_
 _symmetry_equiv_pos_site_id
 _symmetry_equiv_pos_as_xyz
  1  'x, y, z'
loop_
 _atom_site_type_symbol
 _atom_site_label
 _atom_site_symmetry_multiplicity
 _atom_site_fract_x
 _atom_site_fract_y
 _atom_site_fract_z
 _atom_site_occupancy
 _atom_site_pbe_bader_charge
 _atom_site_pbe_bader_spin_density
 _atom_site_pbe_cm5_charge
 _atom_site_pbe_ddec_charge
 _atom_site_pbe_ddec_spin_density
 _atom_site_pbe_ddec_sum_bond_order
 _atom_site_pbe_magmom
Er  Er0  1  0.01576993  0.82307919  0.67990330  1  2.167561  0  1.489144  2.004815  0  2.139294  0
Er  Er1  1  0.98609521  0.15821845  0.31458168  1  2.169961  0  1.488426  2.004983  0  2.144643  0
H  H2  1  0.36989768  0.95883053  0.05923633  1  0.040169  0  0.108693  0.055565  0  0.99802  0
H  H3  1  0.62954286  0.89823309  0.93999257  1  0.068761  0  0.109504  0.0602  0  0.988123  0
H  H4  1  0.50316985  0.32177931  0.56546729  1  0.13317  0  0.130977  0.113962  0  0.938769  0
H  H5  1  0.47310502  0.30279822  0.73764492  1  0.135416  0  0.132949  0.108842  0  0.944283  0
H  H6  1  0.50174123  0.76075619  0.43114989  1  0.133448  0  0.130752  0.11363  0  0.939904  0
H  H7  1  0.52973188  0.59207554  0.25777454  1  0.128298  0  0.13258  0.108627  0  0.937941  0
H  H8  1  0.18326729  0.24317224  0.07802114  1  0.633481  0  0.296152  0.348596  0  0.978751  0
H  H9  1  0.79928153  0.15305365  0.90476502  1  0.633318  0  0.297127  0.351658  0  0.974537  0
H  H10  1  0.19585495  0.99369461  0.48518293  1  0.640741  0  0.305363  0.344779  0  1.004191  0
H  H11  1  0.15477375  0.20807728  0.76994681  1  0.669511  0  0.335211  0.389364  0  0.880182  0
H  H12  1  0.81075543  0.50363142  0.50772340  1  0.652858  0  0.304616  0.344219  0  1.008389  0
H  H13  1  0.84127417  0.45543049  0.22134345  1  0.627829  0  0.334446  0.387125  0  0.882115  0
H  H14  1  0.77858451  0.65548789  0.81615608  1  0.635467  0  0.338781  0.42866  0  0.849857  0
H  H15  1  0.59707617  0.71536555  0.72252977  1  0.654039  0  0.307286  0.409935  0  0.922146  0
H  H16  1  0.22353053  0.86740655  0.17976362  1  0.643147  0  0.334682  0.422695  0  0.860771  0
H  H17  1  0.40606169  0.01473298  0.27268975  1  0.668257  0  0.307133  0.410101  0  0.923117  0
C  C18  1  0.20314335  0.96451727  0.90046476  1  1.544533  0  0.18839  0.54315  0  4.20678  0
C  C19  1  0.37330053  0.05540985  0.00702081  1  0.532536  0  -0.001093  0.064113  0  3.908203  0
C  C20  1  0.61785093  0.04661370  0.98503164  1  0.509808  0  -0.001202  0.063411  0  3.902372  0
C  C21  1  0.78904131  0.07475700  0.09356802  1  1.528798  0  0.188504  0.546421  0  4.202058  0
C  C22  1  0.15222781  0.38688394  0.56615049  1  1.603647  0  0.242093  0.63786  0  4.09498  0
C  C23  1  0.34305298  0.24784861  0.56593104  1  0.444636  0  0.007589  0.046952  0  3.842042  0
C  C24  1  0.37524576  0.18712893  0.67226432  1  0.430797  0  0.008846  0.037338  0  3.840763  0
C  C25  1  0.51013798  0.00920817  0.67055691  1  1.609129  0  0.232011  0.621764  0  4.136638  0
C  C26  1  0.85258089  0.82633386  0.43045882  1  1.583554  0  0.241771  0.640155  0  4.097256  0
C  C27  1  0.66134458  0.68641554  0.42936804  1  0.455231  0  0.007002  0.045927  0  3.841255  0
C  C28  1  0.62705170  0.53179447  0.32117141  1  0.417889  0  0.010243  0.038218  0  3.835448  0
C  C29  1  0.49073769  0.35469998  0.32120011  1  1.616333  0  0.234714  0.625449  0  4.131308  0
O  O30  1  0.22367666  0.79310941  0.85357819  1  -1.180609  0  -0.377991  -0.609031  0  2.195277  0
O  O31  1  0.04797349  0.06054349  0.85764247  1  -1.21057  0  -0.362094  -0.646655  0  2.298388  0
O  O32  1  0.33406070  0.24258152  0.05815238  1  -1.14322  0  -0.409189  -0.480502  0  2.234835  0
O  O33  1  0.64888049  0.17464467  0.92469325  1  -1.146481  0  -0.40645  -0.482304  0  2.236913  0
O  O34  1  0.78023225  0.95248986  0.14590371  1  -1.175698  0  -0.380205  -0.611647  0  2.205327  0
O  O35  1  0.93352104  0.21883468  0.13227647  1  -1.201385  0  -0.362486  -0.647088  0  2.278133  0
O  O36  1  0.97736503  0.34172192  0.48646289  1  -1.174411  0  -0.377716  -0.630598  0  2.36803  0
O  O37  1  0.17373114  0.53407792  0.64257588  1  -1.195744  0  -0.37774  -0.608391  0  2.313006  0
O  O38  1  0.28788106  0.09619082  0.46982098  1  -1.171705  0  -0.421323  -0.548106  0  2.381097  0
O  O39  1  0.15414857  0.15478980  0.69298062  1  -1.166608  0  -0.416927  -0.54125  0  2.410561  0
O  O40  1  0.40871058  0.86893752  0.68619901  1  -1.179628  0  -0.366395  -0.632395  0  2.382384  0
O  O41  1  0.71146298  0.01280015  0.65566634  1  -1.192302  0  -0.385766  -0.621933  0  2.309346  0
O  O42  1  0.03091837  0.84821002  0.50797394  1  -1.176167  0  -0.376292  -0.630024  0  2.353373  0
O  O43  1  0.82749545  0.90962133  0.35677005  1  -1.181724  0  -0.38019  -0.611041  0  2.327922  0
O  O44  1  0.71661544  0.61884004  0.52395624  1  -1.175159  0  -0.421868  -0.55102  0  2.380797  0
O  O45  1  0.84741176  0.48089443  0.29930416  1  -1.120606  0  -0.411172  -0.53454  0  2.392522  0
O  O46  1  0.59359434  0.20084117  0.30691157  1  -1.183907  0  -0.367506  -0.634354  0  2.382901  0
O  O47  1  0.28782958  0.37041138  0.33401261  1  -1.194503  0  -0.385896  -0.623531  0  2.301819  0
O  O48  1  0.75036613  0.66081066  0.74118184  1  -1.258783  0  -0.626837  -0.837594  0  2.0541  0
O  O49  1  0.25309001  0.94215160  0.25466207  1  -1.283113  0  -0.628649  -0.836509  0  2.069293  0
