# generated using pymatgen
data_Zn4H22C42N4O13
_symmetry_space_group_name_H-M   'P 1'
_cell_length_a   10.98796177
_cell_length_b   10.98797071
_cell_length_c   17.07046984
_cell_angle_alpha   91.34927566
_cell_angle_beta   91.34925535
_cell_angle_gamma   89.56313939
_symmetry_Int_Tables_number   1
_chemical_formula_structural   Zn4H22C42N4O13
_chemical_formula_sum   'Zn8 H44 C84 N8 O26'
_cell_volume   2059.81575414
_cell_formula_units_Z   2
loop_
 _symmetry_equiv_pos_site_id
 _symmetry_equiv_pos_as_xyz
  1  'x, y, z'
loop_
 _atom_site_type_symbol
 _atom_site_label
 _atom_site_symmetry_multiplicity
 _atom_site_fract_x
 _atom_site_fract_y
 _atom_site_fract_z
 _atom_site_occupancy
 _atom_site_pbe_bader_charge
 _atom_site_pbe_bader_spin_density
 _atom_site_pbe_cm5_charge
 _atom_site_pbe_ddec_charge
 _atom_site_pbe_ddec_spin_density
 _atom_site_pbe_ddec_sum_bond_order
 _atom_site_pbe_magmom
Zn  Zn0  1  0.46159574  0.65785138  0.81754788  1  1.290627  0  0.652365  0.927395  0  2.408434  0
Zn  Zn1  1  0.81971794  0.30095745  0.17403263  1  1.288636  0  0.664017  0.843527  0  2.335848  0
Zn  Zn2  1  0.34214879  0.53840342  0.68245209  1  1.290685  0  0.652362  0.927406  0  2.408438  0
Zn  Zn3  1  0.69904141  0.18028067  0.32596682  1  1.288658  0  0.664006  0.843512  0  2.335836  0
Zn  Zn4  1  0.53840279  0.34214806  0.18245273  1  1.290626  0  0.652333  0.927357  0  2.408537  0
Zn  Zn5  1  0.18028059  0.69904199  0.82596797  1  1.288543  0  0.664016  0.843541  0  2.335783  0
Zn  Zn6  1  0.65785245  0.46159786  0.31754800  1  1.290675  0  0.652362  0.927402  0  2.408518  0
Zn  Zn7  1  0.30095714  0.81971786  0.67403260  1  1.288646  0  0.664027  0.84354  0  2.335811  0
H  H8  1  0.55255044  0.64355548  0.03083641  1  0.127499  0  0.109064  0.120014  0  1.009335  0
H  H9  1  0.69939077  0.81904430  0.23980721  1  0.14114  0  0.106332  0.11387  0  1.019961  0
H  H10  1  0.68500737  0.00888393  0.02170617  1  0.101884  0  0.104117  0.103856  0  1.035984  0
H  H11  1  0.00714035  0.81079620  0.12491206  1  0.106439  0  0.115689  0.11624  0  0.969731  0
H  H12  1  0.92954516  0.78636271  0.98402426  1  0.108767  0  0.113239  0.121059  0  0.972079  0
H  H13  1  0.65979466  0.25200998  0.87866101  1  0.091156  0  0.112193  0.120177  0  0.985109  0
H  H14  1  0.72007465  0.46398380  0.84126188  1  0.111226  0  0.112794  0.11948  0  0.989847  0
H  H15  1  0.82376291  0.66098943  0.88158832  1  0.072558  0  0.114583  0.126871  0  0.982513  0
H  H16  1  0.03101286  0.71855271  0.25846869  1  0.090302  0  0.115196  0.125923  0  0.975875  0
H  H17  1  0.70442225  0.18489566  0.01564771  1  0.157835  0  0.119435  0.091358  0  1.033375  0
H  H18  1  0.95854372  0.50956609  0.27820116  1  0.154277  0  0.117968  0.092734  0  1.028477  0
H  H19  1  0.35644449  0.44745276  0.46916556  1  0.127877  0  0.109065  0.120032  0  1.009321  0
H  H20  1  0.18095664  0.30061247  0.26019244  1  0.141153  0  0.106341  0.113875  0  1.019934  0
H  H21  1  0.99111423  0.31499711  0.47829276  1  0.10188  0  0.104147  0.103846  0  1.036006  0
H  H22  1  0.18920340  0.99285858  0.37508816  1  0.106424  0  0.11568  0.116203  0  0.96976  0
H  H23  1  0.21363581  0.07045613  0.51597568  1  0.108768  0  0.113235  0.121054  0  0.972029  0
H  H24  1  0.74798858  0.34020641  0.62133831  1  0.091158  0  0.112184  0.120153  0  0.985098  0
H  H25  1  0.53601400  0.27992790  0.65873747  1  0.111248  0  0.112793  0.119464  0  0.989867  0
H  H26  1  0.33900828  0.17623740  0.61841042  1  0.07257  0  0.114621  0.126912  0  0.982451  0
H  H27  1  0.28144707  0.96898452  0.24153208  1  0.090247  0  0.115215  0.125959  0  0.975879  0
H  H28  1  0.81510289  0.29557800  0.48435118  1  0.15781  0  0.119435  0.091333  0  1.033419  0
H  H29  1  0.49043229  0.04145478  0.22179830  1  0.154275  0  0.117974  0.09272  0  1.028489  0
H  H30  1  0.44745265  0.35644215  0.96916482  1  0.127913  0  0.109059  0.120014  0  1.009365  0
H  H31  1  0.30061140  0.18095606  0.76019289  1  0.141154  0  0.106328  0.113869  0  1.019924  0
H  H32  1  0.31499757  0.99111280  0.97829274  1  0.101858  0  0.10415  0.103857  0  1.035996  0
H  H33  1  0.99285816  0.18920506  0.87508858  1  0.106445  0  0.115666  0.116193  0  0.96975  0
H  H34  1  0.07045429  0.21363583  0.01597576  1  0.108763  0  0.113243  0.12106  0  0.972012  0
H  H35  1  0.34020661  0.74798856  0.12133962  1  0.091137  0  0.112204  0.120197  0  0.985038  0
H  H36  1  0.27992752  0.53601565  0.15873820  1  0.111286  0  0.112792  0.119469  0  0.989841  0
H  H37  1  0.17623745  0.33901002  0.11841115  1  0.07255  0  0.114594  0.126857  0  0.982506  0
H  H38  1  0.96898566  0.28144764  0.74153251  1  0.090328  0  0.115201  0.125954  0  0.97591  0
H  H39  1  0.29557810  0.81510378  0.98435292  1  0.15784  0  0.119433  0.091346  0  1.033399  0
H  H40  1  0.04145663  0.49043336  0.72179948  1  0.154269  0  0.11796  0.092761  0  1.028486  0
H  H41  1  0.64355674  0.55255033  0.53083398  1  0.127945  0  0.109057  0.120013  0  1.009326  0
H  H42  1  0.81904186  0.69939062  0.73980647  1  0.141149  0  0.10634  0.113864  0  1.01996  0
H  H43  1  0.00888609  0.68500598  0.52170676  1  0.101862  0  0.104125  0.103855  0  1.036002  0
H  H44  1  0.81079420  0.00714359  0.62491189  1  0.106363  0  0.115678  0.116213  0  0.969741  0
H  H45  1  0.78636449  0.92954787  0.48402503  1  0.108836  0  0.11323  0.12105  0  0.972046  0
H  H46  1  0.25201083  0.65979577  0.37866119  1  0.091177  0  0.112178  0.120167  0  0.985078  0
H  H47  1  0.46398451  0.72007428  0.34126201  1  0.111227  0  0.112803  0.119484  0  0.989841  0
H  H48  1  0.66099023  0.82376478  0.38158848  1  0.072557  0  0.114599  0.12689  0  0.982481  0
H  H49  1  0.71855147  0.03101401  0.75846851  1  0.090255  0  0.115199  0.125929  0  0.97587  0
H  H50  1  0.18489655  0.70442236  0.51564711  1  0.157831  0  0.119423  0.091342  0  1.033447  0
H  H51  1  0.50956626  0.95854284  0.77820169  1  0.15427  0  0.117968  0.09274  0  1.028488  0
C  C52  1  0.69702579  0.92659224  0.13585804  1  -0.055177  0  -0.021408  -0.04914  0  3.986327  0
C  C53  1  0.59278191  0.72306631  0.06002481  1  -0.076624  0  -0.073787  -0.096158  0  3.943353  0
C  C54  1  0.74443673  0.03777958  0.17895691  1  1.5507  0  0.216417  0.596078  0  4.170257  0
C  C55  1  0.61282009  0.82813922  0.01796216  1  0.018285  0  -0.018738  -0.039541  0  3.977696  0
C  C56  1  0.67550801  0.82146442  0.17766099  1  -0.039653  0  -0.074579  -0.097189  0  3.938082  0
C  C57  1  0.57671845  0.83022227  0.93231150  1  1.579502  0  0.204226  0.581798  0  4.23167  0
C  C58  1  0.62555653  0.71909712  0.13939975  1  -0.030588  0  -0.027923  -0.060086  0  4.025778  0
C  C59  1  0.66750979  0.92857946  0.05559258  1  -0.039415  0  -0.066759  -0.081636  0  3.908294  0
C  C60  1  0.60842092  0.60480391  0.18257285  1  1.535368  0  0.213707  0.585828  0  4.185051  0
C  C61  1  0.97608101  0.71876180  0.13579101  1  -0.1137  0  -0.058441  -0.0736  0  3.938791  0
C  C62  1  0.89870310  0.69499056  0.99677270  1  -0.076368  0  -0.079531  -0.116258  0  3.977748  0
C  C63  1  0.70600349  0.31377276  0.92021126  1  -0.04972  0  -0.078705  -0.127097  0  3.970751  0
C  C64  1  0.73934787  0.42963969  0.89976031  1  -0.034059  0  -0.055263  -0.058048  0  3.900352  0
C  C65  1  0.84044153  0.62571044  0.94006863  1  0.059246  0  -0.076725  -0.107216  0  3.949772  0
C  C66  1  0.99038118  0.66834622  0.20882946  1  0.010174  0  -0.076224  -0.118098  0  3.954506  0
C  C67  1  0.79920906  0.50570474  0.95614869  1  0.047371  0  0.002334  0.048137  0  3.989689  0
C  C68  1  0.91910011  0.65043629  0.07419515  1  0.01114  0  0.000389  0.044339  0  4.012111  0
C  C69  1  0.73030481  0.27463348  0.99693470  1  0.507163  0  0.06627  0.131973  0  3.90902  0
C  C70  1  0.87904410  0.53194933  0.09189018  1  0.47385  0  0.116932  0.11815  0  3.990639  0
C  C71  1  0.94912467  0.54925554  0.22055737  1  0.525471  0  0.065212  0.128835  0  3.907506  0
C  C72  1  0.81936136  0.45841106  0.03208366  1  0.468808  0  0.119069  0.123345  0  3.983898  0
C  C73  1  0.07340734  0.30297643  0.36414158  1  -0.05516  0  -0.021418  -0.049233  0  3.986431  0
C  C74  1  0.27693338  0.40721946  0.43997596  1  -0.076994  0  -0.073784  -0.09617  0  3.943346  0
C  C75  1  0.96221981  0.25556446  0.32104316  1  1.550704  0  0.216403  0.59604  0  4.170343  0
C  C76  1  0.17185911  0.38718145  0.48203919  1  0.018034  0  -0.018735  -0.039567  0  3.977731  0
C  C77  1  0.17853530  0.32449388  0.32233862  1  -0.039647  0  -0.074601  -0.09718  0  3.938113  0
C  C78  1  0.16977426  0.42328416  0.56768906  1  1.579785  0  0.204195  0.581645  0  4.231835  0
C  C79  1  0.28090288  0.37444513  0.36060102  1  -0.030583  0  -0.027967  -0.060138  0  4.025805  0
C  C80  1  0.07141852  0.33249223  0.44440760  1  -0.039504  0  -0.066747  -0.081462  0  3.908154  0
C  C81  1  0.39519606  0.39157997  0.31742849  1  1.535411  0  0.213674  0.585769  0  4.185025  0
C  C82  1  0.28123764  0.02391921  0.36420969  1  -0.113561  0  -0.058426  -0.073523  0  3.938905  0
C  C83  1  0.30500808  0.10129724  0.50322663  1  -0.076393  0  -0.079549  -0.116263  0  3.97766  0
C  C84  1  0.68622637  0.29399721  0.57978747  1  -0.049726  0  -0.078777  -0.127149  0  3.970876  0
C  C85  1  0.57035937  0.26065388  0.60023904  1  -0.034066  0  -0.055231  -0.058013  0  3.900355  0
C  C86  1  0.37428882  0.15955975  0.55993072  1  0.059307  0  -0.076737  -0.107214  0  3.949781  0
C  C87  1  0.33165344  0.00961734  0.29117003  1  0.010141  0  -0.076212  -0.118143  0  3.954514  0
C  C88  1  0.49429393  0.20079065  0.54385121  1  0.047315  0  0.002323  0.048133  0  3.989815  0
C  C89  1  0.34956230  0.08089844  0.42580492  1  0.010983  0  0.000386  0.044277  0  4.01224  0
C  C90  1  0.72536588  0.26969466  0.50306401  1  0.507246  0  0.066358  0.132114  0  3.909117  0
C  C91  1  0.46805076  0.12095564  0.40810875  1  0.473871  0  0.116868  0.118128  0  3.990822  0
C  C92  1  0.45074211  0.05087382  0.27944208  1  0.52545  0  0.065145  0.128821  0  3.907578  0
C  C93  1  0.54158703  0.18063904  0.46791525  1  0.468859  0  0.119066  0.123287  0  3.984032  0
C  C94  1  0.30297638  0.07340812  0.86414206  1  -0.055052  0  -0.021424  -0.049251  0  3.986376  0
C  C95  1  0.40721937  0.27693131  0.93997581  1  -0.07698  0  -0.073789  -0.096115  0  3.94336  0
C  C96  1  0.25556363  0.96221895  0.82104371  1  1.550545  0  0.216407  0.59607  0  4.170322  0
C  C97  1  0.38718118  0.17185840  0.98203963  1  0.018024  0  -0.018754  -0.039685  0  3.977879  0
C  C98  1  0.32449326  0.17853503  0.82233849  1  -0.039666  0  -0.074572  -0.097143  0  3.93803  0
C  C99  1  0.42328195  0.16977171  0.06769022  1  1.579806  0  0.204181  0.581683  0  4.231817  0
C  C100  1  0.37444565  0.28090142  0.86060031  1  -0.0306  0  -0.027949  -0.060129  0  4.025763  0
C  C101  1  0.33249149  0.07141817  0.94440804  1  -0.039515  0  -0.066769  -0.081492  0  3.908254  0
C  C102  1  0.39158035  0.39519463  0.81742837  1  1.535395  0  0.213663  0.585724  0  4.185088  0
C  C103  1  0.02391841  0.28123855  0.86421021  1  -0.11371  0  -0.058445  -0.073595  0  3.938842  0
C  C104  1  0.10129907  0.30500981  0.00322740  1  -0.07634  0  -0.079594  -0.116345  0  3.977732  0
C  C105  1  0.29399503  0.68622759  0.07978877  1  -0.049665  0  -0.078676  -0.12703  0  3.970699  0
C  C106  1  0.26065341  0.57035886  0.10023916  1  -0.034148  0  -0.055269  -0.058074  0  3.900316  0
C  C107  1  0.15955972  0.37428992  0.05993204  1  0.059209  0  -0.076707  -0.107124  0  3.949799  0
C  C108  1  0.00961734  0.33165413  0.79117116  1  0.010165  0  -0.076192  -0.118091  0  3.954551  0
C  C109  1  0.20079129  0.49429380  0.04385193  1  0.04734  0  0.002322  0.048153  0  3.98975  0
C  C110  1  0.08089932  0.34956406  0.92580549  1  0.011126  0  0.000401  0.04437  0  4.01217  0
C  C111  1  0.26969553  0.72536688  0.00306595  1  0.507148  0  0.066259  0.131959  0  3.909216  0
C  C112  1  0.12095533  0.46805103  0.90810987  1  0.473835  0  0.116953  0.118182  0  3.990738  0
C  C113  1  0.05087477  0.45074390  0.77944325  1  0.52549  0  0.065228  0.12881  0  3.907532  0
C  C114  1  0.18063809  0.54158748  0.96791636  1  0.468819  0  0.11901  0.123227  0  3.983933  0
C  C115  1  0.92659117  0.69702575  0.63585789  1  -0.05515  0  -0.021378  -0.049065  0  3.986214  0
C  C116  1  0.72306787  0.59278272  0.56002298  1  -0.077159  0  -0.073728  -0.096016  0  3.943229  0
C  C117  1  0.03777963  0.74443590  0.67895689  1  1.550705  0  0.216396  0.59602  0  4.170379  0
C  C118  1  0.82814120  0.61282164  0.51796034  1  0.018085  0  -0.018752  -0.0397  0  3.977815  0
C  C119  1  0.82146322  0.67550648  0.67766141  1  -0.039671  0  -0.074592  -0.097175  0  3.938004  0
C  C120  1  0.83022788  0.57671986  0.43230875  1  1.579889  0  0.204228  0.581756  0  4.231758  0
C  C121  1  0.71909745  0.62555706  0.63939849  1  -0.030587  0  -0.028001  -0.060197  0  4.025729  0
C  C122  1  0.92858179  0.66751086  0.55559251  1  -0.039423  0  -0.066798  -0.081614  0  3.908309  0
C  C123  1  0.60480428  0.60842130  0.68257101  1  1.535455  0  0.213695  0.58577  0  4.185064  0
C  C124  1  0.71876087  0.97608205  0.63579036  1  -0.11347  0  -0.058458  -0.073638  0  3.938808  0
C  C125  1  0.69498954  0.89870311  0.49677280  1  -0.076416  0  -0.079539  -0.116266  0  3.977734  0
C  C126  1  0.31377304  0.70600588  0.42021145  1  -0.049704  0  -0.078641  -0.126991  0  3.970744  0
C  C127  1  0.42964095  0.73934830  0.39976105  1  -0.034048  0  -0.055251  -0.05804  0  3.900406  0
C  C128  1  0.62571061  0.84044152  0.44006817  1  0.059226  0  -0.076727  -0.107214  0  3.949802  0
C  C129  1  0.66834418  0.99038302  0.70882941  1  0.010194  0  -0.076196  -0.118048  0  3.95449  0
C  C130  1  0.50570549  0.79921062  0.45614827  1  0.047398  0  0.002323  0.048095  0  3.989698  0
C  C131  1  0.65043622  0.91910191  0.57419511  1  0.010973  0  0.00042  0.044408  0  4.012162  0
C  C132  1  0.27463174  0.73030570  0.49693425  1  0.507135  0  0.06622  0.131874  0  3.909232  0
C  C133  1  0.53194959  0.87904473  0.59189073  1  0.473851  0  0.116892  0.118089  0  3.990763  0
C  C134  1  0.54925462  0.94912380  0.72055729  1  0.525459  0  0.065186  0.128745  0  3.907657  0
C  C135  1  0.45841149  0.81936223  0.53208363  1  0.468766  0  0.119024  0.12332  0  3.983729  0
N  N136  1  0.89464553  0.48322654  0.16377427  1  -1.255123  0  -0.314434  -0.278787  0  3.532011  0
N  N137  1  0.78509864  0.34493582  0.05150742  1  -1.247401  0  -0.311427  -0.269308  0  3.513864  0
N  N138  1  0.51677179  0.10535500  0.33622522  1  -1.255109  0  -0.314351  -0.278696  0  3.532117  0
N  N139  1  0.65506273  0.21490187  0.44849266  1  -1.247471  0  -0.311442  -0.269349  0  3.513948  0
N  N140  1  0.10535483  0.51677200  0.83622635  1  -1.25513  0  -0.314419  -0.278751  0  3.532015  0
N  N141  1  0.21490171  0.65506454  0.94849323  1  -1.247354  0  -0.311421  -0.269338  0  3.513969  0
N  N142  1  0.48322673  0.89464536  0.66377422  1  -1.255152  0  -0.314375  -0.278669  0  3.532163  0
N  N143  1  0.34493488  0.78509848  0.55150677  1  -1.247369  0  -0.31141  -0.269286  0  3.513869  0
O  O144  1  0.50050884  0.74362661  0.91284321  1  -1.175409  0  -0.342324  -0.583613  0  2.410264  0
O  O145  1  0.61770385  0.90848292  0.88886378  1  -1.164433  0  -0.328815  -0.550417  0  2.099094  0
O  O146  1  0.78205746  0.12422920  0.13772842  1  -1.178039  0  -0.317758  -0.549066  0  2.347996  0
O  O147  1  0.73976598  0.03659146  0.25358331  1  -1.144663  0  -0.325893  -0.550451  0  2.3244  0
O  O148  1  0.57404148  0.51110357  0.14302219  1  -1.179241  0  -0.31179  -0.543687  0  2.343127  0
O  O149  1  0.63096206  0.61017639  0.25657722  1  -1.162028  0  -0.320886  -0.558801  0  2.363655  0
O  O150  1  0.25637056  0.49949321  0.58715793  1  -1.175401  0  -0.342352  -0.583611  0  2.410367  0
O  O151  1  0.09151244  0.38229908  0.61113618  1  -1.164448  0  -0.328744  -0.550305  0  2.099131  0
O  O152  1  0.87577023  0.21794370  0.36227165  1  -1.178034  0  -0.317761  -0.549058  0  2.348009  0
O  O153  1  0.96340811  0.26023446  0.24641676  1  -1.144651  0  -0.325891  -0.550426  0  2.324407  0
O  O154  1  0.48889675  0.42596045  0.35697858  1  -1.179281  0  -0.311774  -0.543666  0  2.343065  0
O  O155  1  0.38982448  0.36903964  0.24342414  1  -1.162027  0  -0.320858  -0.558741  0  2.363619  0
O  O156  1  0.49949061  0.25637100  0.08716031  1  -1.175339  0  -0.342346  -0.583604  0  2.410352  0
O  O157  1  0.38230022  0.09150926  0.11113562  1  -1.164533  0  -0.328719  -0.550276  0  2.0992  0
O  O158  1  0.21794380  0.87577025  0.86227223  1  -1.177888  0  -0.317724  -0.549017  0  2.34815  0
O  O159  1  0.26023348  0.96340708  0.74641671  1  -1.144644  0  -0.325927  -0.550474  0  2.32429  0
O  O160  1  0.42595978  0.48889588  0.85697788  1  -1.179246  0  -0.311762  -0.54363  0  2.343075  0
O  O161  1  0.36903829  0.38982305  0.74342458  1  -1.162024  0  -0.320882  -0.558762  0  2.363654  0
O  O162  1  0.74363159  0.50050989  0.41284045  1  -1.175379  0  -0.342351  -0.583608  0  2.410383  0
O  O163  1  0.90848970  0.61770402  0.38886338  1  -1.164586  0  -0.328764  -0.550338  0  2.099173  0
O  O164  1  0.12422919  0.78205757  0.63772900  1  -1.178032  0  -0.317768  -0.549059  0  2.348039  0
O  O165  1  0.03659133  0.73976499  0.75358328  1  -1.144653  0  -0.325867  -0.550438  0  2.324453  0
O  O166  1  0.51110269  0.57403991  0.64302147  1  -1.179318  0  -0.311781  -0.543663  0  2.343062  0
O  O167  1  0.61017494  0.63096254  0.75657594  1  -1.162006  0  -0.320887  -0.55878  0  2.363624  0
O  O168  1  0.31732666  0.68267247  0.75000028  1  -1.215587  0  -0.560218  -0.945533  0  2.388601  0
O  O169  1  0.68267370  0.31732698  0.24999977  1  -1.215586  0  -0.560212  -0.945518  0  2.388645  0
