# generated using pymatgen
data_SrH8C11N2O5
_symmetry_space_group_name_H-M   'P 1'
_cell_length_a   6.60709060
_cell_length_b   12.59728674
_cell_length_c   14.03000000
_cell_angle_alpha   103.63731881
_cell_angle_beta   90.00000000
_cell_angle_gamma   90.00000000
_symmetry_Int_Tables_number   1
_chemical_formula_structural   SrH8C11N2O5
_chemical_formula_sum   'Sr4 H32 C44 N8 O20'
_cell_volume   1134.81549247
_cell_formula_units_Z   4
loop_
 _symmetry_equiv_pos_site_id
 _symmetry_equiv_pos_as_xyz
  1  'x, y, z'
loop_
 _atom_site_type_symbol
 _atom_site_label
 _atom_site_symmetry_multiplicity
 _atom_site_fract_x
 _atom_site_fract_y
 _atom_site_fract_z
 _atom_site_occupancy
 _atom_site_hle17_bader_spin_density
 _atom_site_hle17_ddec_charge
 _atom_site_hle17_ddec_spin_density
 _atom_site_hle17_ddec_sum_bond_order
 _atom_site_hle17_magmom
 _atom_site_hse06_10hf_bader_spin_density
 _atom_site_hse06_10hf_ddec_charge
 _atom_site_hse06_10hf_ddec_spin_density
 _atom_site_hse06_10hf_ddec_sum_bond_order
 _atom_site_hse06_10hf_magmom
 _atom_site_hse06_bader_spin_density
 _atom_site_hse06_ddec_charge
 _atom_site_hse06_ddec_spin_density
 _atom_site_hse06_ddec_sum_bond_order
 _atom_site_hse06_magmom
 _atom_site_pbe_bader_charge
 _atom_site_pbe_bader_spin_density
 _atom_site_pbe_cm5_charge
 _atom_site_pbe_ddec_charge
 _atom_site_pbe_ddec_spin_density
 _atom_site_pbe_ddec_sum_bond_order
 _atom_site_pbe_magmom
Sr  Sr0  1  0.06609566  0.16214731  0.46944890  1  0  1.61384  0  1.130277  0  0  1.47764  0  1.486616  0  0  1.518526  0  1.442003  0  1.675558  0  0.981246  1.447592  0  1.518035  0
Sr  Sr1  1  0.56609334  0.33785108  0.53055528  1  0  1.613937  0  1.130144  0  0  1.477674  0  1.486588  0  0  1.518602  0  1.4419  0  1.675554  0  0.981265  1.447628  0  1.518007  0
Sr  Sr2  1  0.93390425  0.83785110  0.53055268  1  0  1.613927  0  1.130191  0  0  1.477725  0  1.486558  0  0  1.518583  0  1.441981  0  1.675612  0  0.981277  1.447676  0  1.51798  0
Sr  Sr3  1  0.43390505  0.66214815  0.46944648  1  0  1.613913  0  1.130161  0  0  1.477691  0  1.486562  0  0  1.518581  0  1.441929  0  1.675526  0  0.981264  1.447644  0  1.517981  0
H  H4  1  0.04305980  0.17826459  0.25667915  1  0  0.391754  0  0.928285  0  0  0.349449  0  1.016643  0  0  0.361102  0  0.999931  0  0.64542  0  0.2836  0.34127  0  1.028338  0
H  H5  1  0.54306051  0.32173461  0.74332093  1  0  0.391738  0  0.928338  0  0  0.349434  0  1.016663  0  0  0.361088  0  0.999951  0  0.645414  0  0.28361  0.341256  0  1.028358  0
H  H6  1  0.95694011  0.82173382  0.74332030  1  0  0.391734  0  0.928326  0  0  0.349428  0  1.016674  0  0  0.361082  0  0.99996  0  0.64541  0  0.283602  0.34125  0  1.028368  0
H  H7  1  0.45694091  0.67826380  0.25667923  1  0  0.391773  0  0.92825  0  0  0.349459  0  1.016634  0  0  0.361112  0  0.99992  0  0.64543  0  0.283604  0.341279  0  1.028328  0
H  H8  1  0.85526147  0.00439221  0.27553139  1  0  0.325733  0  0.896756  0  0  0.305041  0  0.962907  0  0  0.313436  0  0.955774  0  0.54522  0  0.322447  0.299092  0  0.96803  0
H  H9  1  0.35526076  0.49560700  0.72447154  1  0  0.325864  0  0.896685  0  0  0.305099  0  0.96291  0  0  0.313494  0  0.955776  0  0.545341  0  0.322482  0.299152  0  0.968028  0
H  H10  1  0.14473390  0.99560947  0.72447018  1  0  0.3257  0  0.896748  0  0  0.305015  0  0.9629  0  0  0.313409  0  0.955767  0  0.545336  0  0.322449  0.299068  0  0.968017  0
H  H11  1  0.64473915  0.50439059  0.27552916  1  0  0.325724  0  0.896767  0  0  0.305023  0  0.962922  0  0  0.313419  0  0.955788  0  0.545347  0  0.322454  0.299077  0  0.968039  0
H  H12  1  0.02551804  0.91932215  0.14151415  1  0  0.093265  0  0.964013  0  0  0.105365  0  1.024009  0  0  0.108995  0  1.021402  0  0.060824  0  0.101285  0.102723  0  1.025996  0
H  H13  1  0.52552026  0.58068036  0.85848570  1  0  0.093294  0  0.96403  0  0  0.105398  0  1.024017  0  0  0.109028  0  1.021409  0  0.060845  0  0.101308  0.102756  0  1.026003  0
H  H14  1  0.97447733  0.08068198  0.85848722  1  0  0.093307  0  0.963972  0  0  0.105382  0  1.023989  0  0  0.109014  0  1.021381  0  0.060915  0  0.101287  0.10274  0  1.025976  0
H  H15  1  0.47447964  0.41931805  0.14151232  1  0  0.093284  0  0.964078  0  0  0.105384  0  1.024074  0  0  0.109016  0  1.021463  0  0.060886  0  0.101296  0.102742  0  1.02606  0
H  H16  1  0.28845828  0.80378761  0.04144770  1  0  0.084186  0  0.977155  0  0  0.093712  0  1.040528  0  0  0.095213  0  1.042275  0  0.088121  0  0.095974  0.09266  0  1.039313  0
H  H17  1  0.78845899  0.69621491  0.95855358  1  0  0.084196  0  0.97721  0  0  0.09373  0  1.040571  0  0  0.095231  0  1.042319  0  0.088121  0  0.095982  0.092678  0  1.039357  0
H  H18  1  0.71154163  0.19622224  0.95855488  1  0  0.08413  0  0.977268  0  0  0.09367  0  1.040634  0  0  0.095168  0  1.04239  0  0.088139  0  0.095962  0.092618  0  1.03942  0
H  H19  1  0.21154092  0.30378187  0.04144481  1  0  0.084194  0  0.977145  0  0  0.093718  0  1.040523  0  0  0.095215  0  1.042285  0  0.088115  0  0.095984  0.092666  0  1.039309  0
H  H20  1  0.28077714  0.60239797  0.01832277  1  0  0.085362  0  0.951507  0  0  0.097376  0  1.010116  0  0  0.099944  0  1.009116  0  0.055499  0  0.098357  0.095518  0  1.010876  0
H  H21  1  0.78077028  0.89760618  0.98167957  1  0  0.085351  0  0.951562  0  0  0.097347  0  1.010198  0  0  0.099914  0  1.009199  0  0.055483  0  0.098347  0.095496  0  1.01095  0
H  H22  1  0.71923639  0.39760942  0.98167929  1  0  0.085423  0  0.951598  0  0  0.097398  0  1.010241  0  0  0.099965  0  1.009241  0  0.055417  0  0.098343  0.095546  0  1.010995  0
H  H23  1  0.21922660  0.10239223  0.01831988  1  0  0.08539  0  0.951588  0  0  0.097394  0  1.010206  0  0  0.099961  0  1.009207  0  0.055434  0  0.098342  0.095543  0  1.010959  0
H  H24  1  0.00266380  0.51561739  0.09436344  1  0  0.08525  0  0.964206  0  0  0.096379  0  1.023979  0  0  0.098702  0  1.02395  0  0.019145  0  0.096664  0.094705  0  1.024091  0
H  H25  1  0.50265846  0.98438431  0.90563624  1  0  0.085261  0  0.964223  0  0  0.096387  0  1.024004  0  0  0.098713  0  1.023967  0  0.019133  0  0.096664  0.094714  0  1.024115  0
H  H26  1  0.99734821  0.48438755  0.90563810  1  0  0.085303  0  0.964237  0  0  0.096382  0  1.024067  0  0  0.098712  0  1.024023  0  0.018952  0  0.09666  0.094711  0  1.024173  0
H  H27  1  0.49733842  0.01561328  0.09436304  1  0  0.085247  0  0.96424  0  0  0.096381  0  1.024007  0  0  0.098714  0  1.023961  0  0.018966  0  0.096677  0.094704  0  1.024129  0
H  H28  1  0.73720194  0.63057360  0.19216135  1  0  0.101583  0  0.986686  0  0  0.110817  0  1.052264  0  0  0.114104  0  1.049929  0  0.106117  0  0.106132  0.108442  0  1.053973  0
H  H29  1  0.23719971  0.86942564  0.80783710  1  0  0.101595  0  0.986699  0  0  0.110835  0  1.052263  0  0  0.114119  0  1.049936  0  0.106079  0  0.106154  0.10846  0  1.053971  0
H  H30  1  0.26280554  0.36942807  0.80783737  1  0  0.101659  0  0.986578  0  0  0.110864  0  1.05218  0  0  0.114149  0  1.049854  0  0.106037  0  0.106189  0.10849  0  1.053887  0
H  H31  1  0.76279717  0.13057113  0.19216271  1  0  0.101558  0  0.986742  0  0  0.110795  0  1.052312  0  0  0.114081  0  1.04998  0  0.106088  0  0.106142  0.10842  0  1.05402  0
H  H32  1  0.20985636  0.08622676  0.24469312  1  0  0.408479  0  0.84933  0  0  0.385752  0  0.918508  0  0  0.392611  0  0.911357  0  0.617186  0  0.30933  0.380859  0  0.923677  0
H  H33  1  0.70986010  0.41377163  0.75530750  1  0  0.408478  0  0.849305  0  0  0.385746  0  0.918493  0  0  0.392606  0  0.91134  0  0.617342  0  0.309333  0.380853  0  0.92366  0
H  H34  1  0.79014052  0.91377165  0.75530847  1  0  0.40846  0  0.849323  0  0  0.385731  0  0.918508  0  0  0.39259  0  0.911355  0  0.617361  0  0.309329  0.380838  0  0.923674  0
H  H35  1  0.29014284  0.58622596  0.24469320  1  0  0.408431  0  0.849405  0  0  0.385672  0  0.918621  0  0  0.392532  0  0.911468  0  0.617185  0  0.309302  0.380779  0  0.923786  0
C  C36  1  0.24604022  0.88037308  0.37519243  1  0  0.674924  0  3.925378  0  0  0.625079  0  4.223644  0  0  0.659397  0  4.213192  0  1.60461  0  0.221958  0.601651  0  4.230229  0
C  C37  1  0.74605001  0.61962535  0.62480584  1  0  0.67501  0  3.925413  0  0  0.625208  0  4.223573  0  0  0.659534  0  4.213118  0  1.604542  0  0.222015  0.601774  0  4.230161  0
C  C38  1  0.75395515  0.11962452  0.62480898  1  0  0.675086  0  3.925172  0  0  0.62523  0  4.223454  0  0  0.659555  0  4.212989  0  1.604541  0  0.222036  0.601797  0  4.230041  0
C  C39  1  0.25395747  0.38037469  0.37519253  1  0  0.674882  0  3.925383  0  0  0.625041  0  4.223621  0  0  0.659365  0  4.213171  0  1.604613  0  0.221952  0.60161  0  4.230205  0
C  C40  1  0.43908736  0.89825231  0.32537872  1  0  0.034383  0  3.686273  0  0  0.026123  0  3.948716  0  0  0.026673  0  3.965377  0  0.504953  0  0.102766  0.025696  0  3.937754  0
C  C41  1  0.93908959  0.60174531  0.67461867  1  0  0.034326  0  3.686325  0  0  0.026079  0  3.948739  0  0  0.026625  0  3.965398  0  0.50494  0  0.102749  0.025662  0  3.937755  0
C  C42  1  0.56090952  0.10174692  0.67462019  1  0  0.034334  0  3.686309  0  0  0.026078  0  3.948763  0  0  0.026628  0  3.965419  0  0.504965  0  0.102757  0.025654  0  3.937789  0
C  C43  1  0.06091335  0.39825310  0.32537935  1  0  0.034405  0  3.686202  0  0  0.026163  0  3.948644  0  0  0.026715  0  3.965302  0  0.504929  0  0.102817  0.02574  0  3.937669  0
C  C44  1  0.56317981  0.99064057  0.33714742  1  0  0.002013  0  3.650379  0  0  -0.011121  0  3.911656  0  0  -0.013181  0  3.92825  0  0.335089  0  0.097145  -0.009907  0  3.900701  0
C  C45  1  0.06318061  0.50935623  0.66285408  1  0  0.002175  0  3.65031  0  0  -0.010982  0  3.91157  0  0  -0.013043  0  3.928164  0  0.334204  0  0.09725  -0.009755  0  3.90059  0
C  C46  1  0.43681556  0.00935866  0.66285292  1  0  0.002028  0  3.650401  0  0  -0.011081  0  3.911644  0  0  -0.013143  0  3.92824  0  0.334506  0  0.097171  -0.009851  0  3.900663  0
C  C47  1  0.93682082  0.49064218  0.33714680  1  0  0.002053  0  3.650274  0  0  -0.011095  0  3.911552  0  0  -0.013159  0  3.928148  0  0.334396  0  0.097135  -0.00987  0  3.900579  0
C  C48  1  0.56771736  0.09927595  0.40638148  1  0  0.667343  0  3.951256  0  0  0.618546  0  4.245475  0  0  0.654173  0  4.234157  0  1.60415  0  0.225249  0.594274  0  4.252461  0
C  C49  1  0.06771967  0.40072081  0.59362165  1  0  0.667209  0  3.951296  0  0  0.61843  0  4.245487  0  0  0.654057  0  4.23417  0  1.605026  0  0.225228  0.594152  0  4.25247  0
C  C50  1  0.43227499  0.90072328  0.59362028  1  0  0.667222  0  3.95142  0  0  0.618433  0  4.245611  0  0  0.654059  0  4.234294  0  1.604356  0  0.225278  0.594155  0  4.252594  0
C  C51  1  0.93227873  0.59927760  0.40637780  1  0  0.667318  0  3.951192  0  0  0.618507  0  4.245439  0  0  0.654135  0  4.234117  0  1.604728  0  0.225268  0.59423  0  4.252425  0
C  C52  1  0.70839198  0.84817282  0.23566009  1  0  0.343797  0  3.723016  0  0  0.306469  0  3.993879  0  0  0.320853  0  4.007288  0  0.992876  0  0.232687  0.297092  0  3.984532  0
C  C53  1  0.20839278  0.65182724  0.76434068  1  0  0.343803  0  3.723081  0  0  0.306488  0  3.993898  0  0  0.320867  0  4.007314  0  0.99288  0  0.23273  0.297123  0  3.984539  0
C  C54  1  0.29160641  0.15182722  0.76433971  1  0  0.343796  0  3.722865  0  0  0.306491  0  3.993726  0  0  0.32087  0  4.007136  0  0.992893  0  0.232692  0.297128  0  3.984365  0
C  C55  1  0.79160561  0.34817198  0.23565966  1  0  0.343809  0  3.723001  0  0  0.306491  0  3.993816  0  0  0.320869  0  4.007235  0  0.99286  0  0.232694  0.297124  0  3.98446  0
C  C56  1  0.86221006  0.78247842  0.17376125  1  0  -0.002526  0  3.788405  0  0  0.018207  0  4.024907  0  0  0.016011  0  4.046997  0  -0.075141  0  -0.002221  0.019365  0  4.010135  0
C  C57  1  0.36220784  0.71752246  0.82623755  1  0  -0.002445  0  3.788317  0  0  0.018312  0  4.024773  0  0  0.016116  0  4.046867  0  -0.075139  0  -0.002164  0.019465  0  4.01  0
C  C58  1  0.13778833  0.21752489  0.82623995  1  0  -0.002483  0  3.788306  0  0  0.018262  0  4.024771  0  0  0.016071  0  4.046856  0  -0.075154  0  -0.002164  0.019412  0  4.010001  0
C  C59  1  0.63779207  0.28247595  0.17376119  1  0  -0.002572  0  3.78838  0  0  0.018204  0  4.024815  0  0  0.016009  0  4.046908  0  -0.075104  0  -0.002188  0.019356  0  4.010046  0
C  C60  1  0.01927475  0.83074531  0.13098212  1  0  -0.096257  0  3.711092  0  0  -0.118001  0  3.955101  0  0  -0.119816  0  3.97474  0  0.004205  0  -0.087474  -0.116587  0  3.94187  0
C  C61  1  0.51927697  0.66925475  0.86901722  1  0  -0.0963  0  3.711026  0  0  -0.118063  0  3.955044  0  0  -0.119877  0  3.974683  0  0.004243  0  -0.087501  -0.116648  0  3.941813  0
C  C62  1  0.98072516  0.16926045  0.86901889  1  0  -0.096359  0  3.711277  0  0  -0.118078  0  3.955274  0  0  -0.119893  0  3.974908  0  0.004069  0  -0.087499  -0.11666  0  3.942042  0
C  C63  1  0.48072445  0.33074203  0.13097974  1  0  -0.096291  0  3.711274  0  0  -0.118053  0  3.955268  0  0  -0.119867  0  3.974903  0  0.004102  0  -0.087497  -0.116638  0  3.942038  0
C  C64  1  0.16797711  0.76598948  0.07497049  1  0  -0.061662  0  3.768308  0  0  -0.074034  0  4.019344  0  0  -0.076126  0  4.041721  0  -0.051916  0  -0.090901  -0.072616  0  4.004067  0
C  C65  1  0.66797934  0.73401141  0.92502973  1  0  -0.061609  0  3.768304  0  0  -0.073981  0  4.019325  0  0  -0.076073  0  4.041703  0  -0.052042  0  -0.090857  -0.072565  0  4.004055  0
C  C66  1  0.83202280  0.23401383  0.92503142  1  0  -0.061439  0  3.768388  0  0  -0.073823  0  4.019393  0  0  -0.075912  0  4.041763  0  -0.05224  0  -0.090825  -0.072404  0  4.004117  0
C  C67  1  0.33202360  0.26598537  0.07496866  1  0  -0.061563  0  3.768457  0  0  -0.073933  0  4.019482  0  0  -0.076025  0  4.041853  0  -0.052275  0  -0.090858  -0.072516  0  4.004211  0
C  C68  1  0.16330486  0.65253300  0.06162622  1  0  -0.072436  0  3.77698  0  0  -0.089766  0  4.02919  0  0  -0.090254  0  4.048644  0  -0.088909  0  -0.092933  -0.089248  0  4.015872  0
C  C69  1  0.66330254  0.84746951  0.93837506  1  0  -0.072437  0  3.777039  0  0  -0.089759  0  4.029261  0  0  -0.090248  0  4.048717  0  -0.088857  0  -0.092949  -0.089247  0  4.015939  0
C  C70  1  0.83669808  0.34747603  0.93837833  1  0  -0.072631  0  3.776854  0  0  -0.089939  0  4.029107  0  0  -0.090426  0  4.048555  0  -0.088439  0  -0.092985  -0.089426  0  4.015788  0
C  C71  1  0.33669737  0.15252808  0.06162208  1  0  -0.072522  0  3.777017  0  0  -0.089854  0  4.029259  0  0  -0.090342  0  4.048711  0  -0.088526  0  -0.092938  -0.089342  0  4.015937  0
C  C72  1  0.00782947  0.60411009  0.10418344  1  0  -0.098382  0  3.809611  0  0  -0.106903  0  4.05945  0  0  -0.109464  0  4.080237  0  -0.029181  0  -0.098569  -0.105165  0  4.045306  0
C  C73  1  0.50782564  0.89589161  0.89581624  1  0  -0.098411  0  3.809748  0  0  -0.106939  0  4.059588  0  0  -0.109499  0  4.080378  0  -0.029112  0  -0.098578  -0.105201  0  4.045444  0
C  C74  1  0.99218255  0.39589649  0.89581702  1  0  -0.098337  0  3.809586  0  0  -0.106834  0  4.059409  0  0  -0.10939  0  4.080196  0  -0.029067  0  -0.098479  -0.105096  0  4.045265  0
C  C75  1  0.49217427  0.10410517  0.10418215  1  0  -0.098319  0  3.809567  0  0  -0.106859  0  4.059423  0  0  -0.109418  0  4.080211  0  -0.029031  0  -0.098567  -0.105122  0  4.045278  0
C  C76  1  0.85762408  0.66825738  0.15903202  1  0  -0.077329  0  3.707118  0  0  -0.104328  0  3.954923  0  0  -0.104832  0  3.973763  0  0.012782  0  -0.084056  -0.103763  0  3.942136  0
C  C77  1  0.35762337  0.83174432  0.84096837  1  0  -0.077401  0  3.707204  0  0  -0.104405  0  3.955005  0  0  -0.104911  0  3.973848  0  0.012789  0  -0.08413  -0.103838  0  3.942219  0
C  C78  1  0.14237734  0.33174512  0.84096758  1  0  -0.077491  0  3.707183  0  0  -0.104464  0  3.954985  0  0  -0.104974  0  3.973825  0  0.012799  0  -0.084203  -0.103897  0  3.942199  0
C  C79  1  0.64237503  0.16825409  0.15903108  1  0  -0.077363  0  3.707167  0  0  -0.104371  0  3.954948  0  0  -0.104877  0  3.973792  0  0.012805  0  -0.084129  -0.103804  0  3.94216  0
N  N80  1  0.53211621  0.81131325  0.26305726  1  0  -0.40632  0  3.050628  0  0  -0.357733  0  3.305778  0  0  -0.373071  0  3.319762  0  -1.174002  0  -0.306795  -0.347337  0  3.296212  0
N  N81  1  0.03211550  0.68868599  0.73694119  1  0  -0.406314  0  3.050583  0  0  -0.357768  0  3.305755  0  0  -0.373104  0  3.319741  0  -1.173904  0  -0.306824  -0.34738  0  3.296183  0
N  N82  1  0.46788370  0.18868679  0.73694325  1  0  -0.40626  0  3.050616  0  0  -0.35772  0  3.305784  0  0  -0.373055  0  3.319768  0  -1.173966  0  -0.306778  -0.34733  0  3.296214  0
N  N83  1  0.96788593  0.31131241  0.26305684  1  0  -0.406257  0  3.050498  0  0  -0.357724  0  3.305683  0  0  -0.373059  0  3.319669  0  -1.173957  0  -0.306785  -0.347333  0  3.296114  0
N  N84  1  0.72959799  0.95636878  0.27856427  1  0  -0.340844  0  3.40845  0  0  -0.280434  0  3.638841  0  0  -0.296338  0  3.653535  0  -1.27271  0  -0.360219  -0.269653  0  3.628888  0
N  N85  1  0.22960182  0.54362965  0.72143757  1  0  -0.341055  0  3.408454  0  0  -0.280584  0  3.638894  0  0  -0.296485  0  3.653588  0  -1.272876  0  -0.360322  -0.269811  0  3.628935  0
N  N86  1  0.27039587  0.04363208  0.72143570  1  0  -0.340842  0  3.408412  0  0  -0.280473  0  3.638817  0  0  -0.29637  0  3.653511  0  -1.272568  0  -0.360286  -0.269699  0  3.628854  0
N  N87  1  0.77039809  0.45636876  0.27856331  1  0  -0.34092  0  3.408411  0  0  -0.280479  0  3.638766  0  0  -0.296378  0  3.653462  0  -1.272843  0  -0.360272  -0.269705  0  3.628808  0
O  O88  1  0.12484618  0.95868374  0.40885192  1  0  -0.72806  0  1.9897  0  0  -0.672239  0  2.238889  0  0  -0.698083  0  2.228534  0  -1.237204  0  -0.386602  -0.65402  0  2.24555  0
O  O89  1  0.62484689  0.54131470  0.59114636  1  0  -0.728159  0  1.989657  0  0  -0.672325  0  2.238784  0  0  -0.698183  0  2.228425  0  -1.23716  0  -0.386669  -0.654127  0  2.24549  0
O  O90  1  0.87514919  0.04131304  0.59114861  1  0  -0.728214  0  1.989679  0  0  -0.672374  0  2.238835  0  0  -0.698215  0  2.228473  0  -1.237176  0  -0.386684  -0.654186  0  2.245563  0
O  O91  1  0.37515302  0.45868453  0.40885327  1  0  -0.728056  0  1.989692  0  0  -0.672212  0  2.238852  0  0  -0.698068  0  2.228497  0  -1.237186  0  -0.386618  -0.654007  0  2.245541  0
O  O92  1  0.43449079  0.12483439  0.47279644  1  0  -0.715575  0  2.054528  0  0  -0.65615  0  2.299562  0  0  -0.683054  0  2.290879  0  -1.203693  0  -0.391873  -0.637253  0  2.305047  0
O  O93  1  0.93449150  0.37516318  0.52720615  1  0  -0.715595  0  2.054584  0  0  -0.656171  0  2.299593  0  0  -0.683077  0  2.290911  0  -1.203625  0  -0.3919  -0.637272  0  2.305082  0
O  O94  1  0.56550609  0.87516484  0.52720533  1  0  -0.715572  0  2.054618  0  0  -0.656139  0  2.299608  0  0  -0.683038  0  2.290927  0  -1.203571  0  -0.391887  -0.63724  0  2.305099  0
O  O95  1  0.06551144  0.62483523  0.47279472  1  0  -0.715623  0  2.05446  0  0  -0.656218  0  2.299541  0  0  -0.683119  0  2.290859  0  -1.203616  0  -0.391907  -0.637317  0  2.305028  0
O  O96  1  0.71544198  0.16220694  0.39763972  1  0  -0.730689  0  1.977994  0  0  -0.669026  0  2.22079  0  0  -0.695555  0  2.210862  0  -1.229024  0  -0.399895  -0.650118  0  2.226901  0
O  O97  1  0.21544127  0.33778818  0.60236378  1  0  -0.7306  0  1.977966  0  0  -0.668921  0  2.220721  0  0  -0.695449  0  2.210788  0  -1.229158  0  -0.399858  -0.650029  0  2.226867  0
O  O98  1  0.28455187  0.83779228  0.60236204  1  0  -0.730617  0  1.978055  0  0  -0.668935  0  2.220807  0  0  -0.695457  0  2.210878  0  -1.229107  0  -0.399886  -0.650037  0  2.226945  0
O  O99  1  0.78455712  0.66220941  0.39763764  1  0  -0.730626  0  1.978015  0  0  -0.668957  0  2.220814  0  0  -0.69548  0  2.210881  0  -1.22905  0  -0.399862  -0.650054  0  2.22694  0
O  O100  1  0.06807535  0.10029946  0.26211419  1  0  -0.850423  0  1.905687  0  0  -0.805147  0  2.108941  0  0  -0.822192  0  2.081468  0  -1.298764  0  -0.589948  -0.793008  0  2.128158  0
O  O101  1  0.56807606  0.39969974  0.73788517  1  0  -0.850449  0  1.905729  0  0  -0.805132  0  2.108968  0  0  -0.82218  0  2.081493  0  -1.298923  0  -0.589963  -0.792992  0  2.128181  0
O  O102  1  0.93192305  0.89969976  0.73788614  1  0  -0.850384  0  1.90572  0  0  -0.8051  0  2.108969  0  0  -0.822144  0  2.081496  0  -1.298936  0  -0.58995  -0.792959  0  2.128184  0
O  O103  1  0.43192688  0.60029785  0.26211339  1  0  -0.850387  0  1.905685  0  0  -0.805063  0  2.109002  0  0  -0.82211  0  2.081528  0  -1.298769  0  -0.589911  -0.792924  0  2.128218  0
O  O104  1  0.21217811  0.78364325  0.38371490  1  0  -0.731468  0  2.040683  0  0  -0.671115  0  2.280151  0  0  -0.697824  0  2.272041  0  -1.21115  0  -0.383392  -0.652292  0  2.285146  0
O  O105  1  0.71218790  0.71635518  0.61627911  1  0  -0.731473  0  2.040789  0  0  -0.671162  0  2.280285  0  0  -0.697858  0  2.27214  0  -1.21113  0  -0.383415  -0.652336  0  2.285283  0
O  O106  1  0.78782029  0.21635516  0.61628455  1  0  -0.73146  0  2.040628  0  0  -0.67108  0  2.280067  0  0  -0.697817  0  2.271997  0  -1.211065  0  -0.383367  -0.65225  0  2.285061  0
O  O107  1  0.28781655  0.28364405  0.38371838  1  0  -0.731438  0  2.040677  0  0  -0.671091  0  2.280153  0  0  -0.697801  0  2.272023  0  -1.211144  0  -0.383385  -0.652267  0  2.285148  0
