# generated using pymatgen
data_KCd2H8C11(NO2)5
_symmetry_space_group_name_H-M   'P 1'
_cell_length_a   9.16662636
_cell_length_b   9.98717928
_cell_length_c   9.98721853
_cell_angle_alpha   111.67772627
_cell_angle_beta   96.20071199
_cell_angle_gamma   96.20036581
_symmetry_Int_Tables_number   1
_chemical_formula_structural   KCd2H8C11(NO2)5
_chemical_formula_sum   'K2 Cd4 H16 C22 N10 O20'
_cell_volume   833.78725758
_cell_formula_units_Z   2
loop_
 _symmetry_equiv_pos_site_id
 _symmetry_equiv_pos_as_xyz
  1  'x, y, z'
loop_
 _atom_site_type_symbol
 _atom_site_label
 _atom_site_symmetry_multiplicity
 _atom_site_fract_x
 _atom_site_fract_y
 _atom_site_fract_z
 _atom_site_occupancy
 _atom_site_hle17_bader_spin_density
 _atom_site_hle17_ddec_charge
 _atom_site_hle17_ddec_spin_density
 _atom_site_hle17_ddec_sum_bond_order
 _atom_site_hle17_magmom
 _atom_site_hse06_10hf_bader_spin_density
 _atom_site_hse06_10hf_ddec_charge
 _atom_site_hse06_10hf_ddec_spin_density
 _atom_site_hse06_10hf_ddec_sum_bond_order
 _atom_site_hse06_10hf_magmom
 _atom_site_hse06_bader_spin_density
 _atom_site_hse06_ddec_charge
 _atom_site_hse06_ddec_spin_density
 _atom_site_hse06_ddec_sum_bond_order
 _atom_site_hse06_magmom
 _atom_site_pbe_bader_spin_density
 _atom_site_pbe_cm5_charge
 _atom_site_pbe_ddec_charge
 _atom_site_pbe_ddec_spin_density
 _atom_site_pbe_ddec_sum_bond_order
 _atom_site_pbe_magmom
K  K0  1  0.75000734  0.46936227  0.53062998  1  0  0.934626  0  0.51666  0  0  0.889057  0  0.712949  0  0  0.902316  0  0.692205  0  0  0.821092  0.878885  0  0.72812  0
K  K1  1  0.24999904  0.53063110  0.46937210  1  0  0.934653  0  0.516644  0  0  0.889058  0  0.712945  0  0  0.902307  0  0.692212  0  0  0.821089  0.878887  0  0.728116  0
Cd  Cd2  1  0.89784566  0.38994790  0.18076927  1  0  1.211041  0  1.585354  0  0  1.030892  0  2.025216  0  0  1.08954  0  1.968533  0  0  0.798808  0.987234  0  2.065184  0
Cd  Cd3  1  0.60215238  0.81923003  0.61005384  1  0  1.211031  0  1.585363  0  0  1.030886  0  2.025221  0  0  1.089534  0  1.968537  0  0  0.798794  0.987227  0  2.065187  0
Cd  Cd4  1  0.10215620  0.61005298  0.81923023  1  0  1.211046  0  1.585347  0  0  1.030902  0  2.025201  0  0  1.089554  0  1.968511  0  0  0.798788  0.987244  0  2.065166  0
Cd  Cd5  1  0.39784717  0.18076969  0.38994804  1  0  1.211023  0  1.585392  0  0  1.030872  0  2.025255  0  0  1.08952  0  1.968568  0  0  0.798787  0.987212  0  2.065222  0
H  H6  1  0.95267000  0.89375996  0.22942407  1  0  0.114918  0  0.926571  0  0  0.125909  0  0.984475  0  0  0.129844  0  0.982083  0  0  0.109778  0.12278  0  0.986709  0
H  H7  1  0.54732974  0.77057593  0.10624205  1  0  0.114898  0  0.926635  0  0  0.12589  0  0.984527  0  0  0.129825  0  0.982136  0  0  0.109767  0.122759  0  0.986763  0
H  H8  1  0.04732110  0.10624285  0.77057222  1  0  0.114871  0  0.92671  0  0  0.125873  0  0.9846  0  0  0.129808  0  0.982209  0  0  0.109775  0.122771  0  0.986793  0
H  H9  1  0.45266978  0.22942381  0.89375783  1  0  0.114909  0  0.926628  0  0  0.125902  0  0.984523  0  0  0.129838  0  0.982129  0  0  0.109767  0.122774  0  0.986755  0
H  H10  1  0.79548537  0.06392230  0.09129481  1  0  0.348017  0  0.916057  0  0  0.329328  0  0.97937  0  0  0.336629  0  0.973365  0  0  0.301472  0.324154  0  0.983521  0
H  H11  1  0.70451336  0.90870721  0.93608157  1  0  0.348019  0  0.91606  0  0  0.329328  0  0.979378  0  0  0.33663  0  0.97337  0  0  0.301475  0.324155  0  0.983527  0
H  H12  1  0.20451463  0.93608070  0.90870832  1  0  0.348026  0  0.916065  0  0  0.329336  0  0.979379  0  0  0.336639  0  0.973371  0  0  0.301478  0.324164  0  0.983528  0
H  H13  1  0.29548653  0.09129470  0.06392315  1  0  0.348041  0  0.916025  0  0  0.329341  0  0.979359  0  0  0.336649  0  0.973339  0  0  0.301473  0.324162  0  0.983517  0
H  H14  1  0.22311498  0.37960544  0.14548769  1  0  0.441091  0  0.826174  0  0  0.41084  0  0.897112  0  0  0.421261  0  0.881845  0  0  0.306543  0.403043  0  0.90855  0
H  H15  1  0.27688362  0.85451292  0.62039727  1  0  0.441175  0  0.826008  0  0  0.410907  0  0.89702  0  0  0.421331  0  0.881747  0  0  0.306581  0.40311  0  0.90846  0
H  H16  1  0.77688768  0.62039328  0.85451107  1  0  0.441111  0  0.826114  0  0  0.410868  0  0.897058  0  0  0.42129  0  0.881791  0  0  0.306563  0.403072  0  0.908497  0
H  H17  1  0.72311509  0.14548025  0.37960609  1  0  0.441042  0  0.826268  0  0  0.410781  0  0.897199  0  0  0.421205  0  0.881927  0  0  0.306503  0.402985  0  0.908638  0
H  H18  1  0.18248427  0.53752315  0.15452288  1  0  0.399311  0  0.914424  0  0  0.354917  0  0.999916  0  0  0.365649  0  0.984679  0  0  0.290194  0.347105  0  1.010932  0
H  H19  1  0.31751369  0.84547921  0.46248116  1  0  0.399347  0  0.914382  0  0  0.354952  0  0.999874  0  0  0.365684  0  0.984636  0  0  0.290226  0.34714  0  1.01089  0
H  H20  1  0.81751838  0.46247558  0.84547488  1  0  0.399289  0  0.914453  0  0  0.354896  0  0.999948  0  0  0.365628  0  0.984711  0  0  0.290191  0.347084  0  1.010965  0
H  H21  1  0.68248385  0.15452155  0.53752394  1  0  0.39933  0  0.914406  0  0  0.354932  0  0.999903  0  0  0.365665  0  0.984664  0  0  0.290199  0.34712  0  1.010919  0
C  C22  1  0.93204677  0.68540955  0.33609024  1  0  0.638698  0  3.909332  0  0  0.588168  0  4.203642  0  0  0.621872  0  4.198971  0  0  0.195788  0.565261  0  4.20611  0
C  C23  1  0.56795073  0.66390737  0.31459255  1  0  0.638845  0  3.909131  0  0  0.588326  0  4.203387  0  0  0.622029  0  4.198715  0  0  0.195911  0.56542  0  4.205856  0
C  C24  1  0.06795047  0.31459015  0.66390441  1  0  0.638777  0  3.909237  0  0  0.588247  0  4.203536  0  0  0.621963  0  4.198864  0  0  0.195893  0.565341  0  4.206005  0
C  C25  1  0.43205226  0.33609354  0.68540906  1  0  0.638806  0  3.909216  0  0  0.58826  0  4.203535  0  0  0.621968  0  4.198865  0  0  0.19587  0.565353  0  4.206003  0
C  C26  1  0.74999866  0.09755116  0.90245030  1  0  0.574561  0  3.889452  0  0  0.522985  0  4.17639  0  0  0.546819  0  4.18748  0  0  0.327935  0.506596  0  4.168812  0
C  C27  1  0.24999982  0.90244853  0.09755347  1  0  0.574553  0  3.889459  0  0  0.522977  0  4.176388  0  0  0.546811  0  4.18748  0  0  0.327946  0.506589  0  4.168808  0
C  C28  1  0.98963470  0.90766045  0.57624984  1  0  -0.078495  0  3.73705  0  0  -0.063129  0  3.977325  0  0  -0.067004  0  3.995799  0  0  -0.009853  -0.060692  0  3.96475  0
C  C29  1  0.51036172  0.42374916  0.09233987  1  0  -0.07853  0  3.737083  0  0  -0.063168  0  3.977345  0  0  -0.067046  0  3.995823  0  0  -0.009878  -0.060729  0  3.964761  0
C  C30  1  0.01036160  0.09234031  0.42374613  1  0  -0.078386  0  3.737142  0  0  -0.063015  0  3.977349  0  0  -0.066884  0  3.995847  0  0  -0.009823  -0.060572  0  3.964765  0
C  C31  1  0.48964236  0.57625177  0.90766085  1  0  -0.078408  0  3.737077  0  0  -0.063069  0  3.977345  0  0  -0.066941  0  3.995833  0  0  -0.009827  -0.060627  0  3.964762  0
C  C32  1  0.97272041  0.94152693  0.34838651  1  0  -0.069366  0  3.690788  0  0  -0.107965  0  3.948898  0  0  -0.107379  0  3.966174  0  0  -0.078522  -0.108045  0  3.937847  0
C  C33  1  0.52727838  0.65161341  0.05847486  1  0  -0.069233  0  3.69075  0  0  -0.107828  0  3.948828  0  0  -0.107237  0  3.966093  0  0  -0.078463  -0.107908  0  3.937777  0
C  C34  1  0.02727166  0.05847481  0.65161047  1  0  -0.069161  0  3.690752  0  0  -0.107758  0  3.948848  0  0  -0.107159  0  3.966132  0  0  -0.078402  -0.107853  0  3.937793  0
C  C35  1  0.47272665  0.34838646  0.94152554  1  0  -0.069235  0  3.690787  0  0  -0.107833  0  3.948879  0  0  -0.107242  0  3.966163  0  0  -0.078449  -0.107911  0  3.937825  0
C  C36  1  0.96285973  0.84729700  0.42247864  1  0  -0.045519  0  3.70805  0  0  -0.031578  0  3.945556  0  0  -0.036137  0  3.965276  0  0  -0.004148  -0.02922  0  3.932885  0
C  C37  1  0.53714141  0.57752196  0.15270477  1  0  -0.045652  0  3.70816  0  0  -0.031677  0  3.945611  0  0  -0.036233  0  3.965331  0  0  -0.004183  -0.029317  0  3.932938  0
C  C38  1  0.03713878  0.15270381  0.57751755  1  0  -0.045688  0  3.708275  0  0  -0.031759  0  3.945804  0  0  -0.036362  0  3.965587  0  0  -0.004226  -0.029407  0  3.933143  0
C  C39  1  0.46286174  0.42248003  0.84729726  1  0  -0.045715  0  3.708303  0  0  -0.031769  0  3.945829  0  0  -0.036351  0  3.965582  0  0  -0.00422  -0.029413  0  3.93316  0
C  C40  1  0.97334839  0.81363155  0.66297890  1  0  0.694526  0  3.903749  0  0  0.63496  0  4.210455  0  0  0.671476  0  4.199099  0  0  0.213466  0.610602  0  4.216067  0
C  C41  1  0.52665044  0.33702011  0.18636750  1  0  0.694502  0  3.903807  0  0  0.634926  0  4.210539  0  0  0.671442  0  4.199184  0  0  0.213437  0.61057  0  4.216148  0
C  C42  1  0.02665437  0.18636828  0.33701728  1  0  0.69443  0  3.903852  0  0  0.634918  0  4.210475  0  0  0.671437  0  4.199115  0  0  0.213422  0.61056  0  4.216087  0
C  C43  1  0.47335143  0.66298077  0.81363300  1  0  0.694417  0  3.903824  0  0  0.634902  0  4.210468  0  0  0.671421  0  4.199111  0  0  0.213423  0.610545  0  4.216079  0
N  N44  1  0.78351654  0.27914514  0.83385064  1  0  -0.061171  0  3.088184  0  0  -0.037606  0  3.368838  0  0  -0.037071  0  3.382312  0  0  -0.076243  -0.037537  0  3.35938  0
N  N45  1  0.71648024  0.16614904  0.72085490  1  0  -0.06132  0  3.088247  0  0  -0.037764  0  3.368919  0  0  -0.037228  0  3.382392  0  0  -0.076275  -0.037694  0  3.359459  0
N  N46  1  0.21648081  0.72085454  0.16615103  1  0  -0.06125  0  3.088159  0  0  -0.037698  0  3.36883  0  0  -0.037163  0  3.382303  0  0  -0.076276  -0.037628  0  3.359371  0
N  N47  1  0.28351791  0.83384847  0.27914603  1  0  -0.061188  0  3.088073  0  0  -0.03762  0  3.368725  0  0  -0.037082  0  3.382197  0  0  -0.076227  -0.037551  0  3.359266  0
N  N48  1  0.80758460  0.24081300  0.95008242  1  0  -0.443139  0  3.126812  0  0  -0.376883  0  3.423143  0  0  -0.401738  0  3.435853  0  0  -0.263772  -0.359729  0  3.41423  0
N  N49  1  0.69241159  0.04991784  0.75918972  1  0  -0.44311  0  3.126867  0  0  -0.376861  0  3.423211  0  0  -0.401716  0  3.43592  0  0  -0.263779  -0.359705  0  3.414294  0
N  N50  1  0.19241289  0.75918777  0.04991867  1  0  -0.443158  0  3.126846  0  0  -0.376909  0  3.423194  0  0  -0.401765  0  3.435901  0  0  -0.263798  -0.359754  0  3.414278  0
N  N51  1  0.30758674  0.95008077  0.24081364  1  0  -0.44318  0  3.126835  0  0  -0.376923  0  3.423155  0  0  -0.401779  0  3.435864  0  0  -0.263804  -0.359767  0  3.41424  0
N  N52  1  0.74999774  0.01643212  0.98357087  1  0  -0.704552  0  3.078893  0  0  -0.666472  0  3.305284  0  0  -0.686675  0  3.299942  0  0  -0.587092  -0.652308  0  3.308787  0
N  N53  1  0.24999993  0.98356973  0.01643264  1  0  -0.704543  0  3.078857  0  0  -0.666459  0  3.305255  0  0  -0.686667  0  3.299903  0  0  -0.587078  -0.65229  0  3.308766  0
O  O54  1  0.95849937  0.60009061  0.40321854  1  0  -0.717539  0  1.998608  0  0  -0.651461  0  2.246851  0  0  -0.680997  0  2.238393  0  0  -0.409275  -0.630451  0  2.251943  0
O  O55  1  0.54149745  0.59678068  0.39991245  1  0  -0.717557  0  1.998501  0  0  -0.651513  0  2.246783  0  0  -0.681051  0  2.238327  0  0  -0.409321  -0.630503  0  2.251876  0
O  O56  1  0.04149912  0.39991021  0.59677665  1  0  -0.717587  0  1.998537  0  0  -0.651539  0  2.246836  0  0  -0.681076  0  2.238373  0  0  -0.409371  -0.630528  0  2.251929  0
O  O57  1  0.45850460  0.40322128  0.60009047  1  0  -0.717567  0  1.998567  0  0  -0.651503  0  2.246844  0  0  -0.681039  0  2.238385  0  0  -0.409305  -0.630493  0  2.251937  0
O  O58  1  0.88504351  0.63669737  0.20023075  1  0  -0.613266  0  1.934865  0  0  -0.556516  0  2.17017  0  0  -0.584815  0  2.162845  0  0  -0.318132  -0.536528  0  2.174418  0
O  O59  1  0.61495629  0.79976632  0.36330538  1  0  -0.613308  0  1.934834  0  0  -0.556561  0  2.170138  0  0  -0.584859  0  2.162811  0  0  -0.318156  -0.536574  0  2.174386  0
O  O60  1  0.11495279  0.36330339  0.79976522  1  0  -0.613256  0  1.934865  0  0  -0.556497  0  2.170166  0  0  -0.584793  0  2.162832  0  0  -0.318124  -0.536511  0  2.174416  0
O  O61  1  0.38504342  0.20023450  0.63669691  1  0  -0.613271  0  1.934845  0  0  -0.556498  0  2.170137  0  0  -0.584794  0  2.162806  0  0  -0.31814  -0.53651  0  2.174384  0
O  O62  1  0.84496770  0.76261723  0.67303824  1  0  -0.671022  0  2.053901  0  0  -0.612732  0  2.318729  0  0  -0.642026  0  2.307824  0  0  -0.379383  -0.590842  0  2.324968  0
O  O63  1  0.65503392  0.32696341  0.23738321  1  0  -0.671056  0  2.053833  0  0  -0.612757  0  2.318652  0  0  -0.64205  0  2.307746  0  0  -0.379407  -0.590866  0  2.324891  0
O  O64  1  0.15503937  0.23738161  0.32696094  1  0  -0.671019  0  2.053878  0  0  -0.612732  0  2.318644  0  0  -0.642023  0  2.307735  0  0  -0.379378  -0.590841  0  2.324887  0
O  O65  1  0.34496730  0.67303311  0.76261261  1  0  -0.67108  0  2.053943  0  0  -0.612766  0  2.318671  0  0  -0.642057  0  2.307764  0  0  -0.379409  -0.590875  0  2.324912  0
O  O66  1  0.09468076  0.79550668  0.72668813  1  0  -0.673066  0  2.023167  0  0  -0.596076  0  2.26821  0  0  -0.625509  0  2.254197  0  0  -0.317188  -0.574673  0  2.27684  0
O  O67  1  0.40532111  0.27331128  0.20449549  1  0  -0.67298  0  2.023288  0  0  -0.595987  0  2.268324  0  0  -0.625422  0  2.254313  0  0  -0.317135  -0.574585  0  2.276952  0
O  O68  1  0.90532681  0.20449653  0.27330673  1  0  -0.67301  0  2.023313  0  0  -0.596026  0  2.268305  0  0  -0.625458  0  2.25429  0  0  -0.317167  -0.574627  0  2.27694  0
O  O69  1  0.59468095  0.72669069  0.79550743  1  0  -0.672947  0  2.023231  0  0  -0.595989  0  2.268271  0  0  -0.625424  0  2.254262  0  0  -0.317145  -0.574587  0  2.276902  0
O  O70  1  0.15270905  0.44812854  0.17453854  1  0  -0.877345  0  1.947765  0  0  -0.813849  0  2.173457  0  0  -0.83482  0  2.136827  0  0  -0.640499  -0.799053  0  2.20021  0
O  O71  1  0.34729037  0.82546426  0.55187562  1  0  -0.877443  0  1.947581  0  0  -0.813951  0  2.173334  0  0  -0.834922  0  2.1367  0  0  -0.640565  -0.799155  0  2.200087  0
O  O72  1  0.84729105  0.55186796  0.82545517  1  0  -0.877337  0  1.947758  0  0  -0.813856  0  2.173464  0  0  -0.83483  0  2.13683  0  0  -0.640532  -0.799061  0  2.200217  0
O  O73  1  0.65271077  0.17453877  0.44812963  1  0  -0.877274  0  1.947829  0  0  -0.813782  0  2.173535  0  0  -0.834757  0  2.1369  0  0  -0.640463  -0.798983  0  2.200283  0
