# generated using pymatgen
data_CuH6(C2N3)4
_symmetry_space_group_name_H-M   'P 1'
_cell_length_a   8.46495748
_cell_length_b   8.46669511
_cell_length_c   10.07514772
_cell_angle_alpha   102.66967584
_cell_angle_beta   102.69176926
_cell_angle_gamma   118.51447356
_symmetry_Int_Tables_number   1
_chemical_formula_structural   CuH6(C2N3)4
_chemical_formula_sum   'Cu2 H12 C16 N24'
_cell_volume   573.01362659
_cell_formula_units_Z   2
loop_
 _symmetry_equiv_pos_site_id
 _symmetry_equiv_pos_as_xyz
  1  'x, y, z'
loop_
 _atom_site_type_symbol
 _atom_site_label
 _atom_site_symmetry_multiplicity
 _atom_site_fract_x
 _atom_site_fract_y
 _atom_site_fract_z
 _atom_site_occupancy
 _atom_site_hle17_ddec_charge
 _atom_site_hle17_ddec_spin_density
 _atom_site_hle17_ddec_sum_bond_order
 _atom_site_hle17_magmom
 _atom_site_hse06_10hf_ddec_charge
 _atom_site_hse06_10hf_ddec_spin_density
 _atom_site_hse06_10hf_ddec_sum_bond_order
 _atom_site_hse06_10hf_magmom
 _atom_site_hse06_ddec_charge
 _atom_site_hse06_ddec_spin_density
 _atom_site_hse06_ddec_sum_bond_order
 _atom_site_hse06_magmom
 _atom_site_pbe_cm5_charge
 _atom_site_pbe_ddec_charge
 _atom_site_pbe_ddec_spin_density
 _atom_site_pbe_ddec_sum_bond_order
 _atom_site_pbe_magmom
Cu  Cu0  1  0.11137133  0.36106908  0.24992390  1  0.692581  0.681354  2.030803  0.515  0.636651  0.775173  2.449952  0.627  0.72478  0.843128  2.388629  0.717  0.79861  0.583187  0.727818  2.493738  0.569
Cu  Cu1  1  0.88862839  0.63893046  0.75007529  1  0.692613  0.681346  2.03072  0.515  0.636669  0.775164  2.449891  0.627  0.724869  0.843161  2.388613  0.717  0.79863  0.583215  0.727815  2.493668  0.569
H  H2  1  0.83948262  0.12846466  0.89712524  1  0.082295  -0.000608  0.99933  0.0  0.078136  -0.000232  1.086638  0.0  0.081043  -0.000205  1.082454  0.0  0.121042  0.076142  -0.000193  1.089259  0.0
H  H3  1  0.23155034  0.44180710  0.60269494  1  0.083122  -0.000576  0.998952  0.0  0.078609  -0.000233  1.086413  0.0  0.081445  -0.000207  1.082247  0.0  0.121427  0.076595  -0.000194  1.088932  0.0
H  H4  1  0.16051495  0.87153769  0.10287212  1  0.08232  -0.000602  0.999246  0.0  0.078146  -0.000232  1.086566  0.0  0.081053  -0.000205  1.08238  0.0  0.121052  0.076158  -0.000193  1.08918  0.0
H  H5  1  0.76843410  0.55818414  0.39730438  1  0.08313  -0.000581  0.999018  0.0  0.078611  -0.000233  1.086475  0.0  0.081448  -0.000207  1.082308  0.0  0.121437  0.0766  -0.000194  1.088989  0.0
H  H6  1  0.29833153  0.22904367  0.80995418  1  0.116039  0.000162  0.985026  0.001  0.11388  0.000156  1.062105  0.0  0.118753  8.3e-05  1.056977  0.0  0.132532  0.109025  0.000443  1.067017  0.0
H  H7  1  0.41928076  0.98813880  0.68968407  1  0.116675  0.000434  0.98382  0.0  0.114121  0.000325  1.061084  0.0  0.119056  0.000222  1.055856  0.0  0.133178  0.110395  0.000443  1.065107  0.0
H  H8  1  0.70167777  0.77096054  0.19004992  1  0.116029  0.000156  0.985081  0.001  0.113895  0.000156  1.062137  0.0  0.11876  8.3e-05  1.057016  0.0  0.132538  0.109035  0.000443  1.067054  0.0
H  H9  1  0.58072018  0.01186530  0.31031234  1  0.116563  0.000435  0.983962  0.0  0.114106  0.000325  1.061111  0.0  0.119044  0.000222  1.055877  0.0  0.133161  0.110375  0.000443  1.065138  0.0
H  H10  1  0.46295130  0.29982998  0.26031532  1  0.123237  -0.000279  0.946589  0.0  0.125495  -0.00017  1.018732  0.0  0.129197  -0.000152  1.013655  0.0  0.147977  0.122529  -0.000131  1.022837  0.0
H  H11  1  0.03920841  0.70178806  0.23946124  1  0.122729  -0.000244  0.947126  0.0  0.12424  -0.000151  1.020303  0.0  0.128037  -0.000139  1.015099  0.0  0.147604  0.121369  -0.000131  1.024119  0.0
H  H12  1  0.53705187  0.70017398  0.73968550  1  0.123228  -0.000269  0.946569  0.0  0.125513  -0.00017  1.018696  0.0  0.129199  -0.000152  1.013634  0.0  0.148005  0.122563  -0.000131  1.022785  0.0
H  H13  1  0.96078874  0.29821125  0.76053838  1  0.122673  -0.000246  0.947167  0.0  0.124203  -0.000151  1.020308  0.0  0.128  -0.00014  1.015103  0.0  0.147607  0.121334  -0.000131  1.024119  0.0
C  C14  1  0.59902854  0.25760349  0.03266985  1  0.417564  0.008581  3.83784  0.01  0.374164  0.003176  4.125762  0.005  0.390472  0.001735  4.13965  0.003  0.305851  0.363575  0.004427  4.115544  0.006
C  C15  1  0.22469134  0.06565209  0.46698423  1  0.419165  0.008302  3.83562  0.01  0.376178  0.003218  4.12328  0.005  0.39254  0.001767  4.13719  0.003  0.307574  0.365689  0.004408  4.113255  0.006
C  C16  1  0.40097700  0.74240048  0.96733344  1  0.417579  0.008576  3.83776  0.01  0.3741  0.003178  4.125794  0.005  0.390408  0.001734  4.139683  0.003  0.305809  0.36351  0.004427  4.115569  0.006
C  C17  1  0.77530897  0.93434875  0.53301735  1  0.419109  0.008297  3.835746  0.01  0.376257  0.003218  4.123221  0.005  0.39262  0.001764  4.13713  0.003  0.307659  0.365768  0.004408  4.113194  0.006
C  C18  1  0.77924806  0.18773203  0.96146762  1  0.192624  -0.000401  3.721208  0.004  0.145137  0.000914  4.008636  0.004  0.159453  -0.001168  4.02358  0.001  0.124599  0.136125  0.002542  3.998032  0.005
C  C19  1  0.22635995  0.31720125  0.53829601  1  0.193255  -0.001567  3.723875  0.003  0.146144  0.000672  4.011522  0.004  0.16064  -0.001383  4.026469  0.001  0.124047  0.137338  0.002511  4.000994  0.005
C  C20  1  0.22075490  0.81226911  0.03853257  1  0.192609  -0.000421  3.721276  0.004  0.145137  0.000914  4.008719  0.004  0.159459  -0.001169  4.023664  0.001  0.124629  0.136123  0.002542  3.998117  0.005
C  C21  1  0.77362617  0.68279310  0.46170132  1  0.193214  -0.001547  3.723979  0.003  0.146108  0.000671  4.011638  0.004  0.160607  -0.001384  4.026586  0.001  0.124035  0.137298  0.002511  4.001109  0.005
C  C22  1  0.30092318  0.25257385  0.92193885  1  0.168236  0.003336  3.589924  0.005  0.109919  0.00234  3.86696  0.004  0.121256  0.001409  3.875847  0.002  0.157752  0.1031  0.002829  3.861282  0.004
C  C23  1  0.33069205  0.87862164  0.57777740  1  0.164261  0.002884  3.589851  0.004  0.106497  0.002102  3.866904  0.003  0.117927  0.001302  3.875658  0.002  0.155984  0.099059  0.002821  3.861001  0.004
C  C24  1  0.69908002  0.74742563  0.07806502  1  0.168132  0.003363  3.589799  0.005  0.109793  0.002341  3.866835  0.004  0.121133  0.001407  3.875725  0.002  0.157701  0.102977  0.002829  3.861154  0.004
C  C25  1  0.66931376  0.12138002  0.42221850  1  0.164333  0.002864  3.58989  0.004  0.106503  0.002103  3.866924  0.003  0.117931  0.001299  3.875678  0.002  0.156033  0.099067  0.002822  3.861017  0.004
C  C26  1  0.38740145  0.29111560  0.15418562  1  0.188346  -0.005908  3.581992  -0.001  0.127253  -0.000797  3.851204  0.002  0.144585  -0.00262  3.860994  0.0  0.171312  0.116063  0.000853  3.845603  0.003
C  C27  1  0.13664643  0.73248755  0.34561975  1  0.188499  -0.005934  3.586867  -0.001  0.127966  -0.000827  3.855965  0.002  0.145197  -0.002638  3.865695  0.0  0.170396  0.116808  0.000827  3.849764  0.003
C  C28  1  0.61259851  0.70888228  0.84581726  1  0.188324  -0.005981  3.581919  -0.001  0.127203  -0.000796  3.851142  0.002  0.144553  -0.002619  3.860945  0.0  0.171293  0.116  0.000853  3.845529  0.003
C  C29  1  0.86335542  0.26751366  0.65437824  1  0.188616  -0.005916  3.586777  -0.001  0.128069  -0.000827  3.855877  0.002  0.145304  -0.002637  3.865608  0.0  0.170433  0.116909  0.000827  3.849674  0.003
N  N30  1  0.87482714  0.30005550  0.10613550  1  -0.251435  0.080879  3.31213  0.102  -0.217502  0.050443  3.654372  0.067  -0.250664  0.03898  3.677292  0.056  -0.291497  -0.197212  0.057771  3.640112  0.073
N  N31  1  0.19408372  0.26820824  0.39363953  1  -0.252496  0.083194  3.311833  0.105  -0.219323  0.051727  3.65461  0.069  -0.25294  0.039781  3.677984  0.057  -0.292247  -0.200067  0.057759  3.642287  0.073
N  N32  1  0.12517523  0.69994695  0.89386583  1  -0.251465  0.080887  3.312105  0.102  -0.217522  0.050444  3.654341  0.067  -0.250711  0.038978  3.677303  0.056  -0.291541  -0.197234  0.057769  3.640086  0.073
N  N33  1  0.80591071  0.73178810  0.60635892  1  -0.252448  0.083184  3.311813  0.105  -0.219275  0.051732  3.654599  0.069  -0.252921  0.039777  3.678016  0.057  -0.292247  -0.200022  0.057764  3.642275  0.073
N  N34  1  0.75774168  0.34751963  0.15337751  1  -0.339267  -0.000633  2.937743  0.001  -0.319243  0.003426  3.229936  0.004  -0.330069  0.001622  3.250057  0.002  -0.242643  -0.311537  0.005178  3.216364  0.006
N  N35  1  0.19409603  0.10379379  0.34632022  1  -0.34053  -0.001282  2.937362  0.0  -0.320492  0.003073  3.229451  0.004  -0.33118  0.001496  3.249642  0.002  -0.244452  -0.312519  0.005192  3.216674  0.006
N  N36  1  0.24226240  0.65248145  0.84662488  1  -0.339336  -0.000636  2.937635  0.001  -0.319296  0.003422  3.229865  0.004  -0.33012  0.001623  3.249992  0.002  -0.242664  -0.311591  0.005178  3.216295  0.006
N  N37  1  0.80590038  0.89620407  0.65367894  1  -0.340535  -0.001269  2.937459  0.0  -0.32054  0.003071  3.229517  0.004  -0.331227  0.001504  3.249714  0.002  -0.244474  -0.312568  0.005193  3.216741  0.006
N  N38  1  0.60203654  0.15691044  0.91008254  1  -0.451233  0.010414  2.96618  0.013  -0.41424  0.004649  3.234106  0.006  -0.432813  0.002435  3.246481  0.004  -0.34087  -0.400896  0.00714  3.224865  0.009
N  N39  1  0.24665067  0.19123686  0.58961182  1  -0.451285  0.013784  2.966973  0.017  -0.415961  0.005968  3.235541  0.008  -0.435033  0.003044  3.248222  0.005  -0.340546  -0.402786  0.007131  3.226921  0.009
N  N40  1  0.39796480  0.84309474  0.08991915  1  -0.451203  0.01042  2.966168  0.013  -0.414211  0.004649  3.234126  0.006  -0.432786  0.002435  3.246499  0.004  -0.340853  -0.400867  0.007141  3.224884  0.009
N  N41  1  0.75334192  0.80876069  0.41038750  1  -0.451261  0.013784  2.966913  0.017  -0.415989  0.005968  3.235449  0.008  -0.435059  0.003043  3.248126  0.005  -0.340583  -0.402812  0.007132  3.226829  0.009
N  N42  1  0.23014035  0.29564536  0.11469585  1  -0.228854  0.058921  3.258216  0.077  -0.191806  0.044173  3.590082  0.061  -0.219074  0.034426  3.605208  0.052  -0.262992  -0.176709  0.049113  3.583318  0.064
N  N43  1  0.18080089  0.61486286  0.38520564  1  -0.231656  0.056898  3.263375  0.075  -0.193955  0.043069  3.594637  0.06  -0.220939  0.033734  3.609533  0.051  -0.261943  -0.177836  0.04902  3.586129  0.064
N  N44  1  0.76986101  0.70435275  0.88530537  1  -0.228845  0.058945  3.258184  0.077  -0.191803  0.044171  3.590064  0.061  -0.219095  0.034427  3.605223  0.052  -0.263014  -0.176709  0.049112  3.583307  0.064
N  N45  1  0.81919978  0.38513835  0.61479112  1  -0.231703  0.05689  3.263377  0.075  -0.193975  0.04307  3.594631  0.06  -0.220983  0.033731  3.60956  0.051  -0.261967  -0.177859  0.04902  3.586124  0.064
N  N46  1  0.17542951  0.27202300  0.96889725  1  -0.21504  0.002845  2.940818  0.004  -0.192162  0.002665  3.232267  0.004  -0.199806  0.000826  3.248931  0.002  -0.217241  -0.186427  0.004809  3.22112  0.006
N  N47  1  0.30316431  0.70615188  0.53095638  1  -0.214172  0.002907  2.941272  0.004  -0.191432  0.00275  3.232478  0.004  -0.199078  0.000866  3.249008  0.002  -0.217277  -0.185416  0.004826  3.221026  0.006
N  N48  1  0.82457184  0.72797510  0.03110397  1  -0.215053  0.002827  2.940732  0.004  -0.192166  0.002666  3.232191  0.004  -0.199806  0.000825  3.248858  0.002  -0.217239  -0.186431  0.004809  3.221045  0.006
N  N49  1  0.69684069  0.29384826  0.46904004  1  -0.214184  0.002924  2.941375  0.004  -0.191454  0.002751  3.232585  0.004  -0.199096  0.00087  3.249125  0.002  -0.217301  -0.185436  0.004827  3.221129  0.006
N  N50  1  0.43746578  0.26563218  0.03542191  1  -0.148239  0.001301  3.566339  0.002  -0.056091  0.001224  3.780019  0.002  -0.073343  0.000848  3.799752  0.001  -0.204978  -0.044701  0.001396  3.766149  0.002
N  N51  1  0.23001973  0.90140236  0.46426185  1  -0.144424  0.001247  3.566666  0.002  -0.05219  0.00117  3.779369  0.002  -0.069447  0.000795  3.799118  0.001  -0.203202  -0.040902  0.001389  3.765646  0.002
N  N52  1  0.56253822  0.73436882  0.96458145  1  -0.148047  0.001314  3.566172  0.002  -0.055863  0.001224  3.779853  0.002  -0.073113  0.000846  3.799582  0.001  -0.20488  -0.044473  0.001396  3.765979  0.002
N  N53  1  0.76998461  0.09859900  0.53573668  1  -0.144391  0.001247  3.566595  0.002  -0.052209  0.00117  3.779307  0.002  -0.069467  0.000795  3.799057  0.001  -0.203257  -0.040922  0.001389  3.765582  0.002
