# generated using pymatgen
data_Zn4H36C24O13
_symmetry_space_group_name_H-M   'P 1'
_cell_length_a   16.18650925
_cell_length_b   16.35291563
_cell_length_c   16.72387940
_cell_angle_alpha   62.08523366
_cell_angle_beta   88.78201893
_cell_angle_gamma   61.04838934
_symmetry_Int_Tables_number   1
_chemical_formula_structural   Zn4H36C24O13
_chemical_formula_sum   'Zn8 H72 C48 O26'
_cell_volume   3299.89627971
_cell_formula_units_Z   2
loop_
 _symmetry_equiv_pos_site_id
 _symmetry_equiv_pos_as_xyz
  1  'x, y, z'
loop_
 _atom_site_type_symbol
 _atom_site_label
 _atom_site_symmetry_multiplicity
 _atom_site_fract_x
 _atom_site_fract_y
 _atom_site_fract_z
 _atom_site_occupancy
 _atom_site_pbe_bader_charge
 _atom_site_pbe_bader_spin_density
 _atom_site_pbe_cm5_charge
 _atom_site_pbe_ddec_charge
 _atom_site_pbe_ddec_spin_density
 _atom_site_pbe_ddec_sum_bond_order
 _atom_site_pbe_magmom
Zn  Zn0  1  0.05453519  0.95473081  0.95600455  1  1.30438  0  0.665469  0.94036  0  2.451568  0
Zn  Zn1  1  0.02055115  0.92567653  0.14607145  1  1.312008  0  0.672761  0.955482  0  2.394472  0
Zn  Zn2  1  0.83834499  0.09655290  0.96298571  1  1.313537  0  0.670586  0.965357  0  2.365517  0
Zn  Zn3  1  0.00220669  0.15198328  0.98605180  1  1.311016  0  0.668173  0.965863  0  2.310426  0
Zn  Zn4  1  0.44806146  0.15283480  0.53803472  1  1.311514  0  0.668152  0.965359  0  2.321533  0
Zn  Zn5  1  0.42430034  0.09842591  0.37886081  1  1.313274  0  0.671386  0.961947  0  2.38241  0
Zn  Zn6  1  0.41163687  0.96222165  0.58364272  1  1.304116  0  0.666029  0.944044  0  2.447341  0
Zn  Zn7  1  0.61392470  0.92386235  0.55400431  1  1.310084  0  0.671219  0.955092  0  2.385813  0
H  H8  1  0.50430464  0.46783075  0.11946605  1  0.012326  0  0.084201  0.109015  0  1.014251  0
H  H9  1  0.52561691  0.41231635  0.24253947  1  0.023034  0  0.082226  0.105949  0  1.008118  0
H  H10  1  0.47426987  0.55496108  0.16472220  1  0.018705  0  0.08193  0.104332  0  1.008637  0
H  H11  1  0.37523969  0.43058307  0.17668707  1  -0.00241  0  0.08639  0.08154  0  0.990474  0
H  H12  1  0.32308417  0.57261080  0.09892543  1  0.009211  0  0.0863  0.076441  0  0.980484  0
H  H13  1  0.38449989  0.45863075  0.31387585  1  0.022651  0  0.088826  0.085354  0  0.987336  0
H  H14  1  0.32204053  0.60062235  0.23335143  1  0.028536  0  0.088972  0.085485  0  0.984849  0
H  H15  1  0.21257449  0.54880927  0.31039715  1  0.059292  0  0.100174  0.070899  0  0.951506  0
H  H16  1  0.16372120  0.60664402  0.10710275  1  0.051098  0  0.103038  0.117902  0  0.983614  0
H  H17  1  0.08112530  0.62600929  0.17662471  1  0.044467  0  0.108967  0.125935  0  0.953728  0
H  H18  1  0.17262941  0.42983634  0.30344933  1  0.064566  0  0.106226  0.122817  0  0.961872  0
H  H19  1  0.22978932  0.42544749  0.21272026  1  0.046679  0  0.10117  0.116915  0  0.983413  0
H  H20  1  0.87586931  0.68376776  0.90592159  1  0.041292  0  0.085174  0.110629  0  1.004664  0
H  H21  1  0.74755750  0.77857647  0.85715885  1  0.008975  0  0.082272  0.106356  0  1.012293  0
H  H22  1  0.80966688  0.77200350  0.94834733  1  0.019168  0  0.079984  0.101536  0  1.011254  0
H  H23  1  0.83890961  0.84656817  0.74907913  1  0.025998  0  0.086611  0.080372  0  0.990396  0
H  H24  1  0.90390723  0.83775131  0.83946592  1  -0.004949  0  0.084988  0.074952  0  0.979809  0
H  H25  1  0.67977065  0.98108939  0.76395471  1  0.010174  0  0.086449  0.080648  0  0.99306  0
H  H26  1  0.74924557  0.97785484  0.84573013  1  0.028032  0  0.088376  0.088341  0  0.995889  0
H  H27  1  0.69260223  0.14127286  0.69610798  1  0.046848  0  0.099043  0.068933  0  0.951887  0
H  H28  1  0.91113697  0.99428811  0.71667590  1  0.054331  0  0.105366  0.120508  0  0.979913  0
H  H29  1  0.84215094  0.13716919  0.66340372  1  0.050251  0  0.108561  0.1243  0  0.957923  0
H  H30  1  0.72745176  0.15403603  0.55216756  1  0.050845  0  0.104023  0.121557  0  0.966956  0
H  H31  1  0.81081983  0.00967424  0.60717776  1  0.043831  0  0.101222  0.115959  0  0.98618  0
H  H32  1  0.10759905  0.99614677  0.66578068  1  -0.001963  0  0.082207  0.108951  0  1.004813  0
H  H33  1  0.11346364  0.11380762  0.59460243  1  0.004591  0  0.075911  0.098034  0  1.021583  0
H  H34  1  0.03947899  0.11361596  0.67496996  1  0.015646  0  0.075106  0.097568  0  1.027022  0
H  H35  1  0.26484314  0.96712866  0.73023111  1  0.038214  0  0.084116  0.084842  0  1.011729  0
H  H36  1  0.19201356  0.96518573  0.81007416  1  0.040805  0  0.083281  0.083027  0  1.015282  0
H  H37  1  0.19858025  0.16596444  0.66870757  1  0.019635  0  0.087099  0.079487  0  0.987526  0
H  H38  1  0.12453152  0.16568434  0.74644098  1  0.016747  0  0.087108  0.079419  0  0.988808  0
H  H39  1  0.25688481  0.17148504  0.79306803  1  0.022718  0  0.099554  0.063783  0  0.950853  0
H  H40  1  0.32708520  0.93802431  0.94473377  1  0.043916  0  0.101723  0.11732  0  0.980791  0
H  H41  1  0.30792217  0.04952466  0.95436100  1  0.045841  0  0.103982  0.121151  0  0.966846  0
H  H42  1  0.42535012  0.04964039  0.83212731  1  0.03643  0  0.104257  0.122038  0  0.966457  0
H  H43  1  0.41452240  0.93927834  0.85025951  1  0.060136  0  0.102961  0.119015  0  0.982432  0
H  H44  1  0.92689938  0.94674146  0.43256567  1  0.019841  0  0.083441  0.10806  0  1.006104  0
H  H45  1  0.80462435  0.06211920  0.38812816  1  0.019688  0  0.079907  0.102874  0  1.01171  0
H  H46  1  0.88156078  0.05071826  0.31155522  1  0.009749  0  0.079575  0.104784  0  1.020812  0
H  H47  1  0.80961804  0.89456273  0.41334459  1  0.032654  0  0.085081  0.08222  0  0.999536  0
H  H48  1  0.88580353  0.88464365  0.33645371  1  0.027413  0  0.085325  0.082667  0  0.997626  0
H  H49  1  0.67610596  0.07847855  0.28425824  1  0.024582  0  0.088621  0.082539  0  0.984537  0
H  H50  1  0.75116634  0.07675228  0.20733095  1  0.021005  0  0.088661  0.08295  0  0.98769  0
H  H51  1  0.62954565  0.04316082  0.17473072  1  0.031016  0  0.100205  0.067968  0  0.950194  0
H  H52  1  0.82135351  0.82124091  0.25518676  1  0.046171  0  0.101488  0.116933  0  0.981416  0
H  H53  1  0.72510281  0.89429022  0.15277326  1  0.04652  0  0.103815  0.12163  0  0.966031  0
H  H54  1  0.62187514  0.88487270  0.27448399  1  0.044791  0  0.104708  0.12251  0  0.966067  0
H  H55  1  0.73127138  0.82124264  0.35960829  1  0.039548  0  0.102385  0.118719  0  0.979541  0
H  H56  1  0.37873058  0.69585411  0.39384087  1  0.007968  0  0.083925  0.1084  0  1.006669  0
H  H57  1  0.41791802  0.78695116  0.32951314  1  0.00421  0  0.079744  0.101086  0  1.011919  0
H  H58  1  0.32317672  0.79209860  0.27173306  1  0.013295  0  0.082656  0.108427  0  1.008446  0
H  H59  1  0.30704955  0.84686225  0.42660615  1  0.023748  0  0.084403  0.072766  0  0.982394  0
H  H60  1  0.21289595  0.85678314  0.36361870  1  0.023828  0  0.086532  0.080209  0  0.989426  0
H  H61  1  0.30870691  0.99053682  0.28205676  1  0.028686  0  0.08813  0.088065  0  0.995968  0
H  H62  1  0.22699897  0.99336273  0.21215046  1  -0.007672  0  0.086804  0.080942  0  0.994343  0
H  H63  1  0.15225717  0.15193028  0.23131020  1  0.041376  0  0.0992  0.069126  0  0.951013  0
H  H64  1  0.05543445  0.02512242  0.33170718  1  0.055857  0  0.10052  0.113323  0  0.995731  0
H  H65  1  0.00036223  0.16811766  0.25026311  1  0.072547  0  0.104024  0.12142  0  0.966523  0
H  H66  1  0.11021693  0.14027988  0.37734150  1  0.034511  0  0.109244  0.126538  0  0.955111  0
H  H67  1  0.17084552  0.99721064  0.43668715  1  0.071384  0  0.106066  0.122123  0  0.976727  0
H  H68  1  0.59042862  0.55289461  0.01686006  1  0.036363  0  0.082795  0.105816  0  1.027723  0
H  H69  1  0.65314554  0.62134217  0.96768865  1  0.012407  0  0.081917  0.104964  0  1.010433  0
H  H70  1  0.71974177  0.47596866  0.03712296  1  0.018981  0  0.082418  0.106286  0  1.007238  0
H  H71  1  0.56770067  0.61585075  0.84657616  1  0.018331  0  0.086135  0.076613  0  0.981491  0
H  H72  1  0.63690245  0.47128527  0.91524989  1  0.012535  0  0.086266  0.077361  0  0.982197  0
H  H73  1  0.72173396  0.61679929  0.82947801  1  0.022499  0  0.088345  0.085836  0  0.994548  0
H  H74  1  0.79297329  0.47309205  0.90151571  1  0.029859  0  0.088644  0.08683  0  0.989408  0
H  H75  1  0.78254771  0.53445938  0.73682317  1  0.044594  0  0.099431  0.068841  0  0.951046  0
H  H76  1  0.65770207  0.43326362  0.78813225  1  0.063179  0  0.10176  0.11597  0  0.986786  0
H  H77  1  0.74436766  0.41637498  0.72235285  1  0.044262  0  0.107989  0.123602  0  0.957356  0
H  H78  1  0.63519537  0.61919364  0.62011606  1  0.046105  0  0.108474  0.124524  0  0.954422  0
H  H79  1  0.56469292  0.61307930  0.70183432  1  0.054124  0  0.102662  0.116843  0  0.984758  0
C  C80  1  0.47463094  0.48355125  0.17393846  1  -0.063829  0  -0.244843  -0.352897  0  3.992576  0
C  C81  1  0.37205317  0.50282960  0.16898813  1  0.018059  0  -0.170225  -0.096076  0  3.957614  0
C  C82  1  0.33055509  0.52439237  0.24507460  1  -0.031745  0  -0.166452  -0.187423  0  3.906206  0
C  C83  1  0.23240472  0.53255716  0.25377038  1  0.024567  0  -0.081832  0.075064  0  3.839896  0
C  C84  1  0.14902418  0.62417587  0.16347685  1  -0.020544  0  -0.157911  -0.330288  0  3.911243  0
C  C85  1  0.12204799  0.74054318  0.12396727  1  1.552537  0  0.22677  0.663354  0  4.108908  0
C  C86  1  0.23618432  0.42737062  0.27690815  1  -0.046463  0  -0.159955  -0.335186  0  3.902317  0
C  C87  1  0.32587903  0.31867407  0.34834117  1  1.551281  0  0.228391  0.66861  0  4.103474  0
C  C88  1  0.81589308  0.76705787  0.88485715  1  -0.07204  0  -0.245617  -0.351351  0  3.991615  0
C  C89  1  0.83312940  0.85391669  0.81142107  1  -0.000124  0  -0.171082  -0.09571  0  3.962714  0
C  C90  1  0.75077016  0.96984045  0.78382107  1  -0.022698  0  -0.168828  -0.189987  0  3.912495  0
C  C91  1  0.75436645  0.06550001  0.70358943  1  0.031016  0  -0.081484  0.075376  0  3.835222  0
C  C92  1  0.84945189  0.06130192  0.72060189  1  -0.022523  0  -0.156352  -0.330074  0  3.909748  0
C  C93  1  0.88314685  0.05030626  0.81075604  1  1.557888  0  0.229471  0.663249  0  4.112069  0
C  C94  1  0.74267437  0.07356551  0.60798684  1  -0.032641  0  -0.160903  -0.337699  0  3.90355  0
C  C95  1  0.66112409  0.06102078  0.58568488  1  1.556044  0  0.229317  0.668562  0  4.113199  0
C  C96  1  0.10938478  0.06288209  0.66486043  1  -0.026226  0  -0.249244  -0.346493  0  3.993281  0
C  C97  1  0.19608492  0.01839594  0.74108955  1  -0.033658  0  -0.180356  -0.108484  0  3.947069  0
C  C98  1  0.19607723  0.11300555  0.73934058  1  -0.022915  0  -0.165246  -0.18253  0  3.906979  0
C  C99  1  0.27543845  0.08972811  0.81058441  1  0.035988  0  -0.071847  0.087961  0  3.775989  0
C  C100  1  0.27813639  0.02641654  0.91586099  1  -0.012336  0  -0.157948  -0.328443  0  3.867142  0
C  C101  1  0.18135058  0.04278538  0.93567073  1  1.554859  0  0.230923  0.671924  0  4.101714  0
C  C102  1  0.38266751  0.02789391  0.80524744  1  -0.016465  0  -0.159226  -0.331643  0  3.875103  0
C  C103  1  0.39567768  0.04744388  0.70934800  1  1.55324  0  0.228831  0.667108  0  4.109906  0
C  C104  1  0.86197915  0.00376800  0.37221371  1  -0.068779  0  -0.246499  -0.346804  0  3.9855  0
C  C105  1  0.82655068  0.94283726  0.35109529  1  -0.014202  0  -0.175363  -0.104498  0  3.956122  0
C  C106  1  0.73575194  0.02287328  0.26729465  1  -0.028941  0  -0.166512  -0.186462  0  3.916188  0
C  C107  1  0.69539749  0.97350491  0.23298284  1  0.051677  0  -0.076076  0.078883  0  3.818211  0
C  C108  1  0.76690129  0.90308437  0.19580704  1  -0.021562  0  -0.159331  -0.331325  0  3.891186  0
C  C109  1  0.82306970  0.94987363  0.13819424  1  1.556153  0  0.228175  0.666757  0  4.118912  0
C  C110  1  0.66546141  0.90014491  0.30868090  1  -0.000807  0  -0.159888  -0.333192  0  3.899623  0
C  C111  1  0.60654169  0.94878261  0.36324599  1  1.554198  0  0.228789  0.667595  0  4.115302  0
C  C112  1  0.35349808  0.77998317  0.33740259  1  -0.031235  0  -0.245365  -0.350746  0  3.992436  0
C  C113  1  0.27687600  0.86472139  0.35790081  1  -0.030672  0  -0.170809  -0.09307  0  3.963617  0
C  C114  1  0.24567106  0.98144830  0.28141899  1  0.001763  0  -0.169142  -0.189715  0  3.909726  0
C  C115  1  0.15913788  0.07568094  0.28642337  1  0.050649  0  -0.082197  0.076013  0  3.833807  0
C  C116  1  0.06014638  0.08590814  0.26814021  1  -0.057287  0  -0.160963  -0.339528  0  3.900591  0
C  C117  1  0.04450829  0.06855825  0.19006569  1  1.550844  0  0.229961  0.667853  0  4.115474  0
C  C118  1  0.17265467  0.06711104  0.38109916  1  -0.026417  0  -0.157275  -0.332337  0  3.911347  0
C  C119  1  0.26383131  0.05726904  0.41732275  1  1.561575  0  0.229587  0.665648  0  4.109072  0
C  C120  1  0.65093796  0.54893777  0.98439140  1  -0.078096  0  -0.2456  -0.352648  0  3.992563  0
C  C121  1  0.63903320  0.54438867  0.89636283  1  -0.015888  0  -0.169526  -0.09227  0  3.962636  0
C  C122  1  0.72195937  0.54208274  0.84973378  1  -0.017265  0  -0.168261  -0.190565  0  3.908908  0
C  C123  1  0.72014726  0.53234434  0.76278474  1  0.033759  0  -0.083536  0.074078  0  3.843055  0
C  C124  1  0.72828772  0.42625595  0.78286319  1  -0.036079  0  -0.158799  -0.331649  0  3.907089  0
C  C125  1  0.80423286  0.31781947  0.86810401  1  1.561772  0  0.228096  0.668066  0  4.102263  0
C  C126  1  0.62526028  0.62471335  0.68334699  1  -0.030262  0  -0.157366  -0.328097  0  3.906627  0
C  C127  1  0.58786273  0.74264802  0.65083449  1  1.550893  0  0.227236  0.663726  0  4.111001  0
O  O128  1  0.97601122  0.03726547  0.01261085  1  -1.233035  0  -0.577042  -1.033901  0  2.563224  0
O  O129  1  0.11885281  0.77371004  0.18026565  1  -1.179422  0  -0.321056  -0.557276  0  2.28449  0
O  O130  1  0.09963574  0.79894839  0.03454236  1  -1.164647  0  -0.324024  -0.558942  0  2.309545  0
O  O131  1  0.37615059  0.25475427  0.31905069  1  -1.196821  0  -0.330977  -0.576214  0  2.316592  0
O  O132  1  0.34423051  0.29734458  0.43212083  1  -1.160755  0  -0.317932  -0.550177  0  2.265646  0
O  O133  1  0.81967647  0.08621312  0.85150421  1  -1.18334  0  -0.3127  -0.5521  0  2.305608  0
O  O134  1  0.97529111  0.00676821  0.83699643  1  -1.169838  0  -0.321421  -0.555484  0  2.335073  0
O  O135  1  0.68804507  0.96994340  0.59251587  1  -1.171939  0  -0.318655  -0.553564  0  2.321024  0
O  O136  1  0.57348275  0.14052693  0.56347799  1  -1.175766  0  -0.320177  -0.559032  0  2.293339  0
O  O137  1  0.12210938  0.12621748  0.94075700  1  -1.17622  0  -0.319577  -0.558118  0  2.266288  0
O  O138  1  0.16806138  0.96757897  0.94686327  1  -1.177691  0  -0.321758  -0.563773  0  2.362352  0
O  O139  1  0.40054411  0.97654515  0.69300570  1  -1.179597  0  -0.319397  -0.560277  0  2.366011  0
O  O140  1  0.40226005  0.12896579  0.65374912  1  -1.175729  0  -0.319409  -0.556587  0  2.26949  0
O  O141  1  0.77854880  0.02899605  0.05307793  1  -1.173069  0  -0.321213  -0.55401  0  2.281071  0
O  O142  1  0.91106117  0.90598913  0.18038462  1  -1.18937  0  -0.317769  -0.562784  0  2.346243  0
O  O143  1  0.65165576  0.90747829  0.44665924  1  -1.186364  0  -0.316523  -0.561121  0  2.341963  0
O  O144  1  0.51698193  0.02708104  0.32157204  1  -1.178229  0  -0.321996  -0.554793  0  2.284676  0
O  O145  1  0.02480645  0.14463624  0.10593732  1  -1.17899  0  -0.319067  -0.558068  0  2.287849  0
O  O146  1  0.05420180  0.97647848  0.21661410  1  -1.173784  0  -0.318696  -0.553661  0  2.331671  0
O  O147  1  0.28860796  0.01449056  0.50602811  1  -1.183189  0  -0.324035  -0.558706  0  2.317965  0
O  O148  1  0.30698167  0.09301839  0.35857679  1  -1.183044  0  -0.311816  -0.55124  0  2.315398  0
O  O149  1  0.89125126  0.29604570  0.88589758  1  -1.165625  0  -0.315281  -0.547432  0  2.27134  0
O  O150  1  0.77460109  0.25401938  0.91470113  1  -1.198602  0  -0.334181  -0.578616  0  2.309048  0
O  O151  1  0.49477132  0.80522188  0.62846505  1  -1.175414  0  -0.326386  -0.565287  0  2.318139  0
O  O152  1  0.64888032  0.77229734  0.64420360  1  -1.174294  0  -0.318184  -0.551934  0  2.286343  0
O  O153  1  0.47484552  0.03817977  0.51167091  1  -1.23384  0  -0.57728  -1.034122  0  2.566195  0
