# generated using pymatgen
data_EuH13C23N4O7
_symmetry_space_group_name_H-M   'P 1'
_cell_length_a   13.12149685
_cell_length_b   13.12149947
_cell_length_c   15.13118919
_cell_angle_alpha   93.12785455
_cell_angle_beta   93.11663992
_cell_angle_gamma   117.73621940
_symmetry_Int_Tables_number   1
_chemical_formula_structural   EuH13C23N4O7
_chemical_formula_sum   'Eu4 H52 C92 N16 O28'
_cell_volume   2293.02390710
_cell_formula_units_Z   4
loop_
 _symmetry_equiv_pos_site_id
 _symmetry_equiv_pos_as_xyz
  1  'x, y, z'
loop_
 _atom_site_type_symbol
 _atom_site_label
 _atom_site_symmetry_multiplicity
 _atom_site_fract_x
 _atom_site_fract_y
 _atom_site_fract_z
 _atom_site_occupancy
 _atom_site_pbe_bader_charge
 _atom_site_pbe_bader_spin_density
 _atom_site_pbe_cm5_charge
 _atom_site_pbe_ddec_charge
 _atom_site_pbe_ddec_spin_density
 _atom_site_pbe_ddec_sum_bond_order
 _atom_site_pbe_magmom
Eu  Eu0  1  0.61532004  0.89988837  0.41981949  1  2.144828  0  1.530766  1.868409  0  2.34139  0
Eu  Eu1  1  0.10010486  0.38466683  0.08016652  1  2.144661  0  1.530801  1.86835  0  2.341566  0
Eu  Eu2  1  0.38468074  0.10011115  0.58017927  1  2.144891  0  1.530772  1.86837  0  2.341285  0
Eu  Eu3  1  0.89989591  0.61533344  0.91983293  1  2.144632  0  1.530824  1.868355  0  2.341499  0
H  H4  1  0.25702708  0.82676358  0.62338376  1  0.128867  0  0.128796  0.101056  0  0.984711  0
H  H5  1  0.17323101  0.74297746  0.87661707  1  0.128977  0  0.128795  0.101078  0  0.984856  0
H  H6  1  0.74297282  0.17323552  0.37661625  1  0.128874  0  0.1288  0.101068  0  0.984709  0
H  H7  1  0.82676889  0.25702241  0.12338232  1  0.12899  0  0.128792  0.101059  0  0.984829  0
H  H8  1  0.06479402  0.65607349  0.63990658  1  0.08002  0  0.111167  0.116502  0  0.991517  0
H  H9  1  0.34392656  0.93520636  0.86009415  1  0.080067  0  0.111139  0.116466  0  0.991512  0
H  H10  1  0.93520674  0.34392677  0.36009420  1  0.08002  0  0.111174  0.116507  0  0.991535  0
H  H11  1  0.65607334  0.06479350  0.13990656  1  0.080061  0  0.111144  0.116461  0  0.991545  0
H  H12  1  0.89242325  0.68998357  0.65178619  1  0.086263  0  0.112143  0.110836  0  0.999174  0
H  H13  1  0.31001676  0.10757509  0.84821392  1  0.086293  0  0.112144  0.110823  0  0.999213  0
H  H14  1  0.10757578  0.31001512  0.34821442  1  0.086296  0  0.112148  0.110844  0  0.99917  0
H  H15  1  0.68998315  0.89242477  0.15178547  1  0.086284  0  0.112143  0.110835  0  0.999235  0
H  H16  1  0.91721721  0.88807678  0.64599952  1  0.140788  0  0.103262  0.110954  0  1.070879  0
H  H17  1  0.11191912  0.08277779  0.85399888  1  0.140819  0  0.103308  0.110961  0  1.070924  0
H  H18  1  0.08278183  0.11192267  0.35400046  1  0.140788  0  0.103271  0.110955  0  1.070894  0
H  H19  1  0.88808165  0.91722171  0.14600120  1  0.140807  0  0.103308  0.110973  0  1.070895  0
H  H20  1  0.94875624  0.05080468  0.64333293  1  0.101458  0  0.111127  0.12339  0  1.033648  0
H  H21  1  0.94919153  0.05123913  0.85666263  1  0.101794  0  0.111092  0.123339  0  1.033759  0
H  H22  1  0.05124366  0.94919518  0.35666712  1  0.101464  0  0.111125  0.123398  0  1.033645  0
H  H23  1  0.05080837  0.94875996  0.14333738  1  0.101784  0  0.111109  0.123343  0  1.0337  0
H  H24  1  0.20083390  0.40612014  0.64051924  1  0.073504  0  0.109364  0.113709  0  1.012377  0
H  H25  1  0.59387532  0.79915639  0.85947676  1  0.073457  0  0.109355  0.113648  0  1.0124  0
H  H26  1  0.79916601  0.59387973  0.35948015  1  0.073491  0  0.109371  0.113715  0  1.012414  0
H  H27  1  0.40612459  0.20084424  0.14052267  1  0.07346  0  0.109361  0.113667  0  1.012393  0
H  H28  1  0.36980649  0.51678985  0.66963277  1  0.057855  0  0.110646  0.115746  0  0.996576  0
H  H29  1  0.48322358  0.63018319  0.83037244  1  0.05817  0  0.110584  0.115669  0  0.996719  0
H  H30  1  0.63019341  0.48321001  0.33036728  1  0.057851  0  0.110645  0.115732  0  0.996591  0
H  H31  1  0.51677718  0.36981784  0.16962771  1  0.058164  0  0.110588  0.115676  0  0.996718  0
H  H32  1  0.57310219  0.65345344  0.64742018  1  0.166335  0  0.107218  0.104919  0  1.035613  0
H  H33  1  0.34655187  0.42689088  0.85258382  1  0.166071  0  0.107212  0.104939  0  1.035491  0
H  H34  1  0.42689771  0.34654642  0.35257987  1  0.16633  0  0.107225  0.104945  0  1.0356  0
H  H35  1  0.65344803  0.57310821  0.14741619  1  0.166059  0  0.107225  0.104956  0  1.035508  0
H  H36  1  0.69920289  0.57308912  0.58765021  1  0.068178  0  0.1103  0.112486  0  0.994421  0
H  H37  1  0.42690842  0.30079998  0.91234714  1  0.068204  0  0.110303  0.112459  0  0.994438  0
H  H38  1  0.30079787  0.42691114  0.41235057  1  0.068179  0  0.110301  0.112483  0  0.994448  0
H  H39  1  0.57309149  0.69919988  0.08765225  1  0.068197  0  0.110293  0.112471  0  0.994437  0
H  H40  1  0.61365568  0.35809567  0.55553565  1  0.120575  0  0.123336  0.09156  0  1.023524  0
H  H41  1  0.64189664  0.38635276  0.94446209  1  0.120503  0  0.123322  0.091528  0  1.023522  0
H  H42  1  0.38634422  0.64190496  0.44446444  1  0.1206  0  0.123331  0.091537  0  1.023557  0
H  H43  1  0.35810326  0.61364787  0.05553800  1  0.120498  0  0.123307  0.091485  0  1.023553  0
H  H44  1  0.84829427  0.12056606  0.56445683  1  0.131077  0  0.108682  0.109871  0  1.052174  0
H  H45  1  0.87941405  0.15170825  0.93553340  1  0.130924  0  0.10867  0.109823  0  1.05237  0
H  H46  1  0.15170564  0.87943227  0.43554248  1  0.131048  0  0.108674  0.109889  0  1.052256  0
H  H47  1  0.12058585  0.84829237  0.06446669  1  0.130889  0  0.108644  0.109793  0  1.052443  0
H  H48  1  0.72427648  0.35138295  0.66418539  1  0.126211  0  0.111523  0.115012  0  1.026877  0
H  H49  1  0.64863270  0.27573241  0.83582221  1  0.125964  0  0.111494  0.115002  0  1.026849  0
H  H50  1  0.27572516  0.64861697  0.33581344  1  0.126225  0  0.111514  0.115014  0  1.026739  0
H  H51  1  0.35136633  0.72426627  0.16417773  1  0.125965  0  0.111505  0.115024  0  1.026825  0
H  H52  1  0.07112733  0.42205708  0.74388349  1  0.138303  0  0.108138  0.11861  0  1.008137  0
H  H53  1  0.57794154  0.92885515  0.75611062  1  0.138018  0  0.108133  0.118627  0  1.007993  0
H  H54  1  0.92887257  0.57794278  0.25611656  1  0.138296  0  0.108131  0.118594  0  1.008156  0
H  H55  1  0.42205836  0.07114547  0.24388947  1  0.138015  0  0.108131  0.118625  0  1.008  0
C  C56  1  0.17920252  0.83626468  0.62795627  1  0.463229  0  0.058135  0.111535  0  3.969689  0
C  C57  1  0.16373354  0.82080207  0.87204548  1  0.462791  0  0.058041  0.111342  0  3.969937  0
C  C58  1  0.82079825  0.16373558  0.37204385  1  0.463219  0  0.058114  0.111492  0  3.969723  0
C  C59  1  0.83626636  0.17919703  0.12795454  1  0.46277  0  0.058079  0.111418  0  3.969958  0
C  C60  1  0.07229889  0.74195779  0.63660355  1  -0.026443  0  -0.077102  -0.118323  0  3.950119  0
C  C61  1  0.25804097  0.92770375  0.86339587  1  -0.026116  0  -0.077109  -0.118272  0  3.950086  0
C  C62  1  0.92770101  0.25804207  0.36339650  1  -0.026371  0  -0.077112  -0.118319  0  3.950133  0
C  C63  1  0.74195894  0.07229688  0.13660356  1  -0.026117  0  -0.077131  -0.118298  0  3.950135  0
C  C64  1  0.97690272  0.76124381  0.64252996  1  -0.028256  0  -0.061042  -0.011499  0  3.934553  0
C  C65  1  0.23875534  0.02309747  0.85746973  1  -0.028429  0  -0.060989  -0.011484  0  3.934419  0
C  C66  1  0.02309717  0.23875528  0.35747071  1  -0.028362  0  -0.061062  -0.011524  0  3.934569  0
C  C67  1  0.76124457  0.97690163  0.14252962  1  -0.028436  0  -0.060998  -0.011528  0  3.934451  0
C  C68  1  0.99167406  0.87324535  0.64040867  1  -0.015331  0  -0.079905  -0.152465  0  3.907463  0
C  C69  1  0.12675167  0.00832533  0.85959044  1  -0.015211  0  -0.079962  -0.152509  0  3.907345  0
C  C70  1  0.00832584  0.12675450  0.35959138  1  -0.015298  0  -0.079925  -0.152489  0  3.907544  0
C  C71  1  0.87324737  0.99167412  0.14040955  1  -0.015291  0  -0.07997  -0.152476  0  3.907361  0
C  C72  1  0.10244132  0.96432261  0.63317803  1  0.455933  0  0.126725  0.186463  0  3.962534  0
C  C73  1  0.03567413  0.89756001  0.86682481  1  0.455987  0  0.126696  0.186527  0  3.962496  0
C  C74  1  0.89755858  0.03567725  0.36682202  1  0.455937  0  0.126712  0.186466  0  3.962534  0
C  C75  1  0.96432576  0.10243908  0.13317587  1  0.455921  0  0.126678  0.186372  0  3.962589  0
C  C76  1  0.12644814  0.08685546  0.63577663  1  0.507407  0  0.131572  0.208318  0  3.967489  0
C  C77  1  0.91314168  0.87355346  0.86422591  1  0.507689  0  0.131749  0.208544  0  3.967372  0
C  C78  1  0.87355262  0.91314481  0.36422349  1  0.507384  0  0.131601  0.208306  0  3.967517  0
C  C79  1  0.08685822  0.12644640  0.13577414  1  0.507692  0  0.131725  0.208537  0  3.967399  0
C  C80  1  0.03781232  0.11710842  0.64149710  1  -0.005117  0  -0.069958  -0.183072  0  3.837556  0
C  C81  1  0.88288596  0.96218413  0.85849652  1  -0.006103  0  -0.069998  -0.183231  0  3.837508  0
C  C82  1  0.96218672  0.88289104  0.35850223  1  -0.005125  0  -0.069987  -0.18313  0  3.837583  0
C  C83  1  0.11711394  0.03781573  0.14150353  1  -0.006105  0  -0.070021  -0.183221  0  3.83745  0
C  C84  1  0.06356403  0.23356845  0.64513097  1  0.054339  0  0.017212  0.137243  0  3.992299  0
C  C85  1  0.76642417  0.93642967  0.85485946  1  0.055115  0  0.01706  0.137199  0  3.992207  0
C  C86  1  0.93643588  0.76643142  0.35486842  1  0.054647  0  0.017237  0.137316  0  3.992211  0
C  C87  1  0.23357573  0.06357019  0.14514059  1  0.054912  0  0.017066  0.137207  0  3.992137  0
C  C88  1  0.17863800  0.31529665  0.64085808  1  -0.0244  0  -0.075102  -0.195191  0  3.909142  0
C  C89  1  0.68469973  0.82135548  0.85913568  1  -0.024424  0  -0.074996  -0.195004  0  3.908952  0
C  C90  1  0.82136104  0.68470204  0.35914187  1  -0.024403  0  -0.075119  -0.195226  0  3.909194  0
C  C91  1  0.31530018  0.17864439  0.14086371  1  -0.024445  0  -0.075027  -0.195029  0  3.908963  0
C  C92  1  0.26327789  0.27978623  0.63448638  1  0.485688  0  0.128881  0.200355  0  4.00185  0
C  C93  1  0.72021403  0.73672076  0.86551691  1  0.486136  0  0.128797  0.200335  0  4.001673  0
C  C94  1  0.73672200  0.72021363  0.36551433  1  0.485705  0  0.128871  0.200338  0  4.001871  0
C  C95  1  0.27978500  0.26327869  0.13448307  1  0.486161  0  0.128778  0.20023  0  4.001793  0
C  C96  1  0.38460182  0.36491219  0.62483261  1  0.510884  0  0.126993  0.180824  0  3.989662  0
C  C97  1  0.63509485  0.61539748  0.87517265  1  0.510947  0  0.127124  0.180826  0  3.989928  0
C  C98  1  0.61539894  0.63508806  0.37516817  1  0.510884  0  0.126989  0.18082  0  3.989666  0
C  C99  1  0.36490504  0.38460237  0.12482806  1  0.510951  0  0.127114  0.180869  0  3.989879  0
C  C100  1  0.42565604  0.48391352  0.64377962  1  -0.021034  0  -0.079923  -0.163192  0  3.954295  0
C  C101  1  0.51609432  0.57433750  0.85622334  1  -0.021099  0  -0.079837  -0.163052  0  3.954477  0
C  C102  1  0.57434386  0.51608634  0.35622043  1  -0.021049  0  -0.079925  -0.163157  0  3.954275  0
C  C103  1  0.48390558  0.42566235  0.14377671  1  -0.021108  0  -0.079849  -0.163075  0  3.954508  0
C  C104  1  0.53964075  0.56085948  0.63145406  1  -0.094486  0  -0.065089  -0.015714  0  3.957287  0
C  C105  1  0.43914607  0.46035413  0.86854706  1  -0.094659  0  -0.06513  -0.015747  0  3.957294  0
C  C106  1  0.46036002  0.43914078  0.36854605  1  -0.094503  0  -0.06511  -0.015777  0  3.957305  0
C  C107  1  0.56085469  0.53964537  0.13145301  1  -0.094664  0  -0.065131  -0.015757  0  3.957308  0
C  C108  1  0.60953424  0.51664191  0.59873777  1  -0.082254  0  -0.075695  -0.109084  0  3.941805  0
C  C109  1  0.48335878  0.39046700  0.90125980  1  -0.081803  0  -0.075712  -0.109107  0  3.941837  0
C  C110  1  0.39046566  0.48335795  0.40126228  1  -0.08226  0  -0.075694  -0.109097  0  3.941835  0
C  C111  1  0.51664112  0.60953287  0.09873959  1  -0.081809  0  -0.075728  -0.10915  0  3.941819  0
C  C112  1  0.56283475  0.39736308  0.58105729  1  0.596457  0  0.060147  0.117041  0  3.949491  0
C  C113  1  0.60263706  0.43717191  0.91894171  1  0.596677  0  0.060223  0.117177  0  3.949389  0
C  C114  1  0.43716601  0.60263718  0.41894283  1  0.596456  0  0.060164  0.11712  0  3.949641  0
C  C115  1  0.39736371  0.56282836  0.08105841  1  0.596686  0  0.060243  0.117247  0  3.949343  0
C  C116  1  0.97228228  0.26849263  0.65139164  1  -0.032598  0  -0.010124  0.050249  0  4.004508  0
C  C117  1  0.73149882  0.02770942  0.84859798  1  -0.033704  0  -0.010015  0.05032  0  4.004509  0
C  C118  1  0.02771676  0.73150606  0.34860765  1  -0.032921  0  -0.010151  0.050271  0  4.004445  0
C  C119  1  0.26850194  0.97229007  0.15140276  1  -0.03341  0  -0.00999  0.050365  0  4.004538  0
C  C120  1  0.86434753  0.19899808  0.60445571  1  -0.053334  0  -0.072334  -0.118554  0  3.916227  0
C  C121  1  0.80099026  0.13565121  0.89553469  1  -0.053191  0  -0.072236  -0.118382  0  3.91618  0
C  C122  1  0.13565238  0.80100406  0.39554445  1  -0.053459  0  -0.072349  -0.118703  0  3.916079  0
C  C123  1  0.19900792  0.86434937  0.10446465  1  -0.053273  0  -0.07227  -0.118485  0  3.916268  0
C  C124  1  0.77527207  0.22859744  0.60743685  1  0.021183  0  -0.018099  -0.051319  0  3.983469  0
C  C125  1  0.77140032  0.22473243  0.89256098  1  0.021416  0  -0.018164  -0.051529  0  3.983477  0
C  C126  1  0.22473044  0.77140060  0.39256126  1  0.02054  0  -0.018011  -0.051145  0  3.983249  0
C  C127  1  0.22860044  0.77526630  0.10743972  1  0.02174  0  -0.018133  -0.051498  0  3.983469  0
C  C128  1  0.79384377  0.32887348  0.65847327  1  -0.0583  0  -0.068412  -0.091117  0  3.909224  0
C  C129  1  0.67113320  0.20615843  0.84152779  1  -0.058256  0  -0.068392  -0.091049  0  3.909181  0
C  C130  1  0.20615441  0.67112786  0.34152677  1  -0.057539  0  -0.068411  -0.091142  0  3.909265  0
C  C131  1  0.32886670  0.79384220  0.15847164  1  -0.058605  0  -0.068411  -0.091065  0  3.909167  0
C  C132  1  0.90101493  0.39916481  0.70602823  1  -0.030203  0  -0.017225  -0.02689  0  3.968482  0
C  C133  1  0.60084219  0.09898152  0.79396946  1  -0.030043  0  -0.017288  -0.027  0  3.968291  0
C  C134  1  0.09898670  0.60083511  0.29397125  1  -0.030209  0  -0.01725  -0.026932  0  3.968446  0
C  C135  1  0.39915857  0.90101798  0.20603062  1  -0.030053  0  -0.017286  -0.026982  0  3.968309  0
C  C136  1  0.99021995  0.36890380  0.70277425  1  -0.093667  0  -0.071557  -0.121858  0  3.883665  0
C  C137  1  0.63109449  0.00976879  0.79721919  1  -0.093253  0  -0.071626  -0.121934  0  3.883452  0
C  C138  1  0.00977909  0.63109718  0.29722582  1  -0.093662  0  -0.071543  -0.121837  0  3.88356  0
C  C139  1  0.36890541  0.99023106  0.20278086  1  -0.093256  0  -0.071623  -0.121936  0  3.883478  0
C  C140  1  0.66022721  0.15012123  0.55732358  1  1.615146  0  0.243882  0.661775  0  4.140618  0
C  C141  1  0.84988110  0.33977998  0.94268033  1  1.615156  0  0.243916  0.661907  0  4.140448  0
C  C142  1  0.33976747  0.84988990  0.44268141  1  1.615125  0  0.243945  0.661932  0  4.140533  0
C  C143  1  0.15011192  0.66022353  0.05731625  1  1.615097  0  0.243939  0.661967  0  4.140585  0
C  C144  1  0.91649884  0.50181662  0.76549303  1  1.549614  0  0.178409  0.551613  0  4.253408  0
C  C145  1  0.49819946  0.08350301  0.73450874  1  1.548894  0  0.178483  0.551901  0  4.252886  0
C  C146  1  0.08350020  0.49818436  0.23450703  1  1.549595  0  0.178479  0.551687  0  4.253239  0
C  C147  1  0.50179958  0.91649644  0.26549058  1  1.548873  0  0.178429  0.55177  0  4.253012  0
N  N148  1  0.19421569  0.94456025  0.62587082  1  -1.236771  0  -0.390266  -0.381619  0  3.512485  0
N  N149  1  0.05543658  0.80578863  0.87413405  1  -1.236484  0  -0.390209  -0.381518  0  3.51256  0
N  N150  1  0.80578421  0.05544037  0.37412927  1  -1.236769  0  -0.390266  -0.381599  0  3.512455  0
N  N151  1  0.94456245  0.19421158  0.12586598  1  -1.236396  0  -0.390218  -0.381461  0  3.512557  0
N  N152  1  0.23794901  0.16741166  0.63279412  1  -1.186081  0  -0.36466  -0.398105  0  3.437013  0
N  N153  1  0.83259027  0.76205362  0.86721405  1  -1.186547  0  -0.364726  -0.398233  0  3.43691  0
N  N154  1  0.76205089  0.83258820  0.36720593  1  -1.186068  0  -0.364672  -0.398072  0  3.436964  0
N  N155  1  0.16741050  0.23794588  0.13278602  1  -1.186549  0  -0.364706  -0.398144  0  3.436925  0
N  N156  1  0.45375772  0.32244723  0.59475462  1  -1.249307  0  -0.367057  -0.356251  0  3.455624  0
N  N157  1  0.67755611  0.54624887  0.90525070  1  -1.249606  0  -0.367108  -0.356345  0  3.455784  0
N  N158  1  0.54624217  0.67755338  0.40524679  1  -1.249309  0  -0.367096  -0.356319  0  3.455773  0
N  N159  1  0.32244292  0.45375134  0.09474998  1  -1.249594  0  -0.367117  -0.356376  0  3.455742  0
N  N160  1  0.69617845  0.86237062  0.59586937  1  0.827673  0  0.084078  0.720427  0  4.420548  0
N  N161  1  0.13763226  0.30381498  0.90411992  1  0.828278  0  0.083896  0.720651  0  4.420301  0
N  N162  1  0.30382402  0.13762815  0.40413339  1  0.827747  0  0.084119  0.720445  0  4.420478  0
N  N163  1  0.86236853  0.69618378  0.09587748  1  0.828376  0  0.083894  0.720631  0  4.420316  0
O  O164  1  0.64914709  0.06059065  0.51287777  1  -1.198494  0  -0.401158  -0.656476  0  2.381244  0
O  O165  1  0.93939810  0.35085219  0.98712376  1  -1.198504  0  -0.401175  -0.656535  0  2.380967  0
O  O166  1  0.35085197  0.93940044  0.48711783  1  -1.198637  0  -0.401149  -0.656499  0  2.38207  0
O  O167  1  0.06060698  0.64914780  0.01287789  1  -1.198539  0  -0.401089  -0.656448  0  2.381659  0
O  O168  1  0.58093006  0.17942184  0.56305208  1  -1.197669  0  -0.404761  -0.644922  0  2.346815  0
O  O169  1  0.82059074  0.41908456  0.93695589  1  -1.197665  0  -0.404718  -0.644858  0  2.346582  0
O  O170  1  0.41907503  0.82057587  0.43694746  1  -1.197455  0  -0.404827  -0.645047  0  2.345868  0
O  O171  1  0.17941001  0.58091112  0.06304465  1  -1.197406  0  -0.404803  -0.644976  0  2.34606  0
O  O172  1  0.83581584  0.53106351  0.76430036  1  -1.178678  0  -0.387499  -0.636141  0  2.177604  0
O  O173  1  0.46896227  0.16419447  0.73571421  1  -1.178076  0  -0.387475  -0.636308  0  2.177505  0
O  O174  1  0.16418406  0.46893482  0.23569962  1  -1.178672  0  -0.387568  -0.636209  0  2.177403  0
O  O175  1  0.53103763  0.83580538  0.26428584  1  -1.178094  0  -0.38745  -0.636238  0  2.177512  0
O  O176  1  0.00704361  0.55401934  0.81985026  1  -1.186813  0  -0.378463  -0.610648  0  2.187122  0
O  O177  1  0.44599571  0.99295909  0.68014499  1  -1.186793  0  -0.378464  -0.610762  0  2.186983  0
O  O178  1  0.99295629  0.44598128  0.18014983  1  -1.186824  0  -0.378469  -0.610663  0  2.187153  0
O  O179  1  0.55400419  0.00704078  0.31985440  1  -1.186783  0  -0.378464  -0.610732  0  2.186973  0
O  O180  1  0.58927126  0.82844119  0.57411795  1  -0.54732  0  -0.218134  -0.486007  0  2.00533  0
O  O181  1  0.17156505  0.41072342  0.92587836  1  -0.547905  0  -0.218117  -0.486076  0  2.005141  0
O  O182  1  0.41072778  0.17155980  0.42588145  1  -0.547393  0  -0.218111  -0.485946  0  2.005432  0
O  O183  1  0.82843570  0.58927760  0.07412312  1  -0.547958  0  -0.218053  -0.486034  0  2.005293  0
O  O184  1  0.76784515  0.91658807  0.53933939  1  -0.589513  0  -0.233701  -0.517945  0  2.066456  0
O  O185  1  0.08341373  0.23214981  0.96064846  1  -0.589096  0  -0.233696  -0.518144  0  2.066595  0
O  O186  1  0.23215475  0.08341179  0.46066000  1  -0.589503  0  -0.233705  -0.517959  0  2.06655  0
O  O187  1  0.91658617  0.76785082  0.03935163  1  -0.589113  0  -0.23364  -0.51802  0  2.06658  0
O  O188  1  0.73042128  0.84309807  0.66827499  1  -0.515665  0  -0.15523  -0.392426  0  1.979952  0
O  O189  1  0.15690250  0.26956467  0.83170667  1  -0.516098  0  -0.155122  -0.392378  0  1.979876  0
O  O190  1  0.26957692  0.15690252  0.33172237  1  -0.515675  0  -0.155259  -0.392431  0  1.979603  0
O  O191  1  0.84309652  0.73043629  0.16829538  1  -0.516131  0  -0.155228  -0.392506  0  1.979714  0
