# generated using pymatgen
data_AlH9C15O5F
_symmetry_space_group_name_H-M   'P 1'
_cell_length_a   6.69346568
_cell_length_b   11.14760669
_cell_length_c   17.57964335
_cell_angle_alpha   84.28560047
_cell_angle_beta   83.49176037
_cell_angle_gamma   71.37674425
_symmetry_Int_Tables_number   1
_chemical_formula_structural   AlH9C15O5F
_chemical_formula_sum   'Al2 H18 C30 O10 F2'
_cell_volume   1232.22991588
_cell_formula_units_Z   2
loop_
 _symmetry_equiv_pos_site_id
 _symmetry_equiv_pos_as_xyz
  1  'x, y, z'
loop_
 _atom_site_type_symbol
 _atom_site_label
 _atom_site_symmetry_multiplicity
 _atom_site_fract_x
 _atom_site_fract_y
 _atom_site_fract_z
 _atom_site_occupancy
 _atom_site_pbe_bader_charge
 _atom_site_pbe_bader_spin_density
 _atom_site_pbe_cm5_charge
 _atom_site_pbe_ddec_charge
 _atom_site_pbe_ddec_spin_density
 _atom_site_pbe_ddec_sum_bond_order
 _atom_site_pbe_magmom
Al  Al0  1  0.49314406  0.50234302  0.50177491  1  2.50416  0  0.397424  1.646496  0  2.577145  0
Al  Al1  1  0.99260169  0.50235301  0.50115379  1  2.501569  0  0.399025  1.637091  0  2.573865  0
H  H2  1  0.30181281  0.35563300  0.55553542  1  0.62795  0  0.355383  0.433019  0  0.848564  0
H  H3  1  0.67557273  0.65759046  0.46346970  1  0.616742  0  0.340628  0.412938  0  0.893437  0
H  H4  1  0.63745959  0.50563361  0.28355193  1  0.139435  0  0.113436  0.126604  0  1.013549  0
H  H5  1  0.73396634  0.50099004  0.14262345  1  0.058807  0  0.101211  0.103909  0  1.022424  0
H  H6  1  0.10250927  0.50021916  0.11135950  1  0.085045  0  0.112873  0.137433  0  0.992355  0
H  H7  1  0.90122429  0.48298779  0.89123189  1  0.085483  0  0.112556  0.137063  0  0.991954  0
H  H8  1  0.34261239  0.51681700  0.71972693  1  0.143356  0  0.1137  0.128049  0  1.008441  0
H  H9  1  0.25090446  0.52071935  0.86090457  1  0.053565  0  0.102042  0.105797  0  1.016973  0
H  H10  1  0.22178538  0.23542568  0.39450574  1  0.076387  0  0.104093  0.117669  0  1.033924  0
H  H11  1  0.42622632  0.76650483  0.39853330  1  0.088891  0  0.105018  0.109158  0  1.05086  0
H  H12  1  0.76127693  0.88817326  0.55059547  1  0.096288  0  0.112116  0.117784  0  0.984321  0
H  H13  1  0.64735611  0.12520852  0.54227832  1  0.068639  0  0.109298  0.111622  0  0.993338  0
H  H14  1  0.74834640  0.10717779  0.32765974  1  0.077397  0  0.092765  0.129672  0  1.000805  0
H  H15  1  0.51904947  0.23886991  0.31244570  1  0.012264  0  0.088353  0.126227  0  1.021415  0
H  H16  1  0.60512258  0.11584278  0.24775855  1  0.037497  0  0.09131  0.123141  0  0.994059  0
H  H17  1  0.70300319  0.88542936  0.24996947  1  0.024988  0  0.092046  0.124337  0  0.99544  0
H  H18  1  0.73208956  0.75458649  0.31925529  1  0.017934  0  0.094011  0.135582  0  1.000236  0
H  H19  1  0.85053400  0.87361919  0.32904071  1  0.061788  0  0.092437  0.129199  0  1.000719  0
C  C20  1  0.86173574  0.27711561  0.48669369  1  1.576891  0  0.274398  0.657182  0  4.072064  0
C  C21  1  0.70993503  0.49556134  0.64003452  1  1.592489  0  0.266194  0.655175  0  4.104455  0
C  C22  1  0.12868937  0.72973145  0.50129562  1  1.585528  0  0.272929  0.655099  0  4.078044  0
C  C23  1  0.27693282  0.50857424  0.36253469  1  1.591073  0  0.263095  0.642615  0  4.120578  0
C  C24  1  0.32107020  0.50474914  0.27748037  1  -0.035381  0  -0.021069  -0.161423  0  3.967721  0
C  C25  1  0.52308780  0.50408857  0.24466763  1  0.042158  0  -0.073669  -0.060075  0  3.975958  0
C  C26  1  0.57635472  0.50151457  0.16629045  1  0.012571  0  -0.087557  -0.14392  0  3.951589  0
C  C27  1  0.42571300  0.50052178  0.11644686  1  0.050438  0  0.007417  0.176674  0  4.121549  0
C  C28  1  0.22261134  0.50075810  0.14809867  1  0.09606  0  -0.094655  -0.265311  0  3.939416  0
C  C29  1  0.17489461  0.50252618  0.22687574  1  0.41606  0  0.111361  0.288876  0  4.047407  0
C  C30  1  0.47624164  0.50050883  0.03618977  1  0.210793  0  -0.041025  -0.103731  0  4.100751  0
C  C31  1  0.52006949  0.50172626  0.96685616  1  -0.578602  0  -0.03827  -0.095256  0  4.097998  0
C  C32  1  0.56873016  0.50235415  0.88646952  1  0.068378  0  0.006912  0.173308  0  4.123692  0
C  C33  1  0.77599246  0.49153738  0.85460815  1  0.070934  0  -0.095587  -0.264774  0  3.941438  0
C  C34  1  0.82137977  0.49010398  0.77569672  1  0.418839  0  0.110708  0.287507  0  4.050072  0
C  C35  1  0.66830209  0.49919859  0.72524824  1  0.051588  0  -0.019347  -0.152743  0  3.948544  0
C  C36  1  0.46221771  0.51038441  0.75830914  1  -0.047896  0  -0.074174  -0.059087  0  3.973203  0
C  C37  1  0.41156283  0.51230273  0.83686292  1  0.036408  0  -0.087823  -0.145403  0  3.955302  0
C  C38  1  0.93532786  0.13706998  0.48025749  1  -0.002644  0  -0.007738  -0.083755  0  3.935217  0
C  C39  1  0.13452501  0.07041834  0.44174333  1  -0.024074  0  -0.003  0.057102  0  3.985823  0
C  C40  1  0.80107914  0.07175514  0.51574045  1  -0.079556  0  -0.082047  -0.094528  0  4.006629  0
C  C41  1  0.26796965  0.13229764  0.39704646  1  -0.043263  0  -0.095934  -0.200428  0  3.943596  0
C  C42  1  0.45262722  0.06638526  0.35588381  1  -0.010924  0  -0.007648  0.120245  0  3.952092  0
C  C43  1  0.06143044  0.87046627  0.48776254  1  0.041835  0  -0.00835  -0.082456  0  3.943261  0
C  C44  1  0.86424575  0.93886313  0.52009700  1  -0.061871  0  -0.082391  -0.096199  0  4.007496  0
C  C45  1  0.19672433  0.93418747  0.44454166  1  -0.012312  0  -0.003193  0.060129  0  3.985436  0
C  C46  1  0.38456435  0.86899423  0.40052552  1  -0.042525  0  -0.100403  -0.214336  0  3.970432  0
C  C47  1  0.51205715  0.93099629  0.35726639  1  -0.017851  0  -0.008267  0.11905  0  3.958491  0
C  C48  1  0.58748003  0.13604793  0.30867521  1  -0.061419  0  -0.23564  -0.396845  0  3.966664  0
C  C49  1  0.70916920  0.85689616  0.31167489  1  -0.039923  0  -0.235745  -0.401511  0  3.965604  0
O  O50  1  0.66432497  0.33329011  0.48316828  1  -1.266071  0  -0.233696  -0.593476  0  2.340277  0
O  O51  1  0.88367662  0.50729293  0.60830578  1  -1.245687  0  -0.236507  -0.588323  0  2.340139  0
O  O52  1  0.98889995  0.67530544  0.49826234  1  -1.260597  0  -0.232117  -0.592156  0  2.339025  0
O  O53  1  0.42145983  0.52628460  0.39720727  1  -1.259355  0  -0.237199  -0.594071  0  2.376197  0
O  O54  1  0.31967216  0.67370489  0.51589099  1  -1.26112  0  -0.235426  -0.592252  0  2.343042  0
O  O55  1  0.10387889  0.49514079  0.39373675  1  -1.238089  0  -0.235304  -0.583434  0  2.355422  0
O  O56  1  0.99718777  0.33022434  0.49855000  1  -1.265849  0  -0.231931  -0.593914  0  2.352089  0
O  O57  1  0.56235007  0.48009429  0.60591156  1  -1.264836  0  -0.237795  -0.598885  0  2.353569  0
O  O58  1  0.26494034  0.44185248  0.53289251  1  -1.431049  0  -0.447967  -0.988148  0  2.191176  0
O  O59  1  0.71903465  0.56555709  0.47009461  1  -1.424102  0  -0.450606  -0.985973  0  2.189933  0
F  F60  1  0.97601163  0.50364651  0.25368746  1  -0.631183  0  -0.078657  -0.125549  0  1.407368  0
F  F61  1  0.02506250  0.47655299  0.74870245  1  -0.634048  0  -0.082004  -0.127793  0  1.395113  0
