# generated using pymatgen
data_CuMo2H8C10N2O7
_symmetry_space_group_name_H-M   'P 1'
_cell_length_a   7.23318994
_cell_length_b   11.52452053
_cell_length_c   16.78117504
_cell_angle_alpha   89.55434655
_cell_angle_beta   79.74336607
_cell_angle_gamma   81.80911860
_symmetry_Int_Tables_number   1
_chemical_formula_structural   CuMo2H8C10N2O7
_chemical_formula_sum   'Cu4 Mo8 H32 C40 N8 O28'
_cell_volume   1362.24494638
_cell_formula_units_Z   4
loop_
 _symmetry_equiv_pos_site_id
 _symmetry_equiv_pos_as_xyz
  1  'x, y, z'
loop_
 _atom_site_type_symbol
 _atom_site_label
 _atom_site_symmetry_multiplicity
 _atom_site_fract_x
 _atom_site_fract_y
 _atom_site_fract_z
 _atom_site_occupancy
 _atom_site_hle17_ddec_charge
 _atom_site_hle17_ddec_spin_density
 _atom_site_hle17_ddec_sum_bond_order
 _atom_site_hle17_magmom
 _atom_site_hse06_10hf_bader_charge
 _atom_site_hse06_10hf_bader_spin_density
 _atom_site_hse06_10hf_ddec_charge
 _atom_site_hse06_10hf_ddec_spin_density
 _atom_site_hse06_10hf_ddec_sum_bond_order
 _atom_site_hse06_10hf_magmom
 _atom_site_hse06_ddec_charge
 _atom_site_hse06_ddec_spin_density
 _atom_site_hse06_ddec_sum_bond_order
 _atom_site_hse06_magmom
 _atom_site_pbe_cm5_charge
 _atom_site_pbe_ddec_charge
 _atom_site_pbe_ddec_spin_density
 _atom_site_pbe_ddec_sum_bond_order
 _atom_site_pbe_magmom
Cu  Cu0  1  0.15511862  0.78632219  0.02852593  1  0.946758  -0.737345  1.908649  -0.512  1.152653  -0.627509  0.950021  -0.808053  2.294546  -0.623  1.030057  -0.886216  2.22617  -0.709  0.752147  0.90462  -0.747163  2.337999  -0.561
Cu  Cu1  1  0.84487631  0.21367920  0.97147575  1  0.946705  -0.737341  1.908626  -0.512  1.152715  -0.627509  0.949983  -0.808051  2.294514  -0.623  1.030025  -0.886215  2.226128  -0.709  0.752124  0.904579  -0.747162  2.337969  -0.561
Cu  Cu2  1  0.68767940  0.28414111  0.47827904  1  0.943678  0.735841  1.899774  0.51  1.148095  0.625847  0.944705  0.806713  2.286259  0.621  1.024542  0.88475  2.218733  0.708  0.752713  0.898959  0.74622  2.329787  0.56
Cu  Cu3  1  0.31231597  0.71585853  0.52171964  1  0.943584  0.735832  1.899878  0.51  1.148197  0.625849  0.944626  0.806709  2.286369  0.621  1.024538  0.884744  2.218749  0.708  0.752726  0.898992  0.746217  2.329718  0.56
Mo  Mo4  1  0.41598550  0.10904034  0.94390926  1  2.228474  0.006389  4.038997  0.007  2.647261  0.00377  2.227932  0.002965  4.593246  0.004  2.332533  0.002648  4.547515  0.004  1.502729  2.151512  0.002876  4.630909  0.004
Mo  Mo5  1  0.58401425  0.89095843  0.05609326  1  2.228437  0.006397  4.03893  0.007  2.647351  0.003773  2.227857  0.002967  4.593192  0.004  2.332464  0.002652  4.547452  0.004  1.502657  2.151435  0.002874  4.630852  0.004
Mo  Mo6  1  0.07710212  0.05091965  0.08439151  1  2.201667  0.018449  4.085627  0.022  2.675741  -0.010759  2.219728  -0.009948  4.615765  -0.011  2.325237  -0.004334  4.581477  -0.005  1.495102  2.140211  -0.016523  4.648992  -0.018
Mo  Mo7  1  0.92289400  0.94908263  0.91561126  1  2.201746  0.018475  4.085528  0.022  2.675755  -0.01075  2.219856  -0.009939  4.615596  -0.011  2.32534  -0.004334  4.581344  -0.005  1.495197  2.140337  -0.016523  4.648828  -0.018
Mo  Mo8  1  0.64618131  0.54209638  0.41628791  1  2.197595  -0.019325  4.089742  -0.023  2.672701  0.009909  2.216222  0.009297  4.617111  0.01  2.321792  0.003642  4.582818  0.004  1.495292  2.136613  0.015896  4.650367  0.017
Mo  Mo9  1  0.35381706  0.45790239  0.58371173  1  2.197637  -0.01931  4.089658  -0.023  2.672758  0.0099  2.21627  0.009288  4.617018  0.01  2.32184  0.003647  4.582723  0.004  1.495319  2.136662  0.0159  4.650267  0.017
Mo  Mo10  1  0.86577972  0.61171064  0.55559540  1  2.227227  -0.006232  4.031988  -0.007  2.655371  -0.003678  2.22803  -0.002879  4.583603  -0.004  2.33244  -0.002624  4.53868  -0.004  1.502189  2.151476  -0.002749  4.621176  -0.004
Mo  Mo11  1  0.13421766  0.38828637  0.44440432  1  2.22724  -0.006241  4.031883  -0.007  2.655398  -0.003684  2.228058  -0.002885  4.583467  -0.004  2.332452  -0.002618  4.538561  -0.004  1.502221  2.151499  -0.002749  4.621038  -0.004
H  H12  1  0.32555232  0.78986737  0.85144950  1  0.098316  -0.001694  0.933767  -0.003  0.13032  -0.002794  0.107063  -0.001289  0.993043  -0.002  0.10837  -0.000902  0.991879  -0.002  0.125162  0.105909  -0.001603  0.994088  -0.003
H  H13  1  0.67444298  0.21013841  0.14855332  1  0.098359  -0.001694  0.933821  -0.003  0.130397  -0.002793  0.107108  -0.001289  0.993078  -0.002  0.108416  -0.000902  0.991914  -0.002  0.125181  0.105953  -0.001603  0.994122  -0.003
H  H14  1  0.47073062  0.63175657  0.74469701  1  0.129678  -0.000504  0.95954  -0.001  0.170955  -0.000897  0.139141  -0.000428  1.017762  -0.001  0.142528  -0.000307  1.01579  0.0  0.111187  0.136629  -0.000516  1.019375  -0.001
H  H15  1  0.52926568  0.36825096  0.25530453  1  0.129727  -0.000505  0.95943  -0.001  0.171027  -0.000897  0.139239  -0.000428  1.017611  -0.001  0.142626  -0.000307  1.01563  0.0  0.111184  0.136727  -0.000517  1.019221  -0.001
H  H16  1  0.46128107  0.42233523  0.78352484  1  0.109052  -0.00034  0.936715  -0.001  0.123232  -1.4e-05  0.122511  -2e-06  0.988926  0.0  0.124641  2.2e-05  0.987465  0.0  0.11435  0.120859  -3.8e-05  0.990189  0.0
H  H17  1  0.53871946  0.57767231  0.21647459  1  0.109051  -0.000341  0.936769  -0.001  0.123181  -1.5e-05  0.122533  -2e-06  0.988932  0.0  0.124663  2.2e-05  0.987473  0.0  0.11438  0.120879  -3.9e-05  0.990201  0.0
H  H18  1  0.33221277  0.37587355  0.92557963  1  0.122343  -0.000916  0.981477  -0.001  0.128979  -0.001365  0.131841  -0.00071  1.041771  -0.001  0.134387  -0.000481  1.040705  -0.001  0.109551  0.130015  -0.000909  1.042583  -0.001
H  H19  1  0.66778838  0.62413135  0.07441918  1  0.122362  -0.000916  0.981461  -0.001  0.128886  -0.001365  0.131852  -0.00071  1.041756  -0.001  0.134396  -0.000481  1.040695  -0.001  0.109536  0.130025  -0.000909  1.04257  -0.001
H  H20  1  0.22580050  0.35175190  0.05109113  1  0.128254  -0.000828  0.955413  -0.001  0.165149  -0.001224  0.137637  -0.000637  1.015753  -0.001  0.140342  -0.000432  1.01486  -0.001  0.111991  0.135553  -0.000813  1.016649  -0.001
H  H21  1  0.77419144  0.64825037  0.94890719  1  0.128227  -0.000827  0.955419  -0.001  0.165146  -0.001223  0.137617  -0.000637  1.015751  -0.001  0.140316  -0.000432  1.014866  -0.001  0.111965  0.135544  -0.000813  1.016636  -0.001
H  H22  1  0.11415140  0.34604857  0.20022026  1  0.116843  -0.000327  0.920524  0.0  0.135694  -4e-05  0.130076  -1.6e-05  0.971818  0.0  0.132507  1.2e-05  0.969898  0.0  0.11717  0.128138  -6e-05  0.973513  0.0
H  H23  1  0.88584495  0.65395283  0.79977893  1  0.116843  -0.000326  0.920496  0.0  0.1357  -4e-05  0.130088  -1.6e-05  0.971772  0.0  0.132527  1.2e-05  0.969838  0.0  0.117179  0.128126  -6e-05  0.973495  0.0
H  H24  1  0.00969434  0.53568883  0.27888741  1  0.118725  -0.000584  0.963622  -0.001  0.115056  -0.001015  0.124476  -0.00051  1.026635  -0.001  0.127041  -0.000358  1.025849  0.0  0.111206  0.122529  -0.000629  1.027385  -0.001
H  H25  1  0.99030522  0.46431081  0.72111333  1  0.118731  -0.000584  0.963621  -0.001  0.115069  -0.001015  0.124475  -0.00051  1.026637  -0.001  0.127041  -0.000358  1.02585  0.0  0.111211  0.122529  -0.000629  1.027386  -0.001
H  H26  1  0.01279875  0.72533408  0.20298814  1  0.097013  -0.001732  0.926703  -0.003  0.127936  -0.002896  0.108324  -0.001354  0.983566  -0.002  0.109945  -0.000945  0.98207  -0.002  0.126303  0.106943  -0.001695  0.984942  -0.003
H  H27  1  0.98720081  0.27466556  0.79701260  1  0.096946  -0.001731  0.926566  -0.003  0.127948  -0.002897  0.108241  -0.001354  0.983459  -0.002  0.109862  -0.000945  0.981963  -0.002  0.126254  0.106862  -0.001695  0.984834  -0.003
H  H28  1  0.70778591  0.20175257  0.30603063  1  0.096689  0.001794  0.93078  0.003  0.139151  0.002968  0.106518  0.001387  0.989862  0.002  0.107872  0.000972  0.988541  0.002  0.125325  0.105295  0.001727  0.991192  0.003
H  H29  1  0.29222011  0.79824357  0.69396726  1  0.096775  0.001797  0.930737  0.003  0.139137  0.002969  0.106596  0.001387  0.989828  0.002  0.107951  0.000972  0.988502  0.002  0.125335  0.105373  0.001728  0.991157  0.003
H  H30  1  0.72919139  0.00180888  0.23910598  1  0.12695  0.000505  0.97089  0.001  0.171876  0.000849  0.134727  0.000393  1.031792  0.001  0.138153  0.000275  1.029652  0.0  0.110558  0.132125  0.000484  1.033574  0.001
H  H31  1  0.27081643  0.99818551  0.76089298  1  0.127006  0.000504  0.970712  0.001  0.171898  0.000849  0.134777  0.000393  1.031635  0.001  0.138203  0.000275  1.029495  0.0  0.110576  0.132227  0.000483  1.033349  0.001
H  H32  1  0.75476020  0.82429735  0.32533966  1  0.111112  0.000327  0.934186  0.001  0.102523  3.5e-05  0.124016  7e-06  0.988464  0.0  0.126433  -2.3e-05  0.98668  0.0  0.112967  0.122125  5.2e-05  0.989999  0.0
H  H33  1  0.24524159  0.17569879  0.67466152  1  0.111128  0.000328  0.934197  0.001  0.102569  3.4e-05  0.124062  7e-06  0.988445  0.0  0.126478  -2.3e-05  0.986665  0.0  0.112973  0.122171  5.2e-05  0.98998  0.0
H  H34  1  0.76474884  0.84801232  0.47152569  1  0.127231  0.000833  0.972984  0.001  0.146258  0.001229  0.135571  0.000634  1.035125  0.001  0.138257  0.000434  1.034148  0.001  0.108783  0.133565  0.000805  1.035978  0.001
H  H35  1  0.23525212  0.15198733  0.52847554  1  0.127159  0.000834  0.973009  0.001  0.146285  0.001229  0.135478  0.000635  1.035188  0.001  0.138164  0.000435  1.034212  0.001  0.108766  0.13347  0.000805  1.036044  0.001
H  H36  1  0.78905000  0.88735215  0.59485704  1  0.126208  0.000904  0.974641  0.001  0.139969  0.001333  0.136279  0.000689  1.033262  0.001  0.138983  0.000465  1.032176  0.001  0.111683  0.134366  0.000881  1.034056  0.001
H  H37  1  0.21096243  0.11264663  0.40513975  1  0.126175  0.000906  0.974556  0.001  0.140005  0.001332  0.136231  0.000688  1.033204  0.001  0.138932  0.000465  1.032119  0.001  0.11164  0.134317  0.000881  1.034  0.001
H  H38  1  0.78296940  0.95289519  0.73657534  1  0.112447  0.000324  0.941819  0.001  0.148636  1.4e-05  0.124296  -3e-06  0.996269  0.0  0.126712  -2.5e-05  0.994273  0.0  0.11397  0.122298  3.3e-05  0.998048  0.0
H  H39  1  0.21704161  0.04710358  0.26342276  1  0.11243  0.000323  0.941919  0.001  0.148897  1.4e-05  0.124298  -3e-06  0.996339  0.0  0.126755  -2.5e-05  0.994285  0.0  0.113985  0.122286  3.3e-05  0.998137  0.0
H  H40  1  0.73382795  0.16776684  0.76966032  1  0.116066  0.00061  0.952877  0.001  0.118521  0.001037  0.123077  0.000526  1.016457  0.001  0.125692  0.000391  1.016133  0.0  0.112505  0.121078  0.000626  1.01699  0.001
H  H41  1  0.26617605  0.83223193  0.23033771  1  0.116041  0.000609  0.952889  0.001  0.118429  0.001038  0.123034  0.000526  1.016493  0.001  0.125647  0.000391  1.016172  0.0  0.112489  0.121035  0.000626  1.017026  0.001
H  H42  1  0.69341996  0.31076794  0.65638806  1  0.096081  0.001684  0.937599  0.003  0.147408  0.002783  0.103743  0.001302  0.999244  0.002  0.105205  0.000911  0.9978  0.002  0.123137  0.102432  0.001621  1.00058  0.003
H  H43  1  0.30657821  0.68923170  0.34361100  1  0.096149  0.001684  0.937518  0.003  0.147392  0.002783  0.103804  0.001302  0.999175  0.002  0.10527  0.000911  0.997723  0.002  0.123149  0.102492  0.00162  1.000514  0.003
C  C44  1  0.32975684  0.69668515  0.86394723  1  0.141133  0.007619  3.669478  0.009  0.503317  0.002352  0.114313  0.000515  3.924435  0.002  0.123178  0.001676  3.944269  0.003  0.057577  0.108543  -0.000396  3.911681  0.001
C  C45  1  0.67023727  0.30331975  0.13605389  1  0.140945  0.007622  3.66951  0.009  0.503355  0.002354  0.114131  0.000517  3.924482  0.002  0.122993  0.001676  3.944317  0.003  0.057545  0.108365  -0.000396  3.911727  0.001
C  C46  1  0.40735475  0.60947977  0.80570388  1  -0.104054  -0.011568  3.676446  -0.012  -0.037625  -0.007121  -0.117508  -0.004722  3.924872  -0.006  -0.125254  -0.004086  3.945995  -0.005  -0.071492  -0.112492  -0.005239  3.910791  -0.006
C  C47  1  0.59264015  0.39052776  0.19429657  1  -0.103835  -0.011573  3.676331  -0.012  -0.037661  -0.007122  -0.117358  -0.004722  3.924745  -0.006  -0.125101  -0.004087  3.945872  -0.005  -0.071415  -0.112343  -0.005238  3.910668  -0.006
C  C48  1  0.40521296  0.49270713  0.82782553  1  0.019729  0.009475  3.679975  0.009  -0.042943  0.004409  0.000337  0.002925  3.930067  0.003  0.004845  0.003075  3.948044  0.003  -0.056114  -0.00256  0.002774  3.917931  0.003
C  C49  1  0.59478236  0.50729865  0.17217490  1  0.019541  0.009486  3.68022  0.009  -0.043577  0.004407  0.00015  0.002923  3.930335  0.003  0.004657  0.003076  3.94831  0.003  -0.05619  -0.002746  0.002772  3.918191  0.003
C  C50  1  0.32973356  0.46641045  0.90694621  1  -0.125521  -0.007692  3.673464  -0.008  0.017857  -0.003765  -0.146251  -0.002757  3.919288  -0.003  -0.153007  -0.002462  3.939952  -0.003  -0.076271  -0.14177  -0.003037  3.905302  -0.003
C  C51  1  0.67026035  0.53359533  0.09305492  1  -0.125548  -0.007701  3.673675  -0.008  0.018385  -0.003765  -0.14628  -0.002757  3.919495  -0.003  -0.153034  -0.002463  3.940157  -0.003  -0.076248  -0.141796  -0.003036  3.90551  -0.003
C  C52  1  0.25749728  0.55773121  0.96278481  1  0.165382  0.004093  3.774289  0.004  0.44719  0.000292  0.163412  -0.000281  4.021228  0.0  0.171072  0.000893  4.0428  0.002  0.116701  0.15846  -0.001212  4.006915  -0.001
C  C53  1  0.74250006  0.44227194  0.03721548  1  0.16539  0.004097  3.774508  0.004  0.447785  0.000294  0.163409  -0.00028  4.021393  0.0  0.171086  0.000892  4.042979  0.002  0.116703  0.158455  -0.001212  4.007081  -0.001
C  C54  1  0.18491002  0.54165955  0.04921423  1  0.168008  0.003134  3.764111  0.003  0.452663  -0.000132  0.164914  -0.00071  4.012909  0.0  0.172499  0.000445  4.034334  0.001  0.117109  0.159969  -0.001597  3.998738  -0.001
C  C55  1  0.81508471  0.45834272  0.95078626  1  0.168045  0.003133  3.764155  0.003  0.452244  -0.000129  0.165026  -0.000708  4.012876  0.0  0.172544  0.000444  4.034393  0.001  0.117104  0.160074  -0.001598  3.998718  -0.001
C  C56  1  0.18003033  0.43291341  0.08647896  1  -0.129014  -0.006842  3.657956  -0.007  -0.043685  -0.003661  -0.149855  -0.002651  3.907496  -0.003  -0.156661  -0.002329  3.928499  -0.003  -0.072654  -0.145339  -0.002975  3.893476  -0.003
C  C57  1  0.81996503  0.56708623  0.91352031  1  -0.129014  -0.00684  3.658092  -0.007  -0.043725  -0.003663  -0.14989  -0.002652  3.907623  -0.003  -0.156675  -0.002329  3.928652  -0.003  -0.072636  -0.14538  -0.002976  3.893589  -0.003
C  C58  1  0.11721954  0.42983943  0.16984903  1  0.016071  0.008403  3.671784  0.008  -0.016066  0.003875  -0.003394  0.002554  3.921328  0.002  0.000775  0.002708  3.939591  0.003  -0.054175  -0.006087  0.002413  3.909113  0.002
C  C59  1  0.88277659  0.57016285  0.83015195  1  0.016086  0.008398  3.67173  0.008  -0.016092  0.003875  -0.003378  0.002554  3.921249  0.002  0.000784  0.002711  3.939512  0.003  -0.054161  -0.006055  0.002413  3.909044  0.002
C  C60  1  0.05831705  0.53487190  0.21381871  1  -0.088076  -0.010479  3.682705  -0.011  -0.022611  -0.006531  -0.099798  -0.00436  3.930629  -0.005  -0.107066  -0.003721  3.952353  -0.005  -0.069375  -0.095105  -0.004913  3.916176  -0.006
C  C61  1  0.94168111  0.46512775  0.78618154  1  -0.088087  -0.010475  3.682697  -0.011  -0.022609  -0.00653  -0.099803  -0.004359  3.930607  -0.005  -0.10707  -0.003725  3.952332  -0.005  -0.069399  -0.095109  -0.004912  3.916145  -0.006
C  C62  1  0.06124470  0.64022104  0.17272412  1  0.136014  0.007209  3.666086  0.008  0.528517  0.002422  0.109232  0.000558  3.918929  0.002  0.117836  0.001676  3.938179  0.003  0.058724  0.103672  -0.000335  3.906539  0.001
C  C63  1  0.93875424  0.35978123  0.82727606  1  0.13604  0.007205  3.666047  0.008  0.528512  0.002423  0.10928  0.000559  3.918879  0.002  0.117886  0.001678  3.938125  0.003  0.058768  0.10372  -0.000336  3.906489  0.001
C  C64  1  0.71774040  0.12060425  0.33974630  1  0.148198  -0.007799  3.658084  -0.009  0.441261  -0.002667  0.122268  -0.000867  3.9102  -0.002  0.131336  -0.001983  3.929188  -0.003  0.061686  0.116355  5e-06  3.898009  -0.001
C  C65  1  0.28226303  0.87939101  0.66025060  1  0.148142  -0.007804  3.658324  -0.009  0.441338  -0.002669  0.122194  -0.000868  3.910432  -0.002  0.131264  -0.001987  3.929425  -0.003  0.061749  0.116279  2e-06  3.898258  -0.001
C  C66  1  0.73290393  0.01061381  0.30331369  1  -0.101753  0.0109  3.686732  0.012  0.016751  0.006597  -0.11549  0.004486  3.935471  0.005  -0.123124  0.00386  3.957077  0.005  -0.072335  -0.110461  0.005031  3.921031  0.006
C  C67  1  0.26710329  0.98938321  0.69668470  1  -0.101771  0.010902  3.686869  0.012  0.01681  0.006595  -0.115465  0.004485  3.935597  0.005  -0.123097  0.003867  3.957205  0.005  -0.072374  -0.110474  0.005032  3.921124  0.006
C  C68  1  0.74804515  0.91160170  0.35134448  1  0.008062  -0.008916  3.678117  -0.008  0.013911  -0.004192  -0.011598  -0.002767  3.92924  -0.003  -0.00774  -0.002909  3.947917  -0.003  -0.058627  -0.014052  -0.002642  3.916665  -0.002
C  C69  1  0.25195502  0.08839532  0.64865623  1  0.007967  -0.008916  3.678292  -0.008  0.013848  -0.004187  -0.011755  -0.002764  3.92944  -0.003  -0.007902  -0.002913  3.948124  -0.003  -0.058646  -0.014211  -0.002639  3.916876  -0.002
C  C70  1  0.75127813  0.92465794  0.43357971  1  -0.122998  0.007284  3.65594  0.007  -0.080698  0.003914  -0.143717  0.002789  3.905442  0.003  -0.150305  0.002473  3.925859  0.003  -0.074385  -0.139451  0.003106  3.89185  0.003
C  C71  1  0.24872325  0.07533995  0.56642031  1  -0.12285  0.00728  3.655942  0.007  -0.080673  0.003913  -0.143539  0.002789  3.905426  0.003  -0.150125  0.002472  3.925848  0.003  -0.074338  -0.139275  0.003103  3.891832  0.003
C  C72  1  0.73459417  0.03746851  0.46645871  1  0.162544  -0.00343  3.762776  -0.004  0.490164  -8.2e-05  0.159315  0.000649  4.012685  0.0  0.166676  -0.000529  4.034268  -0.001  0.115709  0.154558  0.001549  3.998346  0.001
C  C73  1  0.26540821  0.96253114  0.53354003  1  0.162497  -0.003428  3.762882  -0.004  0.490113  -8.3e-05  0.159316  0.000648  4.012739  0.0  0.166676  -0.000526  4.034327  -0.001  0.115735  0.154563  0.00155  3.998402  0.001
C  C74  1  0.73531610  0.06413520  0.55210192  1  0.172872  -0.003909  3.763307  -0.004  0.493943  -0.000341  0.16933  0.00031  4.012466  0.0  0.177391  -0.000847  4.033828  -0.002  0.118844  0.164136  0.001233  3.998232  0.001
C  C75  1  0.26468789  0.93586357  0.44789671  1  0.172923  -0.003914  3.763156  -0.004  0.493987  -0.000343  0.169315  0.000309  4.012439  0.0  0.177379  -0.000845  4.033804  -0.002  0.118858  0.16412  0.001232  3.998213  0.001
C  C76  1  0.76249970  0.98024241  0.61098018  1  -0.131416  0.007438  3.6665  0.007  0.018192  0.003737  -0.149933  0.002711  3.910269  0.003  -0.157199  0.002418  3.931464  0.003  -0.07463  -0.145126  0.002979  3.895897  0.003
C  C77  1  0.23750950  0.01975811  0.38901745  1  -0.131396  0.007436  3.666325  0.007  0.01818  0.003736  -0.14987  0.00271  3.91011  0.003  -0.157136  0.002417  3.931319  0.003  -0.074596  -0.145062  0.002982  3.895735  0.003
C  C78  1  0.76107895  0.01713288  0.68995516  1  0.020006  -0.00921  3.669572  -0.008  -0.111947  -0.004353  0.001919  -0.002868  3.916317  -0.003  0.006339  -0.003024  3.934362  -0.003  -0.054172  -0.000853  -0.002704  3.904231  -0.002
C  C79  1  0.23893468  0.98286677  0.31004274  1  0.020054  -0.009211  3.669686  -0.008  -0.112221  -0.00435  0.001947  -0.002866  3.916403  -0.003  0.006341  -0.003025  3.934438  -0.003  -0.054177  -0.000817  -0.002707  3.904322  -0.002
C  C80  1  0.73546616  0.13680986  0.70840835  1  -0.096039  0.011231  3.685447  0.012  0.045061  0.006884  -0.109113  0.004656  3.936115  0.006  -0.116781  0.004043  3.957762  0.005  -0.069561  -0.104125  0.005144  3.921582  0.006
C  C81  1  0.26454065  0.86318891  0.29158946  1  -0.096046  0.011243  3.685587  0.012  0.045077  0.006884  -0.109102  0.004656  3.936247  0.006  -0.116773  0.004042  3.957911  0.005  -0.069537  -0.104112  0.005145  3.921709  0.006
C  C82  1  0.71179568  0.21609765  0.64679589  1  0.141981  -0.007272  3.671551  -0.008  0.465348  -0.002087  0.114906  -0.000398  3.926665  -0.002  0.123817  -0.001565  3.946333  -0.003  0.056982  0.109131  0.000517  3.913977  -0.001
C  C83  1  0.28820672  0.78390199  0.35320106  1  0.141885  -0.007281  3.671826  -0.008  0.465295  -0.002089  0.114848  -0.0004  3.926918  -0.002  0.123759  -0.001562  3.94659  -0.003  0.056953  0.109067  0.000517  3.914241  -0.001
N  N84  1  0.25583789  0.67080626  0.93987653  1  -0.31985  -0.09538  3.334968  -0.116  -1.247074  -0.093869  -0.28283  -0.062858  3.62726  -0.082  -0.314315  -0.051644  3.649842  -0.071  -0.346414  -0.26428  -0.069009  3.613933  -0.087
N  N85  1  0.74415441  0.32920040  0.06012413  1  -0.319757  -0.09538  3.3351  -0.116  -1.247219  -0.09387  -0.28273  -0.062859  3.627372  -0.082  -0.314215  -0.051642  3.649952  -0.071  -0.346414  -0.264177  -0.069012  3.614043  -0.087
N  N86  1  0.12444708  0.64282385  0.09279767  1  -0.317916  -0.090587  3.312798  -0.11  -1.24896  -0.092187  -0.280198  -0.061522  3.605241  -0.08  -0.310278  -0.050214  3.62601  -0.069  -0.342793  -0.262585  -0.06808  3.593194  -0.086
N  N87  1  0.87555088  0.35717667  0.90720259  1  -0.317907  -0.090588  3.312813  -0.11  -1.248927  -0.092191  -0.280244  -0.061525  3.605256  -0.08  -0.310302  -0.050215  3.626043  -0.069  -0.34279  -0.262626  -0.06808  3.593211  -0.086
N  N88  1  0.71556998  0.13293587  0.41918006  1  -0.314476  0.092854  3.310937  0.113  -1.252267  0.093791  -0.27577  0.062638  3.601898  0.082  -0.305952  0.051232  3.622648  0.07  -0.342881  -0.258014  0.069157  3.589882  0.087
N  N89  1  0.28442980  0.86706290  0.58081888  1  -0.314455  0.092857  3.311064  0.113  -1.252416  0.093795  -0.275723  0.062641  3.601971  0.082  -0.305919  0.051232  3.622723  0.07  -0.342906  -0.257989  0.06916  3.589947  0.087
N  N90  1  0.70972061  0.18003637  0.57125831  1  -0.326231  0.094905  3.331999  0.115  -1.264146  0.094032  -0.288797  0.062955  3.626394  0.082  -0.32028  0.051828  3.648777  0.071  -0.346196  -0.270183  0.069024  3.613247  0.087
N  N91  1  0.29028339  0.81996240  0.42874031  1  -0.326186  0.094912  3.332086  0.115  -1.264101  0.094034  -0.288829  0.062957  3.62661  0.082  -0.320331  0.051826  3.648996  0.071  -0.346242  -0.270239  0.069025  3.613464  0.087
O  O92  1  0.37135809  0.01964001  0.05622491  1  -1.026427  -0.002451  1.864634  -0.004  -1.147482  -0.002279  -1.011367  -0.001235  2.165476  -0.003  -1.055933  -0.000525  2.15679  -0.002  -0.622608  -0.977478  -0.002062  2.171322  -0.004
O  O93  1  0.62864384  0.98036139  0.94377863  1  -1.026472  -0.002453  1.864713  -0.004  -1.147551  -0.002278  -1.011417  -0.001234  2.165551  -0.003  -1.055975  -0.000527  2.156859  -0.002  -0.622606  -0.977527  -0.00206  2.171396  -0.004
O  O94  1  0.38754334  0.09453858  0.84516084  1  -0.704025  -0.000247  1.403844  0.0  -0.86184  -8e-06  -0.693646  -2.1e-05  1.639853  0.0  -0.71654  9.8e-05  1.627317  0.0  -0.528756  -0.677043  -0.00026  1.649475  0.0
O  O95  1  0.61246106  0.90545230  0.15484197  1  -0.704118  -0.000243  1.403876  0.0  -0.861986  -3e-06  -0.693662  -1.7e-05  1.639815  0.0  -0.716558  9.1e-05  1.627277  0.0  -0.528734  -0.677046  -0.000258  1.649429  0.0
O  O96  1  0.53297915  0.22924349  0.94878630  1  -0.770915  -0.00162  1.563944  -0.004  -0.916621  -0.000909  -0.774515  -0.000603  1.848077  -0.002  -0.803199  -0.000278  1.832053  -0.002  -0.54197  -0.754939  -0.000947  1.860289  -0.002
O  O97  1  0.46701741  0.77075703  0.05121347  1  -0.770863  -0.001628  1.563898  -0.004  -0.916655  -0.000914  -0.774444  -0.000606  1.848029  -0.002  -0.803121  -0.000275  1.831984  -0.002  -0.541931  -0.754868  -0.000946  1.860239  -0.002
O  O98  1  0.16815144  0.16583859  0.99755921  1  -0.947538  -0.002814  1.750097  -0.006  -1.077479  -0.002857  -0.953986  -0.001494  2.064803  -0.003  -0.995406  -0.000272  2.052951  -0.002  -0.601339  -0.923901  -0.002847  2.073363  -0.005
O  O99  1  0.83184832  0.83416018  0.00244212  1  -0.947555  -0.002816  1.750152  -0.006  -1.077438  -0.002862  -0.954009  -0.001497  2.064868  -0.003  -0.995429  -0.000271  2.053019  -0.002  -0.601348  -0.923926  -0.002849  2.073432  -0.005
O  O100  1  0.14843499  0.92433648  0.95458730  1  -0.936073  -0.075329  1.772135  -0.094  -1.056953  -0.064056  -0.953725  -0.0427  2.098485  -0.056  -1.005854  -0.032714  2.092381  -0.045  -0.575325  -0.916372  -0.049597  2.1024  -0.063
O  O101  1  0.85156274  0.07566492  0.04541476  1  -0.93601  -0.075316  1.772005  -0.094  -1.056902  -0.06404  -0.953669  -0.042688  2.098379  -0.056  -1.005796  -0.032721  2.092266  -0.045  -0.575303  -0.916318  -0.049595  2.102297  -0.063
O  O102  1  0.03890780  0.13494475  0.17117202  1  -0.691535  -0.008085  1.410202  -0.01  -0.855226  -0.008435  -0.685115  -0.005211  1.640865  -0.007  -0.710088  -0.003577  1.630014  -0.005  -0.517602  -0.66624  -0.006823  1.64946  -0.009
O  O103  1  0.96108973  0.86505752  0.82882945  1  -0.691567  -0.008088  1.410068  -0.01  -0.855319  -0.008432  -0.685181  -0.005209  1.64074  -0.007  -0.710122  -0.003583  1.629853  -0.005  -0.517664  -0.666305  -0.006825  1.649337  -0.009
O  O104  1  0.08019887  0.90226905  0.11756314  1  -0.775677  -0.095851  1.629276  -0.118  -0.945778  -0.08136  -0.789938  -0.053744  1.936833  -0.071  -0.835329  -0.041623  1.926767  -0.057  -0.54988  -0.75855  -0.063055  1.944441  -0.08
O  O105  1  0.91979886  0.09773235  0.88243951  1  -0.775682  -0.095861  1.629295  -0.118  -0.9458  -0.081363  -0.789938  -0.053747  1.936805  -0.071  -0.835332  -0.041624  1.92675  -0.057  -0.549914  -0.758551  -0.063058  1.944418  -0.08
O  O106  1  0.67881168  0.61977448  0.32860823  1  -0.6941  0.007131  1.442014  0.009  -0.860717  0.00748  -0.687922  0.004628  1.680122  0.006  -0.713113  0.003131  1.669877  0.004  -0.514835  -0.668967  0.00613  1.688306  0.008
O  O107  1  0.32118908  0.38022604  0.67139241  1  -0.694098  0.007126  1.441969  0.009  -0.860722  0.007485  -0.687917  0.004632  1.680073  0.006  -0.713111  0.003133  1.669828  0.004  -0.514826  -0.668961  0.00613  1.688256  0.008
O  O108  1  0.68115148  0.39041988  0.38613304  1  -0.766349  0.098104  1.620447  0.121  -0.935324  0.083327  -0.780623  0.055063  1.921637  0.073  -0.825742  0.042743  1.911887  0.059  -0.547011  -0.74939  0.064542  1.929076  0.082
O  O109  1  0.31884570  0.60957800  0.61386491  1  -0.766354  0.098093  1.620473  0.121  -0.935439  0.083324  -0.780627  0.055062  1.92165  0.073  -0.82577  0.042739  1.911919  0.059  -0.547032  -0.749419  0.064538  1.929079  0.082
O  O110  1  0.61380212  0.43141773  0.54638485  1  -0.944962  0.075036  1.793689  0.094  -1.066057  0.064391  -0.960837  0.043025  2.120897  0.057  -1.013215  0.033222  2.114278  0.046  -0.577829  -0.923024  0.049691  2.1248  0.063
O  O111  1  0.38619506  0.56858016  0.45361369  1  -0.94499  0.075039  1.793757  0.094  -1.066059  0.064386  -0.960844  0.043021  2.120933  0.057  -1.013246  0.033228  2.114319  0.046  -0.577822  -0.923022  0.049691  2.12476  0.063
O  O112  1  0.92215776  0.51565608  0.44200162  1  -1.029042  0.002535  1.84694  0.004  -1.148687  0.002206  -1.015615  0.001177  2.14911  0.002  -1.060015  0.000473  2.140764  0.001  -0.620354  -0.981814  0.002012  2.154749  0.003
O  O113  1  0.07783821  0.48434093  0.55799822  1  -1.029077  0.002535  1.846883  0.004  -1.14876  0.002202  -1.01567  0.001175  2.149085  0.002  -1.060069  0.000478  2.140731  0.001  -0.620358  -0.981876  0.002013  2.154736  0.003
O  O114  1  0.66367329  0.66293932  0.50060248  1  -0.939111  0.002671  1.757327  0.005  -1.073406  0.002942  -0.944289  0.001539  2.06844  0.003  -0.985471  0.000317  2.05707  0.002  -0.601209  -0.914222  0.002895  2.076524  0.005
O  O115  1  0.33632268  0.33705770  0.49939794  1  -0.939163  0.002669  1.757318  0.005  -1.073304  0.002939  -0.94435  0.001537  2.068454  0.003  -0.985502  0.000321  2.057035  0.002  -0.601272  -0.914264  0.00289  2.076525  0.005
O  O116  1  0.75221360  0.60774822  0.65453845  1  -0.708554  0.000226  1.395971  0.0  -0.865659  1.2e-05  -0.700801  3e-05  1.6331  0.0  -0.723599  -7.6e-05  1.620074  0.0  -0.530066  -0.684137  0.000248  1.642983  0.0
O  O117  1  0.24778217  0.39224967  0.34546139  1  -0.70853  0.000226  1.395986  0.0  -0.865642  1.8e-05  -0.700805  3.4e-05  1.633138  0.0  -0.723599  -8.3e-05  1.620111  0.0  -0.53004  -0.684143  0.000249  1.643024  0.0
O  O118  1  0.98334626  0.73327454  0.54729078  1  -0.766708  0.001389  1.579872  0.004  -0.918295  0.000641  -0.769244  0.000473  1.861244  0.002  -0.797998  0.000193  1.845336  0.002  -0.538535  -0.74955  0.000762  1.873429  0.002
O  O119  1  0.01664972  0.26672247  0.45270727  1  -0.766687  0.001396  1.579831  0.004  -0.918385  0.000644  -0.769198  0.000476  1.861178  0.002  -0.797939  0.000191  1.845271  0.002  -0.538499  -0.749487  0.000763  1.87337  0.002
