# generated using pymatgen
data_ScH4C8O5
_symmetry_space_group_name_H-M   'P 1'
_cell_length_a   12.51453736
_cell_length_b   12.60173556
_cell_length_c   12.58705960
_cell_angle_alpha   75.69605535
_cell_angle_beta   60.17689049
_cell_angle_gamma   60.20890694
_symmetry_Int_Tables_number   1
_chemical_formula_structural   ScH4C8O5
_chemical_formula_sum   'Sc4 H16 C32 O20'
_cell_volume   1494.55690235
_cell_formula_units_Z   4
loop_
 _symmetry_equiv_pos_site_id
 _symmetry_equiv_pos_as_xyz
  1  'x, y, z'
loop_
 _atom_site_type_symbol
 _atom_site_label
 _atom_site_symmetry_multiplicity
 _atom_site_fract_x
 _atom_site_fract_y
 _atom_site_fract_z
 _atom_site_occupancy
 _atom_site_pbe_bader_charge
 _atom_site_pbe_bader_spin_density
 _atom_site_pbe_cm5_charge
 _atom_site_pbe_ddec_charge
 _atom_site_pbe_ddec_spin_density
 _atom_site_pbe_ddec_sum_bond_order
 _atom_site_pbe_magmom
Sc  Sc0  1  0.18501414  0.99998029  0.63127297  1  2.125731  0  1.233423  1.873398  0  2.138889  0
Sc  Sc1  1  0.81864842  0.00002109  0.36375902  1  2.122832  0  1.231148  1.867901  0  2.131146  0
Sc  Sc2  1  0.06826371  0.86750607  0.49759744  1  2.123941  0  1.233234  1.872897  0  2.141938  0
Sc  Sc3  1  0.43514155  0.13292937  0.49779872  1  2.122593  0  1.233843  1.873597  0  2.139561  0
H  H4  1  0.88859744  0.31214251  0.56306976  1  0.084068  0  0.109253  0.112549  0  1.00763  0
H  H5  1  0.76104718  0.68784281  0.43972346  1  0.095435  0  0.10964  0.111615  0  1.009031  0
H  H6  1  0.70176710  0.93687098  0.81014164  1  0.108992  0  0.111754  0.11498  0  1.002297  0
H  H7  1  0.45052414  0.06436584  0.18518034  1  0.106084  0  0.109492  0.113449  0  1.006795  0
H  H8  1  0.48740529  0.06491512  0.81072209  1  0.099959  0  0.111146  0.113445  0  1.002913  0
H  H9  1  0.36592548  0.93415831  0.18459527  1  0.105204  0  0.109555  0.113052  0  1.00708  0
H  H10  1  0.80111865  0.31266436  0.43770280  1  0.097449  0  0.109791  0.111448  0  1.008453  0
H  H11  1  0.54897162  0.68724325  0.56436461  1  0.095273  0  0.109684  0.112856  0  1.006813  0
H  H12  1  0.12136805  0.50112932  0.50070643  1  0.113921  0  0.12049  0.132121  0  0.984056  0
H  H13  1  0.87276673  0.00109481  0.99729532  1  0.133953  0  0.120002  0.133963  0  0.982826  0
H  H14  1  0.13072069  0.99827255  0.99740798  1  0.121881  0  0.120053  0.131309  0  0.9863  0
H  H15  1  0.37954167  0.49926053  0.49914712  1  0.121185  0  0.120347  0.130732  0  0.985429  0
H  H16  1  0.13386706  0.05435465  0.43623192  1  0.589282  0  0.321439  0.41829  0  0.874128  0
H  H17  1  0.83098507  0.07125288  0.53736511  1  0.609988  0  0.320594  0.41759  0  0.876211  0
H  H18  1  0.43415387  0.94208691  0.44010329  1  0.585725  0  0.321385  0.418206  0  0.874192  0
H  H19  1  0.63153327  0.93277829  0.54262014  1  0.604115  0  0.321444  0.418428  0  0.874783  0
C  C20  1  0.11997456  0.27859479  0.55763325  1  1.583741  0  0.250158  0.651387  0  4.138622  0
C  C21  1  0.90273390  0.39512805  0.53420867  1  -0.051081  0  -0.069094  -0.122568  0  3.907363  0
C  C22  1  0.01624486  0.39452595  0.53144790  1  0.024064  0  -0.013625  -0.041266  0  3.985982  0
C  C23  1  0.95369181  0.72272094  0.44315054  1  1.58566  0  0.253051  0.658706  0  4.13206  0
C  C24  1  0.82962216  0.60536591  0.46880969  1  -0.053086  0  -0.072003  -0.124309  0  3.909213  0
C  C25  1  0.93966561  0.60677605  0.47093043  1  0.027837  0  -0.014964  -0.047366  0  3.990904  0
C  C26  1  0.92906415  0.94089067  0.77608138  1  1.568029  0  0.251163  0.65411  0  4.136022  0
C  C27  1  0.68725021  0.96640707  0.89275892  1  -0.034577  0  -0.067826  -0.119018  0  3.897745  0
C  C28  1  0.79836287  0.96888333  0.89172259  1  -0.019667  0  -0.014119  -0.040983  0  3.98481  0
C  C29  1  0.64733387  0.06197316  0.21871770  1  1.578507  0  0.249999  0.652402  0  4.134625  0
C  C30  1  0.54831801  0.03441211  0.10265254  1  -0.085584  0  -0.072276  -0.128186  0  3.908064  0
C  C31  1  0.66071394  0.03256427  0.10346252  1  -0.002378  0  -0.013775  -0.041242  0  3.987295  0
C  C32  1  0.29458506  0.06017649  0.77659421  1  1.581855  0  0.251572  0.656598  0  4.135872  0
C  C33  1  0.41983633  0.03456431  0.89307519  1  -0.024395  0  -0.067587  -0.116309  0  3.899078  0
C  C34  1  0.30991658  0.03177347  0.89207369  1  -0.011728  0  -0.014123  -0.043483  0  3.985678  0
C  C35  1  0.13560789  0.93610957  0.21836715  1  1.581952  0  0.250918  0.656995  0  4.139098  0
C  C36  1  0.35010777  0.96473658  0.10238923  1  -0.076573  0  -0.071749  -0.125986  0  3.908545  0
C  C37  1  0.23697199  0.96634855  0.10328686  1  -0.006775  0  -0.014414  -0.042131  0  3.988305  0
C  C38  1  0.60500297  0.27783484  0.44069489  1  1.558007  0  0.253215  0.659336  0  4.129693  0
C  C39  1  0.70315322  0.39484783  0.46741183  1  -0.001335  0  -0.072421  -0.126506  0  3.91227  0
C  C40  1  0.59114154  0.39357857  0.46908242  1  -0.010506  0  -0.015458  -0.047551  0  3.990196  0
C  C41  1  0.32323863  0.72128495  0.55803317  1  1.554434  0  0.249555  0.650849  0  4.141791  0
C  C42  1  0.56398436  0.60462340  0.53450689  1  -0.073095  0  -0.071568  -0.126027  0  3.906556  0
C  C43  1  0.45340634  0.60544617  0.53125522  1  -0.007818  0  -0.013845  -0.041938  0  3.986562  0
C  C44  1  0.80869502  0.50008721  0.50166193  1  0.004847  0  -0.004416  0.06776  0  4.011163  0
C  C45  1  0.03430172  0.50084639  0.50106491  1  -0.058608  0  -0.061027  -0.082467  0  3.894425  0
C  C46  1  0.56036611  0.00023779  0.99780924  1  0.003778  0  -0.005294  0.065874  0  4.009387  0
C  C47  1  0.78579721  0.00081736  0.99752179  1  -0.015236  0  -0.062624  -0.088368  0  3.898117  0
C  C48  1  0.44220655  0.99994815  0.99782176  1  -0.000506  0  -0.005711  0.06385  0  4.010796  0
C  C49  1  0.21735306  0.99880329  0.99760995  1  -0.030865  0  -0.062976  -0.086157  0  3.898105  0
C  C50  1  0.69076774  0.49981768  0.50137724  1  -0.034866  0  -0.004756  0.068226  0  4.010606  0
C  C51  1  0.46614997  0.49938986  0.49984815  1  0.008695  0  -0.06106  -0.07915  0  3.89198  0
O  O52  1  0.08594226  0.19232071  0.60962533  1  -1.201831  0  -0.364903  -0.641614  0  2.25516  0
O  O53  1  0.23743165  0.27219103  0.52339733  1  -1.197335  0  -0.360938  -0.63266  0  2.230213  0
O  O54  1  0.88385286  0.80868149  0.39205248  1  -1.202903  0  -0.363336  -0.642176  0  2.254526  0
O  O55  1  0.03210236  0.72963018  0.47480662  1  -1.192984  0  -0.362043  -0.632313  0  2.229455  0
O  O56  1  0.94719878  0.88849952  0.68999532  1  -1.198402  0  -0.362581  -0.638191  0  2.252186  0
O  O57  1  0.01321607  0.97401105  0.76960767  1  -1.194773  0  -0.364862  -0.637195  0  2.231138  0
O  O58  1  0.52656127  0.11317197  0.30494298  1  -1.20783  0  -0.363096  -0.641204  0  2.254499  0
O  O59  1  0.75785496  0.03141641  0.22458942  1  -1.190563  0  -0.363352  -0.636609  0  2.225315  0
O  O60  1  0.36226339  0.11289670  0.69061433  1  -1.199793  0  -0.363825  -0.641972  0  2.250258  0
O  O61  1  0.21703458  0.02683867  0.77019396  1  -1.194514  0  -0.363082  -0.634651  0  2.231807  0
O  O62  1  0.17039454  0.88501691  0.30445800  1  -1.203187  0  -0.364949  -0.644213  0  2.253788  0
O  O63  1  0.01936839  0.96603105  0.22426637  1  -1.198658  0  -0.361881  -0.638305  0  2.230931  0
O  O64  1  0.72595460  0.19192472  0.38927964  1  -1.201433  0  -0.365237  -0.644477  0  2.250662  0
O  O65  1  0.49485734  0.27101302  0.47240838  1  -1.191356  0  -0.35969  -0.630663  0  2.229901  0
O  O66  1  0.30538635  0.80735957  0.61025429  1  -1.201625  0  -0.362388  -0.640389  0  2.255133  0
O  O67  1  0.23983575  0.72776438  0.52402048  1  -1.191192  0  -0.360761  -0.632384  0  2.230881  0
O  O68  1  0.37223787  0.00416459  0.50354712  1  -1.255431  0  -0.70792  -1.055681  0  1.949642  0
O  O69  1  0.88509316  0.99767372  0.48840874  1  -1.276432  0  -0.708688  -1.052802  0  1.953871  0
O  O70  1  0.12724627  0.99515167  0.50228279  1  -1.259102  0  -0.708309  -1.057003  0  1.949572  0
O  O71  1  0.62699803  0.00423298  0.49028762  1  -1.27099  0  -0.708794  -1.052405  0  1.953286  0
