# generated using pymatgen
data_Cd3H28C48N6(O3F2)4
_symmetry_space_group_name_H-M   'P 1'
_cell_length_a   10.52442894
_cell_length_b   14.08419068
_cell_length_c   18.63895220
_cell_angle_alpha   90.00064127
_cell_angle_beta   89.99961385
_cell_angle_gamma   102.92330746
_symmetry_Int_Tables_number   1
_chemical_formula_structural   Cd3H28C48N6(O3F2)4
_chemical_formula_sum   'Cd6 H56 C96 N12 O24 F16'
_cell_volume   2692.83449619
_cell_formula_units_Z   2
loop_
 _symmetry_equiv_pos_site_id
 _symmetry_equiv_pos_as_xyz
  1  'x, y, z'
loop_
 _atom_site_type_symbol
 _atom_site_label
 _atom_site_symmetry_multiplicity
 _atom_site_fract_x
 _atom_site_fract_y
 _atom_site_fract_z
 _atom_site_occupancy
 _atom_site_pbe_bader_charge
 _atom_site_pbe_bader_spin_density
 _atom_site_pbe_cm5_charge
 _atom_site_pbe_ddec_charge
 _atom_site_pbe_ddec_spin_density
 _atom_site_pbe_ddec_sum_bond_order
 _atom_site_pbe_magmom
Cd  Cd0  1  0.32902911  0.32792611  0.99081290  1  1.328195  0  0.791036  0.953917  0  2.17746  0
Cd  Cd1  1  0.67096136  0.17207879  0.49081782  1  1.328205  0  0.791079  0.954056  0  2.177484  0
Cd  Cd2  1  0.67096818  0.67207428  0.00918450  1  1.328256  0  0.791151  0.954153  0  2.177387  0
Cd  Cd3  1  0.32902785  0.82792558  0.50918548  1  1.328173  0  0.791073  0.953979  0  2.177547  0
Cd  Cd4  1  0.00000374  0.99999834  0.99999608  1  1.322628  0  0.782725  0.949841  0  2.164276  0
Cd  Cd5  1  0.99998971  0.49999332  0.50000579  1  1.322601  0  0.782695  0.949764  0  2.16438  0
H  H6  1  0.27345600  0.03435285  0.18316389  1  0.10038  0  0.102027  0.100846  0  1.034398  0
H  H7  1  0.87025158  0.13265646  0.87524124  1  0.104175  0  0.106608  0.132134  0  1.003734  0
H  H8  1  0.46947513  0.19651869  0.10462385  1  0.133594  0  0.104123  0.130585  0  1.033541  0
H  H9  1  0.10051680  0.25499485  0.78975719  1  0.094102  0  0.100999  0.097054  0  1.033145  0
H  H10  1  0.39567811  0.10716891  0.68158308  1  0.079994  0  0.0932  0.098427  0  1.048204  0
H  H11  1  0.90763020  0.91309155  0.84120340  1  0.141862  0  0.118678  0.110893  0  1.02312  0
H  H12  1  0.17579876  0.93739605  0.62978851  1  0.145094  0  0.107106  0.122109  0  1.030692  0
H  H13  1  0.36885017  0.05671959  0.79222057  1  0.089296  0  0.108056  0.115386  0  0.995714  0
H  H14  1  0.73477933  0.18714267  0.78031579  1  0.084363  0  0.112018  0.123592  0  0.979531  0
H  H15  1  0.27218293  0.05803651  0.91402750  1  0.171968  0  0.116104  0.105145  0  1.041031  0
H  H16  1  0.61633931  0.16667316  0.66216229  1  0.088561  0  0.11102  0.083467  0  1.040832  0
H  H17  1  0.38790865  0.07048470  0.42730684  1  0.213586  0  0.122312  0.132216  0  1.037118  0
H  H18  1  0.70829054  0.24965343  0.32707657  1  0.137237  0  0.120921  0.11659  0  1.022865  0
H  H19  1  0.95969085  0.18012662  0.54963445  1  0.162162  0  0.129834  0.129411  0  0.977883  0
H  H20  1  0.72655589  0.46565827  0.68317419  1  0.100193  0  0.102098  0.10089  0  1.034343  0
H  H21  1  0.12974537  0.36733857  0.37524022  1  0.104249  0  0.106613  0.132108  0  1.003667  0
H  H22  1  0.53051727  0.30351204  0.60462118  1  0.133964  0  0.104186  0.130722  0  1.033375  0
H  H23  1  0.89946895  0.24498989  0.28976562  1  0.094066  0  0.101059  0.097064  0  1.033044  0
H  H24  1  0.60431719  0.39283839  0.18158798  1  0.080001  0  0.093258  0.098493  0  1.048197  0
H  H25  1  0.09235989  0.58690626  0.34122214  1  0.141986  0  0.118635  0.110856  0  1.023238  0
H  H26  1  0.82421761  0.56260906  0.12979889  1  0.145258  0  0.107117  0.122114  0  1.03058  0
H  H27  1  0.63115380  0.44330506  0.29223331  1  0.089241  0  0.108066  0.115359  0  0.995699  0
H  H28  1  0.26520674  0.31286626  0.28030521  1  0.084546  0  0.111989  0.123527  0  0.979805  0
H  H29  1  0.72780099  0.44197647  0.41403986  1  0.171521  0  0.116239  0.105227  0  1.041119  0
H  H30  1  0.38364311  0.33333730  0.16215036  1  0.089181  0  0.111014  0.083578  0  1.040884  0
H  H31  1  0.61210219  0.42951639  0.92731620  1  0.213239  0  0.122252  0.132123  0  1.037128  0
H  H32  1  0.29171638  0.25037009  0.82707812  1  0.137319  0  0.120902  0.116563  0  1.022834  0
H  H33  1  0.04026928  0.31984190  0.04964034  1  0.16213  0  0.129874  0.129392  0  0.977997  0
H  H34  1  0.72654536  0.96566139  0.81683404  1  0.100187  0  0.102134  0.100893  0  1.034445  0
H  H35  1  0.12975896  0.86732795  0.12476581  1  0.104065  0  0.106623  0.1321  0  1.003725  0
H  H36  1  0.53052458  0.80350152  0.89538052  1  0.133909  0  0.104155  0.130704  0  1.033398  0
H  H37  1  0.89947114  0.74500072  0.21023484  1  0.094174  0  0.100989  0.097028  0  1.033106  0
H  H38  1  0.60431434  0.89283387  0.31841753  1  0.080011  0  0.093234  0.098424  0  1.048121  0
H  H39  1  0.09236525  0.08690374  0.15878219  1  0.141956  0  0.118647  0.110872  0  1.023125  0
H  H40  1  0.82420560  0.06261071  0.37020674  1  0.145091  0  0.107095  0.122117  0  1.030535  0
H  H41  1  0.63115501  0.94328419  0.20777146  1  0.089387  0  0.108084  0.115447  0  0.995707  0
H  H42  1  0.26520347  0.81285973  0.21969770  1  0.084347  0  0.111963  0.123537  0  0.979937  0
H  H43  1  0.72780785  0.94195379  0.08596560  1  0.171717  0  0.116152  0.105209  0  1.041183  0
H  H44  1  0.38363909  0.83332498  0.33785066  1  0.089119  0  0.110991  0.083516  0  1.040967  0
H  H45  1  0.61209142  0.92952074  0.57268733  1  0.213483  0  0.122298  0.13215  0  1.037136  0
H  H46  1  0.29170797  0.75036609  0.67292726  1  0.137224  0  0.120876  0.116584  0  1.022833  0
H  H47  1  0.04026903  0.81985451  0.45036456  1  0.161963  0  0.129856  0.129368  0  0.977891  0
H  H48  1  0.27344384  0.53433834  0.31683394  1  0.100068  0  0.102129  0.100917  0  1.034437  0
H  H49  1  0.87023804  0.63267339  0.62475879  1  0.104306  0  0.106628  0.132127  0  1.003712  0
H  H50  1  0.46948806  0.69648952  0.39537568  1  0.133927  0  0.104187  0.130697  0  1.033394  0
H  H51  1  0.10052427  0.75499664  0.71023929  1  0.094167  0  0.100978  0.097009  0  1.033098  0
H  H52  1  0.39570755  0.60716688  0.81840673  1  0.079657  0  0.093222  0.09847  0  1.048248  0
H  H53  1  0.90764295  0.41308581  0.65879618  1  0.14201  0  0.118649  0.11096  0  1.023137  0
H  H54  1  0.17582181  0.43740524  0.87020012  1  0.145522  0  0.107108  0.122173  0  1.030608  0
H  H55  1  0.36886456  0.55671150  0.70776033  1  0.089082  0  0.108067  0.115419  0  0.995784  0
H  H56  1  0.73478807  0.68712463  0.71969326  1  0.084502  0  0.112023  0.123562  0  0.979711  0
H  H57  1  0.27219263  0.55803216  0.58595914  1  0.171565  0  0.1162  0.105193  0  1.041155  0
H  H58  1  0.61634133  0.66665914  0.83784543  1  0.088868  0  0.111021  0.083509  0  1.040882  0
H  H59  1  0.38790185  0.57047637  0.07268549  1  0.213312  0  0.122269  0.132155  0  1.037099  0
H  H60  1  0.70829326  0.74962762  0.17292572  1  0.137187  0  0.120855  0.116472  0  1.022869  0
H  H61  1  0.95970404  0.68013430  0.95036296  1  0.162115  0  0.129831  0.129396  0  0.977885  0
C  C62  1  0.29692830  0.10610863  0.05209348  1  1.586437  0  0.199753  0.620404  0  4.207888  0
C  C63  1  0.92317911  0.19254428  0.73187711  1  0.003038  0  -0.001589  0.034122  0  4.039405  0
C  C64  1  0.39141056  0.06013100  0.56995805  1  1.587322  0  0.202309  0.630746  0  4.207813  0
C  C65  1  0.42957098  0.12011632  0.24616160  1  0.055757  0  -0.012116  -0.075269  0  4.057986  0
C  C66  1  0.05132800  0.21269635  0.92688874  1  1.576475  0  0.202334  0.622858  0  4.207127  0
C  C67  1  0.36037648  0.09326926  0.17919058  1  0.020318  0  -0.089796  -0.077353  0  4.012437  0
C  C68  1  0.05605914  0.94644030  0.75897254  1  0.349428  0  0.102516  0.192112  0  4.020541  0
C  C69  1  0.96403949  0.18183410  0.86368107  1  -0.057569  0  -0.088188  -0.20988  0  3.861369  0
C  C70  1  0.38735950  0.13540749  0.11436785  1  -0.090134  0  -0.084691  -0.203512  0  3.853022  0
C  C71  1  0.00189131  0.21095777  0.79683324  1  -0.015423  0  -0.084996  -0.08159  0  4.013757  0
C  C72  1  0.34106901  0.05239676  0.64507500  1  0.007507  0  -0.093391  -0.215349  0  3.902694  0
C  C73  1  0.00940533  0.94480895  0.82877644  1  0.585464  0  0.033997  -0.039016  0  3.985825  0
C  C74  1  0.23310873  0.98909593  0.66757240  1  -0.115021  0  -0.080797  -0.076526  0  3.958138  0
C  C75  1  0.37206965  0.08392195  0.31175537  1  0.396971  0  0.108683  0.217852  0  4.025098  0
C  C76  1  0.26525963  0.02573819  0.80016583  1  -0.007168  0  -0.080577  -0.152576  0  3.947433  0
C  C77  1  0.18637229  0.98722581  0.74142480  1  0.095398  0  0.000142  0.038269  0  4.029203  0
C  C78  1  0.78738708  0.18349323  0.73035793  1  -0.048126  0  -0.081629  -0.154038  0  3.94893  0
C  C79  1  0.55376337  0.18159982  0.25490729  1  0.450636  0  0.105923  0.210103  0  4.032755  0
C  C80  1  0.21338773  0.02427658  0.86870089  1  0.405857  0  0.037104  0.070139  0  3.951904  0
C  C81  1  0.72132925  0.17342096  0.66534792  1  0.544809  0  0.030939  0.060366  0  4.002315  0
C  C82  1  0.43329894  0.10373380  0.37767589  1  0.561894  0  0.030685  -0.05638  0  3.954525  0
C  C83  1  0.61172134  0.20231355  0.32163205  1  0.567671  0  0.027273  -0.066105  0  4.003415  0
C  C84  1  0.98199993  0.19019673  0.66460711  1  0.472323  0  0.10667  0.199284  0  4.013765  0
C  C85  1  0.91123081  0.17969428  0.60121898  1  0.5608  0  0.045508  -0.012546  0  3.949442  0
C  C86  1  0.70308661  0.39390361  0.55210379  1  1.587114  0  0.200071  0.620912  0  4.208084  0
C  C87  1  0.07680676  0.30744928  0.23187846  1  0.003015  0  -0.001519  0.034318  0  4.039178  0
C  C88  1  0.60859940  0.43987871  0.06996011  1  1.587295  0  0.202365  0.630801  0  4.207666  0
C  C89  1  0.57043158  0.37989229  0.74616586  1  0.055531  0  -0.01222  -0.075416  0  4.057856  0
C  C90  1  0.94868209  0.28729739  0.42689788  1  1.576037  0  0.202274  0.622783  0  4.207034  0
C  C91  1  0.63962763  0.40674653  0.67919480  1  0.019949  0  -0.089993  -0.077415  0  4.012303  0
C  C92  1  0.94395113  0.55356305  0.25898400  1  0.348894  0  0.102455  0.191926  0  4.020304  0
C  C93  1  0.03595702  0.31815932  0.36368642  1  -0.057477  0  -0.088148  -0.209855  0  3.86117  0
C  C94  1  0.61264227  0.36461269  0.61437236  1  -0.089966  0  -0.084634  -0.203702  0  3.853059  0
C  C95  1  0.99809946  0.28903056  0.29684059  1  -0.015545  0  -0.085008  -0.081506  0  4.013234  0
C  C96  1  0.65894391  0.44760277  0.14507962  1  0.007781  0  -0.093564  -0.215625  0  3.902777  0
C  C97  1  0.99058648  0.55518789  0.32878880  1  0.585806  0  0.034092  -0.038869  0  3.985932  0
C  C98  1  0.76689648  0.51090862  0.16758095  1  -0.114997  0  -0.080741  -0.076371  0  3.957792  0
C  C99  1  0.62793070  0.41608023  0.81176079  1  0.397118  0  0.108665  0.217971  0  4.025106  0
C  C100  1  0.73474689  0.47427540  0.30017521  1  -0.005911  0  -0.080741  -0.15276  0  3.947492  0
C  C101  1  0.81363351  0.51278559  0.24143319  1  0.094247  0  0.000138  0.038355  0  4.028968  0
C  C102  1  0.21259863  0.31650769  0.23034865  1  -0.047629  0  -0.08174  -0.15416  0  3.949682  0
C  C103  1  0.44624074  0.31840811  0.75490667  1  0.451144  0  0.105962  0.210148  0  4.032713  0
C  C104  1  0.78660330  0.47572816  0.36871277  1  0.405412  0  0.03715  0.07026  0  3.951886  0
C  C105  1  0.27865217  0.32657632  0.16533794  1  0.543638  0  0.030983  0.06023  0  4.002727  0
C  C106  1  0.56670851  0.39627193  0.87768299  1  0.562194  0  0.030809  -0.056235  0  3.954389  0
C  C107  1  0.38828813  0.29769580  0.82163201  1  0.567044  0  0.027356  -0.065886  0  4.003071  0
C  C108  1  0.01797221  0.30978539  0.16460978  1  0.472393  0  0.106474  0.198952  0  4.014051  0
C  C109  1  0.08873597  0.32028131  0.10122040  1  0.561031  0  0.045475  -0.012397  0  3.949903  0
C  C110  1  0.70308303  0.89389640  0.94790070  1  1.586571  0  0.199872  0.620549  0  4.208275  0
C  C111  1  0.07681231  0.80745043  0.26812726  1  0.003116  0  -0.001604  0.034258  0  4.039417  0
C  C112  1  0.60859056  0.93987736  0.43004203  1  1.587117  0  0.202368  0.63073  0  4.207818  0
C  C113  1  0.57043416  0.87989262  0.75383902  1  0.05541  0  -0.012227  -0.075536  0  4.057977  0
C  C114  1  0.94868945  0.78729665  0.07310811  1  1.576048  0  0.202287  0.62288  0  4.206602  0
C  C115  1  0.63962754  0.90674710  0.82080789  1  0.020572  0  -0.089978  -0.077323  0  4.012456  0
C  C116  1  0.94394460  0.05355690  0.24101788  1  0.349287  0  0.102426  0.191939  0  4.020114  0
C  C117  1  0.03596831  0.81815852  0.13631847  1  -0.056965  0  -0.088136  -0.209788  0  3.861117  0
C  C118  1  0.61264602  0.86460513  0.88562686  1  -0.090135  0  -0.084612  -0.203638  0  3.853156  0
C  C119  1  0.99810050  0.78904061  0.20316791  1  -0.015739  0  -0.0849  -0.081509  0  4.013217  0
C  C120  1  0.65894194  0.94760460  0.35492454  1  0.007676  0  -0.093469  -0.215373  0  3.902796  0
C  C121  1  0.99058948  0.05518194  0.17121237  1  0.58578  0  0.034083  -0.038846  0  3.98569  0
C  C122  1  0.76689201  0.01090875  0.33242178  1  -0.11482  0  -0.080766  -0.076505  0  3.957946  0
C  C123  1  0.62792464  0.91608592  0.68824578  1  0.396704  0  0.108742  0.218057  0  4.024834  0
C  C124  1  0.73474625  0.97425966  0.19982835  1  -0.007009  0  -0.080713  -0.15287  0  3.947747  0
C  C125  1  0.81362591  0.01277971  0.25856884  1  0.094648  0  0.000195  0.038442  0  4.029089  0
C  C126  1  0.21260015  0.81650827  0.26965448  1  -0.047503  0  -0.081738  -0.154332  0  3.950058  0
C  C127  1  0.44624635  0.81840600  0.74509440  1  0.450881  0  0.10602  0.210379  0  4.03242  0
C  C128  1  0.78660760  0.97571576  0.13129114  1  0.405722  0  0.037131  0.070172  0  3.952135  0
C  C129  1  0.27865009  0.82657715  0.33466557  1  0.543878  0  0.031091  0.060547  0  4.002872  0
C  C130  1  0.56669884  0.89627320  0.62232365  1  0.562206  0  0.03067  -0.056379  0  3.954393  0
C  C131  1  0.38828406  0.79769612  0.67837072  1  0.567221  0  0.027357  -0.066082  0  4.003246  0
C  C132  1  0.01798004  0.80978734  0.33539457  1  0.472246  0  0.106506  0.198981  0  4.013812  0
C  C133  1  0.08874018  0.82028865  0.39878431  1  0.561143  0  0.045461  -0.012431  0  3.949452  0
C  C134  1  0.29692093  0.60610672  0.44790165  1  1.58676  0  0.199783  0.620514  0  4.208419  0
C  C135  1  0.92318537  0.69253950  0.76812376  1  0.002843  0  -0.001555  0.034242  0  4.039427  0
C  C136  1  0.39141393  0.56012919  0.93003674  1  1.58793  0  0.202422  0.630952  0  4.208253  0
C  C137  1  0.42956082  0.62009722  0.25383690  1  0.054451  0  -0.012198  -0.075336  0  4.057419  0
C  C138  1  0.05131065  0.71270095  0.57310649  1  1.575488  0  0.202212  0.622774  0  4.206768  0
C  C139  1  0.36036740  0.59325025  0.32080742  1  0.020689  0  -0.09002  -0.077449  0  4.012394  0
C  C140  1  0.05607387  0.44644294  0.74101984  1  0.349565  0  0.102555  0.192061  0  4.02005  0
C  C141  1  0.96402995  0.68184145  0.63631634  1  -0.056987  0  -0.088132  -0.209803  0  3.861167  0
C  C142  1  0.38735352  0.63539144  0.38562879  1  -0.09005  0  -0.084636  -0.20365  0  3.853166  0
C  C143  1  0.00189726  0.71095510  0.70316647  1  -0.015679  0  -0.084939  -0.081508  0  4.013425  0
C  C144  1  0.34109100  0.55240433  0.85491617  1  0.008034  0  -0.093431  -0.215419  0  3.902688  0
C  C145  1  0.00941486  0.44480792  0.67121718  1  0.58574  0  0.034044  -0.039088  0  3.985819  0
C  C146  1  0.23313160  0.48909800  0.83241484  1  -0.115068  0  -0.080768  -0.076699  0  3.957868  0
C  C147  1  0.37206313  0.58391586  0.18823928  1  0.397691  0  0.108738  0.218098  0  4.024653  0
C  C148  1  0.26527124  0.52573527  0.69981950  1  -0.006617  0  -0.080735  -0.152964  0  3.947833  0
C  C149  1  0.18639360  0.48722622  0.75855991  1  0.093857  0  8.4e-05  0.038588  0  4.028859  0
C  C150  1  0.78739377  0.68348182  0.76965143  1  -0.047871  0  -0.08173  -0.154224  0  3.949531  0
C  C151  1  0.55375501  0.68158275  0.24509287  1  0.451415  0  0.105978  0.210197  0  4.032292  0
C  C152  1  0.21339774  0.52427208  0.63128516  1  0.405995  0  0.037258  0.070433  0  3.951713  0
C  C153  1  0.72133542  0.67341042  0.83466160  1  0.544724  0  0.031061  0.06045  0  4.002684  0
C  C154  1  0.43329362  0.60372606  0.12231709  1  0.561718  0  0.030791  -0.056317  0  3.954257  0
C  C155  1  0.61171633  0.70229547  0.17836860  1  0.567261  0  0.027446  -0.065743  0  4.002903  0
C  C156  1  0.98201550  0.69020429  0.83539298  1  0.472495  0  0.106522  0.199113  0  4.013886  0
C  C157  1  0.91124096  0.67969697  0.89877861  1  0.561299  0  0.045416  -0.012688  0  3.949605  0
N  N158  1  0.08716673  0.98456226  0.88301556  1  -1.202993  0  -0.316955  -0.208863  0  3.496783  0
N  N159  1  0.55234732  0.16273691  0.38175661  1  -1.226967  0  -0.315096  -0.17481  0  3.532758  0
N  N160  1  0.78184501  0.17195356  0.60176966  1  -1.228043  0  -0.319523  -0.214616  0  3.505905  0
N  N161  1  0.91282487  0.51544120  0.38302788  1  -1.202852  0  -0.317002  -0.208906  0  3.496808  0
N  N162  1  0.44765870  0.33727556  0.88175830  1  -1.226679  0  -0.315173  -0.175023  0  3.532683  0
N  N163  1  0.21812530  0.32803444  0.10176528  1  -1.228053  0  -0.319415  -0.214541  0  3.506512  0
N  N164  1  0.91282897  0.01543376  0.11697272  1  -1.202886  0  -0.316937  -0.208875  0  3.496917  0
N  N165  1  0.44764937  0.83727234  0.61824454  1  -1.226701  0  -0.31512  -0.174862  0  3.532688  0
N  N166  1  0.21812805  0.82804035  0.39824008  1  -1.2282  0  -0.319437  -0.214586  0  3.506562  0
N  N167  1  0.08717512  0.48455614  0.61697702  1  -1.202891  0  -0.317006  -0.208898  0  3.496766  0
N  N168  1  0.55234763  0.66271564  0.11824070  1  -1.226638  0  -0.31519  -0.175049  0  3.532624  0
N  N169  1  0.78185647  0.67194145  0.89823748  1  -1.229102  0  -0.319513  -0.214525  0  3.50628  0
O  O170  1  0.31899890  0.16028810  0.99667681  1  -1.176476  0  -0.334246  -0.572889  0  2.258048  0
O  O171  1  0.34304482  0.99672584  0.52314511  1  -1.19651  0  -0.33439  -0.575801  0  2.253571  0
O  O172  1  0.02482517  0.16574695  0.98514455  1  -1.170413  0  -0.335494  -0.576359  0  2.273947  0
O  O173  1  0.14567764  0.28689016  0.91866256  1  -1.170259  0  -0.326041  -0.565495  0  2.26902  0
O  O174  1  0.20456834  0.03067567  0.05850518  1  -1.166149  0  -0.330914  -0.569821  0  2.22901  0
O  O175  1  0.48223578  0.13579946  0.55862173  1  -1.174627  0  -0.334367  -0.574797  0  2.249558  0
O  O176  1  0.68103104  0.33972352  0.49668955  1  -1.176652  0  -0.334487  -0.573268  0  2.258038  0
O  O177  1  0.65697412  0.50327999  0.02314650  1  -1.196784  0  -0.334424  -0.575785  0  2.253441  0
O  O178  1  0.97520000  0.33424847  0.48515452  1  -1.169736  0  -0.335459  -0.576238  0  2.273757  0
O  O179  1  0.85433506  0.21310264  0.41868161  1  -1.170449  0  -0.326112  -0.565606  0  2.268991  0
O  O180  1  0.79543631  0.46933998  0.55851954  1  -1.166695  0  -0.330934  -0.569864  0  2.229588  0
O  O181  1  0.51775048  0.36422057  0.05862778  1  -1.174385  0  -0.334335  -0.574725  0  2.249497  0
O  O182  1  0.68102588  0.83971200  0.00331522  1  -1.176676  0  -0.334307  -0.572999  0  2.258316  0
O  O183  1  0.65695882  0.00328685  0.47685604  1  -1.196716  0  -0.334493  -0.575829  0  2.253534  0
O  O184  1  0.97520110  0.83424941  0.01485123  1  -1.170095  0  -0.335503  -0.576287  0  2.273487  0
O  O185  1  0.85433699  0.71310295  0.08132518  1  -1.170415  0  -0.326087  -0.565677  0  2.268846  0
O  O186  1  0.79544484  0.96933445  0.94148525  1  -1.166152  0  -0.33097  -0.569847  0  2.229242  0
O  O187  1  0.51774800  0.86421618  0.44137352  1  -1.174378  0  -0.334308  -0.57471  0  2.249582  0
O  O188  1  0.31899671  0.66029269  0.50331536  1  -1.176934  0  -0.334272  -0.572979  0  2.258341  0
O  O189  1  0.34304660  0.49672469  0.97684553  1  -1.196996  0  -0.334447  -0.575858  0  2.253981  0
O  O190  1  0.02480375  0.66574873  0.51484771  1  -1.169578  0  -0.335448  -0.576234  0  2.273591  0
O  O191  1  0.14566129  0.78689778  0.58132705  1  -1.170387  0  -0.32607  -0.565624  0  2.268846  0
O  O192  1  0.20455592  0.53067534  0.44149181  1  -1.165966  0  -0.330895  -0.569804  0  2.229269  0
O  O193  1  0.48223976  0.63579188  0.94137927  1  -1.174719  0  -0.334393  -0.574906  0  2.249705  0
F  F194  1  0.97093475  0.90896699  0.70601326  1  -0.631176  0  -0.085325  -0.120707  0  1.417236  0
F  F195  1  0.62164754  0.22144766  0.19631498  1  -0.625747  0  -0.070861  -0.104538  0  1.411434  0
F  F196  1  0.11289291  0.19883600  0.66079797  1  -0.628496  0  -0.089766  -0.12652  0  1.379091  0
F  F197  1  0.25001504  0.02692659  0.31057772  1  -0.632754  0  -0.078476  -0.117612  0  1.451354  0
F  F198  1  0.02908319  0.59103464  0.20602691  1  -0.630769  0  -0.08533  -0.120712  0  1.417335  0
F  F199  1  0.37835129  0.27857518  0.69631106  1  -0.625657  0  -0.070909  -0.104644  0  1.411492  0
F  F200  1  0.88707641  0.30115134  0.16080691  1  -0.628731  0  -0.089673  -0.126425  0  1.379141  0
F  F201  1  0.74999195  0.47306500  0.81058477  1  -0.63299  0  -0.078463  -0.117655  0  1.451415  0
F  F202  1  0.02907204  0.09103599  0.29397501  1  -0.63096  0  -0.085348  -0.120753  0  1.417216  0
F  F203  1  0.37835284  0.77857178  0.80368939  1  -0.625689  0  -0.070933  -0.104728  0  1.411429  0
F  F204  1  0.88708658  0.80115988  0.33919406  1  -0.628578  0  -0.089696  -0.126406  0  1.3791  0
F  F205  1  0.74998623  0.97307954  0.68941807  1  -0.632808  0  -0.078512  -0.1177  0  1.451103  0
F  F206  1  0.97096052  0.40898098  0.79398444  1  -0.630994  0  -0.085398  -0.120796  0  1.417273  0
F  F207  1  0.62164246  0.72141280  0.30369009  1  -0.62565  0  -0.070947  -0.104754  0  1.41143  0
F  F208  1  0.11290649  0.69883557  0.83920014  1  -0.628671  0  -0.089651  -0.126379  0  1.379172  0
F  F209  1  0.25000567  0.52692579  0.18941691  1  -0.632937  0  -0.078535  -0.117742  0  1.4512  0
