# generated using pymatgen
data_ZnH8C20Br5NO4
_symmetry_space_group_name_H-M   'P 1'
_cell_length_a   13.15405655
_cell_length_b   16.60079070
_cell_length_c   17.61223099
_cell_angle_alpha   97.52240244
_cell_angle_beta   92.14559843
_cell_angle_gamma   95.22038870
_symmetry_Int_Tables_number   1
_chemical_formula_structural   ZnH8C20Br5NO4
_chemical_formula_sum   'Zn2 H16 C40 Br10 N2 O8'
_cell_volume   3792.28193406
_cell_formula_units_Z   2
loop_
 _symmetry_equiv_pos_site_id
 _symmetry_equiv_pos_as_xyz
  1  'x, y, z'
loop_
 _atom_site_type_symbol
 _atom_site_label
 _atom_site_symmetry_multiplicity
 _atom_site_fract_x
 _atom_site_fract_y
 _atom_site_fract_z
 _atom_site_occupancy
 _atom_site_pbe_bader_charge
 _atom_site_pbe_bader_spin_density
 _atom_site_pbe_cm5_charge
 _atom_site_pbe_ddec_charge
 _atom_site_pbe_ddec_spin_density
 _atom_site_pbe_ddec_sum_bond_order
 _atom_site_pbe_magmom
Zn  Zn0  1  0.50654361  0.41384154  0.49987069  1  1.319021  0  0.668108  0.8907  0  2.301627  0
Zn  Zn1  1  0.50925730  0.59068471  0.50513430  1  1.302298  0  0.671916  0.862823  0  2.338836  0
H  H2  1  0.39097254  0.70499905  0.44670526  1  0.143656  0  0.133562  0.113509  0  0.970932  0
H  H3  1  0.38104229  0.85420987  0.44526613  1  0.098054  0  0.117108  0.124684  0  0.985816  0
H  H4  1  0.34990496  0.11432158  0.39887101  1  0.112063  0  0.114093  0.135057  0  0.990581  0
H  H5  1  0.60973415  0.13114482  0.56056945  1  0.107041  0  0.110766  0.131862  0  1.008297  0
H  H6  1  0.57116230  0.01264755  0.56528603  1  0.107645  0  0.094155  0.094393  0  1.063019  0
H  H7  1  0.41307430  0.98674914  0.42849256  1  0.079485  0  0.111782  0.110603  0  0.984129  0
H  H8  1  0.43799116  0.60199467  0.26171791  1  0.109041  0  0.107197  0.114429  0  0.993161  0
H  H9  1  0.42439334  0.58496433  0.11948469  1  0.063288  0  0.104585  0.105621  0  1.001414  0
H  H10  1  0.50113104  0.65291633  0.90217601  1  0.054642  0  0.101497  0.115265  0  1.005921  0
H  H11  1  0.44511590  0.39051949  0.86892071  1  0.085461  0  0.103576  0.120222  0  1.004489  0
H  H12  1  0.49152752  0.40191983  0.99173684  1  0.0901  0  0.0923  0.098005  0  1.042366  0
H  H13  1  0.48990592  0.58882402  0.01085406  1  0.039029  0  0.101932  0.099168  0  1.002699  0
H  H14  1  0.83354498  0.38560803  0.50388262  1  0.110826  0  0.089833  0.100132  0  1.069786  0
H  H15  1  0.81717251  0.63634362  0.47324893  1  0.104501  0  0.101968  0.123003  0  1.011745  0
H  H16  1  0.17854490  0.60372817  0.48416685  1  0.126395  0  0.094337  0.104821  0  1.049801  0
H  H17  1  0.19569682  0.35595316  0.52410246  1  0.137116  0  0.101199  0.121571  0  1.021983  0
C  C18  1  0.50226591  0.50447833  0.35454201  1  1.61913  0  0.210282  0.607013  0  4.16159  0
C  C19  1  0.31170658  0.49291267  0.50333670  1  1.556153  0  0.214  0.599777  0  4.142943  0
C  C20  1  0.50216515  0.51881788  0.64946752  1  1.618857  0  0.206629  0.614255  0  4.158494  0
C  C21  1  0.70133200  0.49826796  0.49111008  1  1.601267  0  0.215784  0.603818  0  4.143823  0
C  C22  1  0.44808948  0.75037103  0.47775470  1  0.484668  0  0.058867  0.110674  0  3.917652  0
C  C23  1  0.44367242  0.83316656  0.47718037  1  -0.066477  0  -0.076813  -0.167434  0  3.937068  0
C  C24  1  0.51871296  0.88965457  0.51861415  1  0.075655  0  0.00693  0.117826  0  4.010076  0
C  C25  1  0.59610139  0.85699219  0.55957365  1  -0.048044  0  -0.013311  -0.02582  0  3.879858  0
C  C26  1  0.59548039  0.77180766  0.55709833  1  0.522276  0  0.115047  0.192338  0  3.971875  0
C  C27  1  0.51914465  0.97758165  0.52088296  1  -0.043502  0  -0.07942  -0.101675  0  3.952407  0
C  C28  1  0.46613348  0.01884708  0.47413051  1  -0.008277  0  -0.069685  -0.101977  0  3.906941  0
C  C29  1  0.41033954  0.14814283  0.43725368  1  0.021492  0  -0.089829  -0.239543  0  3.929075  0
C  C30  1  0.47665092  0.10791269  0.48011680  1  -0.080074  0  0.013343  0.189681  0  4.013387  0
C  C31  1  0.55300672  0.15699617  0.52708254  1  0.063295  0  -0.090521  -0.231741  0  3.918367  0
C  C32  1  0.55844934  0.24130201  0.53045230  1  0.444826  0  0.119583  0.260961  0  3.966418  0
C  C33  1  0.42180595  0.23314562  0.44403484  1  0.450105  0  0.121602  0.262502  0  3.970335  0
C  C34  1  0.50559719  0.49062209  0.26835734  1  0.027759  0  -0.016761  -0.054874  0  3.924197  0
C  C35  1  0.46558748  0.54922577  0.22822684  1  -0.108193  0  -0.086402  -0.09039  0  4.014416  0
C  C36  1  0.45955685  0.53999092  0.14896790  1  0.020488  0  -0.090947  -0.126328  0  3.993757  0
C  C37  1  0.49553480  0.47225299  0.10503893  1  0.042659  0  -0.01385  0.078145  0  4.029715  0
C  C38  1  0.53769895  0.41379296  0.14541857  1  -0.150036  0  -0.020511  0.013868  0  3.886174  0
C  C39  1  0.54310415  0.42255378  0.22602522  1  0.013939  0  -0.01801  0.045287  0  3.920508  0
C  C40  1  0.48928753  0.46361053  0.02149007  1  -0.027161  0  -0.092718  -0.115866  0  3.984117  0
C  C41  1  0.48491531  0.52666382  0.98043096  1  -0.003898  0  -0.086501  -0.120995  0  3.970313  0
C  C42  1  0.49190891  0.59467194  0.86495630  1  0.063081  0  -0.101488  -0.204745  0  3.970137  0
C  C43  1  0.47966490  0.52178155  0.89723887  1  -0.053523  0  -0.005428  0.15179  0  4.047765  0
C  C44  1  0.46189347  0.44832807  0.84690102  1  -0.018602  0  -0.098482  -0.19558  0  3.946963  0
C  C45  1  0.46345867  0.44875323  0.76816725  1  -0.122015  0  -0.002781  0.125588  0  3.910244  0
C  C46  1  0.48470805  0.52099010  0.73400864  1  0.103629  0  -0.020372  -0.12095  0  3.85561  0
C  C47  1  0.49346570  0.59413902  0.78591046  1  -0.078942  0  -0.005165  0.126718  0  3.915827  0
C  C48  1  0.87261003  0.44488107  0.49772826  1  -0.02986  0  -0.087551  -0.137876  0  3.935842  0
C  C49  1  0.86407547  0.58682080  0.48003850  1  0.066715  0  -0.094483  -0.156507  0  3.977731  0
C  C50  1  0.96881491  0.59797344  0.48025402  1  -0.160648  0  -0.012651  0.076626  0  3.92986  0
C  C51  1  0.03188027  0.53432842  0.49057173  1  -0.012662  0  -0.005972  0.04553  0  3.9683  0
C  C52  1  0.13969543  0.54487228  0.49187475  1  0.038497  0  -0.087053  -0.138048  0  3.939501  0
C  C53  1  0.14854758  0.40444147  0.51418724  1  0.024321  0  -0.096052  -0.158152  0  3.989059  0
C  C54  1  0.04367964  0.39267193  0.51228459  1  -0.137853  0  -0.012887  0.075988  0  3.925999  0
C  C55  1  0.98052148  0.45573382  0.50013099  1  0.033288  0  -0.006183  0.047137  0  3.963347  0
C  C56  1  0.81546751  0.50912948  0.48874844  1  -0.007849  0  -0.012188  0.005416  0  3.954147  0
C  C57  1  0.19714643  0.48137685  0.50308398  1  -0.024279  0  -0.012815  0.000759  0  3.954503  0
Br  Br58  1  0.69878814  0.72779554  0.61044834  1  0.059807  0  0.098734  0.021937  0  1.615888  0
Br  Br59  1  0.70224514  0.92661112  0.61649441  1  -0.012096  0  0.057322  -0.024196  0  1.472728  0
Br  Br60  1  0.66385840  0.30065623  0.59584021  1  0.04367  0  0.094551  0.00942  0  1.541622  0
Br  Br61  1  0.33009306  0.28183905  0.38343331  1  0.039725  0  0.096494  0.011546  0  1.475348  0
Br  Br62  1  0.60806830  0.34538161  0.27660324  1  -0.015825  0  0.020659  -0.038136  0  1.531678  0
Br  Br63  1  0.59088527  0.32294527  0.08809824  1  -0.054317  0  0.013104  -0.075354  0  1.460934  0
Br  Br64  1  0.42421128  0.34475000  0.70899570  1  -0.057224  0  0.006117  -0.076866  0  1.44842  0
Br  Br65  1  0.50875454  0.70088423  0.75595535  1  -0.04936  0  0.002201  -0.083277  0  1.47861  0
Br  Br66  1  0.98236151  0.28742149  0.52733985  1  -0.091422  0  -0.00356  -0.100632  0  1.352716  0
Br  Br67  1  0.02997454  0.70390726  0.46700093  1  -0.095284  0  -0.006642  -0.104846  0  1.329565  0
N  N68  1  0.52273195  0.71999478  0.51703965  1  -1.180906  0  -0.30823  -0.225494  0  3.474402  0
N  N69  1  0.49383831  0.28090361  0.49017271  1  -1.150031  0  -0.305478  -0.293849  0  3.398952  0
O  O70  1  0.48431862  0.44232476  0.38850787  1  -1.183115  0  -0.322209  -0.5791  0  2.450382  0
O  O71  1  0.51426373  0.57859846  0.38594285  1  -1.156367  0  -0.32356  -0.546767  0  2.266136  0
O  O72  1  0.35270555  0.56081661  0.48778715  1  -1.164637  0  -0.315128  -0.539267  0  2.304515  0
O  O73  1  0.35839607  0.43262811  0.51917223  1  -1.16877  0  -0.319921  -0.563381  0  2.398616  0
O  O74  1  0.48327699  0.58092320  0.61817738  1  -1.156385  0  -0.31708  -0.545785  0  2.402557  0
O  O75  1  0.53721069  0.45538024  0.61616530  1  -1.170768  0  -0.324614  -0.567671  0  2.412184  0
O  O76  1  0.65818906  0.42573469  0.48081169  1  -1.157095  0  -0.318695  -0.546045  0  2.387783  0
O  O77  1  0.65709820  0.56332611  0.50459801  1  -1.179465  0  -0.319216  -0.561304  0  2.419107  0
