# generated using pymatgen
data_AlH9(C3O2)6
_symmetry_space_group_name_H-M   'P 1'
_cell_length_a   4.27434959
_cell_length_b   17.17650138
_cell_length_c   17.17647855
_cell_angle_alpha   120.00010138
_cell_angle_beta   90.00029127
_cell_angle_gamma   89.99993353
_symmetry_Int_Tables_number   1
_chemical_formula_structural   AlH9(C3O2)6
_chemical_formula_sum   'Al2 H18 C36 O24'
_cell_volume   1092.11674830
_cell_formula_units_Z   2
loop_
 _symmetry_equiv_pos_site_id
 _symmetry_equiv_pos_as_xyz
  1  'x, y, z'
loop_
 _atom_site_type_symbol
 _atom_site_label
 _atom_site_symmetry_multiplicity
 _atom_site_fract_x
 _atom_site_fract_y
 _atom_site_fract_z
 _atom_site_occupancy
 _atom_site_pbe_bader_charge
 _atom_site_pbe_bader_spin_density
 _atom_site_pbe_cm5_charge
 _atom_site_pbe_ddec_charge
 _atom_site_pbe_ddec_spin_density
 _atom_site_pbe_ddec_sum_bond_order
 _atom_site_pbe_magmom
Al  Al0  1  0.98884439  0.50000116  0.50000077  1  2.520844  0  0.462073  1.64613  0  2.493755  0
Al  Al1  1  0.01065759  0.16666641  0.83333311  1  2.522198  0  0.462933  1.647347  0  2.491697  0
H  H2  1  0.29049134  0.10614042  0.52395404  1  0.064687  0  0.101507  0.11883  0  0.99686  0
H  H3  1  0.70475321  0.10672572  0.52554189  1  0.081842  0  0.102569  0.118487  0  0.983105  0
H  H4  1  0.71021263  0.19047963  0.43950207  1  0.086271  0  0.101402  0.118827  0  0.996473  0
H  H5  1  0.29599055  0.19195897  0.44000643  1  0.075162  0  0.102295  0.118133  0  0.983244  0
H  H6  1  0.29048851  0.91781546  0.89385923  1  0.066268  0  0.101515  0.118851  0  0.996899  0
H  H7  1  0.70475036  0.91881825  0.89327369  1  0.10824  0  0.102578  0.11851  0  0.983093  0
H  H8  1  0.71021273  0.74902554  0.80951957  1  0.084558  0  0.101394  0.118838  0  0.996447  0
H  H9  1  0.29599297  0.74804845  0.80803940  1  0.072601  0  0.102301  0.11812  0  0.983192  0
H  H10  1  0.29048603  0.47604211  0.08218315  1  0.066055  0  0.101515  0.118849  0  0.9969  0
H  H11  1  0.70475022  0.47445790  0.08118401  1  0.069522  0  0.102573  0.118482  0  0.983094  0
H  H12  1  0.71020519  0.56049770  0.25097696  1  0.075791  0  0.101363  0.118796  0  0.996372  0
H  H13  1  0.29598312  0.55999300  0.25195167  1  0.074555  0  0.102324  0.118191  0  0.983226  0
H  H14  1  0.89104255  0.55660495  0.76211468  1  0.679067  0  0.31426  0.376216  0  0.971071  0
H  H15  1  0.10873564  0.42882998  0.88985778  1  0.674842  0  0.31423  0.376874  0  0.970134  0
H  H16  1  0.89104367  0.70550989  0.44339419  1  0.675887  0  0.314264  0.37619  0  0.971107  0
H  H17  1  0.10874756  0.96102814  0.57116809  1  0.681453  0  0.314258  0.376907  0  0.970114  0
H  H18  1  0.89104091  0.23788458  0.29448790  1  0.678508  0  0.314264  0.376214  0  0.971072  0
H  H19  1  0.10873715  0.11014458  0.03897228  1  0.679073  0  0.314231  0.376841  0  0.97017  0
C  C20  1  0.49247525  0.43475650  0.36407073  1  1.56342  0  0.282467  0.686931  0  4.048557  0
C  C21  1  0.49247729  0.42931454  0.56524475  1  1.605717  0  0.282421  0.686841  0  4.048635  0
C  C22  1  0.49248155  0.63593117  0.57068548  1  1.64266  0  0.282474  0.686954  0  4.048546  0
C  C23  1  0.50725158  0.23211048  0.76278004  1  1.580192  0  0.282835  0.686262  0  4.049917  0
C  C24  1  0.50725210  0.03067052  0.76788999  1  1.581371  0  0.282859  0.686299  0  4.049961  0
C  C25  1  0.50725833  0.23721984  0.96933034  1  1.579497  0  0.282841  0.686331  0  4.049883  0
C  C26  1  0.49621537  0.28292090  0.71309892  1  0.043494  0  -0.000628  -0.091081  0  3.94203  0
C  C27  1  0.50355797  0.37968765  0.61610603  1  -0.018271  0  -0.00052  -0.09113  0  3.943504  0
C  C28  1  0.49471020  0.23935660  0.61966056  1  -0.001459  0  0.001507  0.067649  0  3.877657  0
C  C29  1  0.49792522  0.42520530  0.71110514  1  -0.072082  0  -0.007411  -0.10099  0  3.975335  0
C  C30  1  0.50558847  0.28626829  0.57264397  1  0.035319  0  0.001141  0.066943  0  3.879005  0
C  C31  1  0.50166672  0.37792631  0.75850535  1  -0.002228  0  -0.007433  -0.101461  0  3.97555  0
C  C32  1  0.49721286  0.14807903  0.53454212  1  -0.008623  0  -0.147103  -0.195097  0  3.840464  0
C  C33  1  0.50347046  0.20107848  0.48142260  1  -0.055946  0  -0.14635  -0.194432  0  3.840033  0
C  C34  1  0.49622092  0.93017931  0.71707849  1  -0.043719  0  -0.000654  -0.091127  0  3.942152  0
C  C35  1  0.50356187  0.73642024  0.62031106  1  0.044594  0  -0.000545  -0.09118  0  3.943521  0
C  C36  1  0.49470546  0.88030686  0.76064358  1  0.002337  0  0.001446  0.067619  0  3.877736  0
C  C37  1  0.49793003  0.78589997  0.57479360  1  -0.063499  0  -0.007375  -0.100894  0  3.975224  0
C  C38  1  0.50558873  0.78637794  0.71373219  1  -0.069003  0  0.001194  0.066975  0  3.878982  0
C  C39  1  0.50167588  0.88057998  0.62207291  1  0.118604  0  -0.00744  -0.101428  0  3.975577  0
C  C40  1  0.49720967  0.88646429  0.85192077  1  -0.073533  0  -0.147092  -0.19513  0  3.840545  0
C  C41  1  0.50347232  0.78034633  0.79892106  1  -0.017789  0  -0.146358  -0.194432  0  3.839928  0
C  C42  1  0.49622524  0.28690060  0.06982146  1  -0.059052  0  -0.000678  -0.091161  0  3.942158  0
C  C43  1  0.50355206  0.38389474  0.26358230  1  0.025497  0  -0.000583  -0.091315  0  3.943548  0
C  C44  1  0.49470951  0.38033908  0.11969647  1  0.176044  0  0.001533  0.067732  0  3.877652  0
C  C45  1  0.49792286  0.28889578  0.21410105  1  -0.132075  0  -0.007408  -0.100937  0  3.975369  0
C  C46  1  0.50558218  0.42735758  0.21362440  1  -0.047965  0  0.001161  0.066972  0  3.879082  0
C  C47  1  0.50167229  0.24149592  0.11942271  1  0.096898  0  -0.007449  -0.101481  0  3.975599  0
C  C48  1  0.49720320  0.46545773  0.11353691  1  0.006929  0  -0.147122  -0.195158  0  3.840489  0
C  C49  1  0.50346007  0.51857691  0.21965548  1  -0.052924  0  -0.146308  -0.194402  0  3.83998  0
C  C50  1  0.45191382  0.52530601  0.76159877  1  1.596692  0  0.251299  0.616527  0  4.107822  0
C  C51  1  0.54768865  0.42841923  0.85859069  1  1.608881  0  0.250995  0.616542  0  4.106697  0
C  C52  1  0.45191277  0.73629135  0.47469376  1  1.586351  0  0.25129  0.6165  0  4.107825  0
C  C53  1  0.54769162  0.93016929  0.57157878  1  1.575995  0  0.250937  0.61628  0  4.106884  0
C  C54  1  0.45190712  0.23840173  0.26370793  1  1.588332  0  0.251343  0.61657  0  4.107778  0
C  C55  1  0.54769540  0.14140980  0.06982970  1  1.575235  0  0.251082  0.616621  0  4.106794  0
O  O56  1  0.72148503  0.59600966  0.58303467  1  -1.248607  0  -0.232638  -0.598218  0  2.345892  0
O  O57  1  0.72148347  0.48702557  0.40399197  1  -1.245494  0  -0.232605  -0.598209  0  2.345962  0
O  O58  1  0.72148474  0.41696714  0.51297483  1  -1.250715  0  -0.232605  -0.598148  0  2.345864  0
O  O59  1  0.25253586  0.59978008  0.52131230  1  -1.251329  0  -0.233113  -0.604165  0  2.341248  0
O  O60  1  0.25253905  0.47868862  0.57846883  1  -1.254523  0  -0.23313  -0.604162  0  2.341333  0
O  O61  1  0.25253739  0.42153282  0.40022212  1  -1.251914  0  -0.233173  -0.604175  0  2.341198  0
O  O62  1  0.74718464  0.18784955  0.93311284  1  -1.251428  0  -0.233404  -0.604483  0  2.3412  0
O  O63  1  0.74717861  0.24526278  0.81214962  1  -1.250077  0  -0.23337  -0.604412  0  2.341208  0
O  O64  1  0.74718078  0.06688842  0.75473754  1  -1.25361  0  -0.233412  -0.604465  0  2.341208  0
O  O65  1  0.27815872  0.24957250  0.92942573  1  -1.250169  0  -0.233243  -0.598025  0  2.34584  0
O  O66  1  0.27815335  0.07057451  0.82014795  1  -1.249636  0  -0.233254  -0.598039  0  2.345892  0
O  O67  1  0.27814538  0.17985357  0.75042743  1  -1.249774  0  -0.233306  -0.598069  0  2.345926  0
O  O68  1  0.67000768  0.57859032  0.76071887  1  -1.177035  0  -0.309504  -0.459859  0  2.324918  0
O  O69  1  0.20181527  0.55726151  0.80074731  1  -1.153909  0  -0.277159  -0.483279  0  2.225371  0
O  O70  1  0.32969111  0.42745546  0.91186311  1  -1.16987  0  -0.309268  -0.460267  0  2.32368  0
O  O71  1  0.79780881  0.46757332  0.89051550  1  -1.149841  0  -0.277013  -0.48355  0  2.224107  0
O  O72  1  0.67001104  0.68212942  0.42141121  1  -1.171809  0  -0.309532  -0.459845  0  2.324959  0
O  O73  1  0.20182526  0.74348421  0.44273765  1  -1.14862  0  -0.27713  -0.483261  0  2.225451  0
O  O74  1  0.32970746  0.98440665  0.57254109  1  -1.177724  0  -0.30928  -0.460186  0  2.323747  0
O  O75  1  0.79782988  0.92293719  0.53242202  1  -1.15197  0  -0.277004  -0.483489  0  2.224084  0
O  O76  1  0.67000868  0.23928018  0.31787020  1  -1.176969  0  -0.309523  -0.459899  0  2.32493  0
O  O77  1  0.20181295  0.19925145  0.25651319  1  -1.146561  0  -0.277178  -0.483279  0  2.225346  0
O  O78  1  0.32968754  0.08813909  0.01559145  1  -1.172407  0  -0.309337  -0.460303  0  2.323707  0
O  O79  1  0.79780144  0.10948550  0.07705772  1  -1.149325  0  -0.277036  -0.483557  0  2.224276  0
