# generated using pymatgen
data_H8PbC10N4O9
_symmetry_space_group_name_H-M   'P 1'
_cell_length_a   6.74025563
_cell_length_b   12.51886833
_cell_length_c   15.64800000
_cell_angle_alpha   90.00000000
_cell_angle_beta   90.00000000
_cell_angle_gamma   103.55494550
_symmetry_Int_Tables_number   1
_chemical_formula_structural   H8PbC10N4O9
_chemical_formula_sum   'H32 Pb4 C40 N16 O36'
_cell_volume   1283.60557126
_cell_formula_units_Z   4
loop_
 _symmetry_equiv_pos_site_id
 _symmetry_equiv_pos_as_xyz
  1  'x, y, z'
loop_
 _atom_site_type_symbol
 _atom_site_label
 _atom_site_symmetry_multiplicity
 _atom_site_fract_x
 _atom_site_fract_y
 _atom_site_fract_z
 _atom_site_occupancy
 _atom_site_hle17_bader_spin_density
 _atom_site_hle17_ddec_charge
 _atom_site_hle17_ddec_spin_density
 _atom_site_hle17_ddec_sum_bond_order
 _atom_site_hle17_magmom
 _atom_site_hse06_10hf_bader_spin_density
 _atom_site_hse06_10hf_ddec_charge
 _atom_site_hse06_10hf_ddec_spin_density
 _atom_site_hse06_10hf_ddec_sum_bond_order
 _atom_site_hse06_10hf_magmom
 _atom_site_hse06_bader_spin_density
 _atom_site_hse06_ddec_charge
 _atom_site_hse06_ddec_spin_density
 _atom_site_hse06_ddec_sum_bond_order
 _atom_site_hse06_magmom
 _atom_site_pbe_bader_charge
 _atom_site_pbe_bader_spin_density
 _atom_site_pbe_cm5_charge
 _atom_site_pbe_ddec_charge
 _atom_site_pbe_ddec_spin_density
 _atom_site_pbe_ddec_sum_bond_order
 _atom_site_pbe_magmom
H  H0  1  0.94813842  0.28976605  0.80250128  1  0  0.114087  0  0.94512  0  0  0.120002  0  1.011022  0  0  0.124365  0  1.005587  0  0.22393  0  0.133343  0.1166  0  1.015211  0
H  H1  1  0.55186275  0.21023712  0.30250064  1  0  0.114043  0  0.945064  0  0  0.119961  0  1.010966  0  0  0.124326  0  1.005529  0  0.223892  0  0.133341  0.116559  0  1.015148  0
H  H2  1  0.05186631  0.71024194  0.19749553  1  0  0.114016  0  0.945123  0  0  0.119938  0  1.011014  0  0  0.124295  0  1.005587  0  0.224209  0  0.133354  0.116549  0  1.01518  0
H  H3  1  0.44815206  0.78976676  0.69749936  1  0  0.114079  0  0.945126  0  0  0.119884  0  1.011107  0  0  0.124336  0  1.005568  0  0.223821  0  0.133363  0.116491  0  1.015278  0
H  H4  1  0.61385942  0.73955790  0.18898326  1  0  0.11767  0  0.943749  0  0  0.125171  0  1.007927  0  0  0.129323  0  1.002072  0  0.206925  0  0.135914  0.122053  0  1.012238  0
H  H5  1  0.88613024  0.76043108  0.68898901  1  0  0.117451  0  0.944085  0  0  0.125077  0  1.008097  0  0  0.129157  0  1.002345  0  0.20678  0  0.135925  0.121945  0  1.012436  0
H  H6  1  0.38612066  0.26043776  0.81101930  1  0  0.11768  0  0.943663  0  0  0.125173  0  1.007891  0  0  0.129335  0  1.002025  0  0.206479  0  0.135897  0.122047  0  1.01221  0
H  H7  1  0.11387542  0.23956541  0.31101291  1  0  0.117461  0  0.944005  0  0  0.125083  0  1.008033  0  0  0.129168  0  1.002275  0  0.206606  0  0.13588  0.121955  0  1.012368  0
H  H8  1  0.08534086  0.35956627  0.93782528  1  0  0.33068  0  0.897502  0  0  0.306059  0  0.962465  0  0  0.316099  0  0.954525  0  0.531447  0  0.319681  0.299024  0  0.968018  0
H  H9  1  0.41466826  0.14043280  0.43782209  1  0  0.330693  0  0.897456  0  0  0.306092  0  0.962398  0  0  0.316124  0  0.954473  0  0.531508  0  0.319697  0.299077  0  0.967943  0
H  H10  1  0.91466806  0.64043432  0.06217472  1  0  0.330672  0  0.897486  0  0  0.306054  0  0.962455  0  0  0.316093  0  0.954516  0  0.531517  0  0.31967  0.299035  0  0.968004  0
H  H11  1  0.58534430  0.85957272  0.56217536  1  0  0.330665  0  0.89752  0  0  0.306073  0  0.962434  0  0  0.316093  0  0.954529  0  0.531468  0  0.31968  0.299034  0  0.967986  0
H  H12  1  0.32999018  0.66415217  0.83601674  1  0  0.355425  0  0.906203  0  0  0.328233  0  0.979317  0  0  0.338968  0  0.969458  0  0.57937  0  0.315976  0.320731  0  0.986197  0
H  H13  1  0.17001126  0.83584831  0.33601419  1  0  0.35552  0  0.906089  0  0  0.32832  0  0.979234  0  0  0.339056  0  0.969378  0  0.57958  0  0.315979  0.320819  0  0.986114  0
H  H14  1  0.67003093  0.33585253  0.16398517  1  0  0.355566  0  0.906055  0  0  0.328403  0  0.979156  0  0  0.339142  0  0.969292  0  0.579461  0  0.31604  0.320901  0  0.986037  0
H  H15  1  0.82998498  0.16415721  0.66398517  1  0  0.35548  0  0.906142  0  0  0.328237  0  0.979369  0  0  0.338973  0  0.969512  0  0.579278  0  0.315991  0.320735  0  0.986249  0
H  H16  1  0.51455073  0.67272888  0.32475396  1  0  0.348872  0  0.881686  0  0  0.318956  0  0.957333  0  0  0.329666  0  0.948168  0  0.540056  0  0.317461  0.311381  0  0.963902  0
H  H17  1  0.98543786  0.82725763  0.82475588  1  0  0.348936  0  0.88153  0  0  0.319041  0  0.957165  0  0  0.329745  0  0.947991  0  0.540091  0  0.317516  0.311468  0  0.963741  0
H  H18  1  0.48543600  0.32726842  0.67525115  1  0  0.348932  0  0.881671  0  0  0.319003  0  0.957337  0  0  0.329708  0  0.948165  0  0.540074  0  0.317453  0.31143  0  0.963911  0
H  H19  1  0.01456233  0.17273310  0.17524604  1  0  0.348982  0  0.881562  0  0  0.319048  0  0.957235  0  0  0.329758  0  0.948065  0  0.540118  0  0.317482  0.311474  0  0.963809  0
H  H20  1  0.76308170  0.97227869  0.43566654  1  0  0.335738  0  0.908815  0  0  0.309283  0  0.980154  0  0  0.319755  0  0.970816  0  0.545902  0  0.311201  0.301929  0  0.986753  0
H  H21  1  0.73690713  0.52771521  0.93567357  1  0  0.335593  0  0.908738  0  0  0.309107  0  0.980192  0  0  0.319574  0  0.970853  0  0.54581  0  0.311122  0.301756  0  0.986788  0
H  H22  1  0.23691049  0.02772436  0.56433410  1  0  0.335683  0  0.908834  0  0  0.309271  0  0.980141  0  0  0.319742  0  0.970798  0  0.545926  0  0.311202  0.301919  0  0.986744  0
H  H23  1  0.26309484  0.47227963  0.06432707  1  0  0.335621  0  0.908731  0  0  0.309141  0  0.980172  0  0  0.319607  0  0.970834  0  0.546061  0  0.311141  0.30179  0  0.986767  0
H  H24  1  0.95342433  0.70623788  0.55973671  1  0  0.434408  0  0.862689  0  0  0.402943  0  0.926872  0  0  0.414347  0  0.910309  0  0.63577  0  0.29145  0.394845  0  0.938609  0
H  H25  1  0.54656968  0.79375766  0.05973479  1  0  0.434278  0  0.862865  0  0  0.402832  0  0.927046  0  0  0.414243  0  0.910473  0  0.635836  0  0.291383  0.394731  0  0.938788  0
H  H26  1  0.04657498  0.29376107  0.44026777  1  0  0.434402  0  0.862692  0  0  0.40298  0  0.926846  0  0  0.414393  0  0.910267  0  0.635756  0  0.291438  0.394879  0  0.938584  0
H  H27  1  0.45341823  0.20623553  0.94026457  1  0  0.434447  0  0.862628  0  0  0.402964  0  0.926839  0  0  0.414369  0  0.910276  0  0.635723  0  0.291469  0.394865  0  0.938578  0
H  H28  1  0.11632370  0.80462358  0.51419542  1  0  0.426908  0  0.863208  0  0  0.393227  0  0.930696  0  0  0.40441  0  0.914267  0  0.645593  0  0.293183  0.385241  0  0.942421  0
H  H29  1  0.38366817  0.69537196  0.01419479  1  0  0.426826  0  0.863322  0  0  0.393136  0  0.930833  0  0  0.404322  0  0.914398  0  0.645421  0  0.293148  0.385147  0  0.94256  0
H  H30  1  0.88367714  0.19537208  0.48580905  1  0  0.426842  0  0.863301  0  0  0.393158  0  0.930796  0  0  0.404345  0  0.914362  0  0.64552  0  0.293126  0.385166  0  0.942528  0
H  H31  1  0.61632419  0.30462123  0.98580266  1  0  0.426859  0  0.863295  0  0  0.393172  0  0.930799  0  0  0.404356  0  0.914367  0  0.645612  0  0.293132  0.385184  0  0.942524  0
Pb  Pb32  1  0.29260722  0.59678988  0.51802019  1  0  1.422013  0  1.410845  0  0  1.239643  0  1.814091  0  0  1.300583  0  1.764922  0  1.500351  0  0.655021  1.195093  0  1.848757  0
Pb  Pb33  1  0.20738899  0.90321224  0.01801572  1  0  1.422028  0  1.410827  0  0  1.239647  0  1.81406  0  0  1.300594  0  1.764892  0  1.500356  0  0.655029  1.195092  0  1.848721  0
Pb  Pb34  1  0.70739577  0.40321071  0.48198108  1  0  1.421974  0  1.410904  0  0  1.239601  0  1.814155  0  0  1.300544  0  1.764986  0  1.500309  0  0.654989  1.195049  0  1.848818  0
Pb  Pb35  1  0.79260694  0.09678917  0.98198236  1  0  1.422007  0  1.410949  0  0  1.239622  0  1.814206  0  0  1.300569  0  1.765037  0  1.500341  0  0.654996  1.195067  0  1.848874  0
C  C36  1  0.22408442  0.51582547  0.89822661  1  0  0.74845  0  3.821029  0  0  0.670939  0  4.132528  0  0  0.706794  0  4.127276  0  1.8592  0  0.349863  0.646914  0  4.135277  0
C  C37  1  0.27591625  0.98417664  0.39822342  1  0  0.748421  0  3.820885  0  0  0.670985  0  4.132324  0  0  0.706837  0  4.127088  0  1.859169  0  0.349887  0.646985  0  4.135066  0
C  C38  1  0.77593080  0.48417594  0.10177467  1  0  0.748337  0  3.821172  0  0  0.670949  0  4.132584  0  0  0.706809  0  4.127332  0  1.859202  0  0.349816  0.646945  0  4.135332  0
C  C39  1  0.72408628  0.01582970  0.60177786  1  0  0.748351  0  3.820649  0  0  0.670963  0  4.13207  0  0  0.706814  0  4.126833  0  1.858967  0  0.349914  0.646923  0  4.134827  0
C  C40  1  0.20764699  0.54892117  0.74366437  1  0  0.614713  0  3.796925  0  0  0.559277  0  4.086544  0  0  0.592457  0  4.085684  0  1.335424  0  0.243722  0.537108  0  4.086467  0
C  C41  1  0.29235629  0.95108013  0.24365925  1  0  0.615055  0  3.796509  0  0  0.559566  0  4.08621  0  0  0.592748  0  4.085345  0  1.335073  0  0.243762  0.5374  0  4.086129  0
C  C42  1  0.79236219  0.45108682  0.25633499  1  0  0.61494  0  3.79686  0  0  0.559465  0  4.086547  0  0  0.592648  0  4.085683  0  1.33507  0  0.243666  0.537297  0  4.086463  0
C  C43  1  0.70764855  0.04892128  0.75633499  1  0  0.614709  0  3.796825  0  0  0.559337  0  4.086399  0  0  0.592521  0  4.085531  0  1.335248  0  0.243715  0.537165  0  4.086327  0
C  C44  1  0.08444260  0.43781584  0.73378387  1  0  -0.321966  0  3.697304  0  0  -0.305631  0  3.962891  0  0  -0.328714  0  3.981837  0  0.020956  0  -0.03965  -0.290827  0  3.950272  0
C  C45  1  0.41556350  0.06218651  0.23378004  1  0  -0.322323  0  3.697244  0  0  -0.305851  0  3.962738  0  0  -0.328936  0  3.981687  0  0.020868  0  -0.039724  -0.291041  0  3.950098  0
C  C46  1  0.91555808  0.56218969  0.26621805  1  0  -0.322292  0  3.69733  0  0  -0.30576  0  3.962683  0  0  -0.328837  0  3.981615  0  0.020855  0  -0.03962  -0.290946  0  3.950051  0
C  C47  1  0.58444456  0.93782229  0.76621613  1  0  -0.32209  0  3.697399  0  0  -0.305676  0  3.96281  0  0  -0.328769  0  3.981788  0  0.020922  0  -0.039675  -0.29087  0  3.950198  0
C  C48  1  0.04301246  0.37346666  0.80573811  1  0  0.231079  0  3.613003  0  0  0.172372  0  3.878143  0  0  0.191738  0  3.887418  0  0.393536  0  0.078411  0.159957  0  3.87157  0
C  C49  1  0.45699108  0.12653323  0.30573684  1  0  0.231252  0  3.613304  0  0  0.172511  0  3.878416  0  0  0.191878  0  3.887692  0  0.393532  0  0.078483  0.160132  0  3.87184  0
C  C50  1  0.95699641  0.62653722  0.19426125  1  0  0.231274  0  3.613176  0  0  0.172534  0  3.878237  0  0  0.191903  0  3.887516  0  0.392787  0  0.078492  0.160137  0  3.871665  0
C  C51  1  0.54301963  0.87347147  0.69426125  1  0  0.231077  0  3.61316  0  0  0.172466  0  3.878248  0  0  0.191775  0  3.887489  0  0.393799  0  0.07844  0.160039  0  3.871675  0
C  C52  1  0.98731285  0.39382218  0.65136247  1  0  0.710287  0  3.897496  0  0  0.653299  0  4.193291  0  0  0.690872  0  4.184607  0  1.628846  0  0.218794  0.627832  0  4.198428  0
C  C53  1  0.51268341  0.10618675  0.15135864  1  0  0.710351  0  3.897625  0  0  0.653327  0  4.193412  0  0  0.690899  0  4.184734  0  1.629189  0  0.218767  0.627864  0  4.198535  0
C  C54  1  0.01268625  0.60618992  0.34863816  1  0  0.710426  0  3.897164  0  0  0.653415  0  4.19291  0  0  0.690989  0  4.184228  0  1.629187  0  0.218858  0.627945  0  4.198042  0
C  C55  1  0.48731687  0.89382124  0.84863753  1  0  0.710355  0  3.897602  0  0  0.653337  0  4.193418  0  0  0.690913  0  4.184734  0  1.629284  0  0.218817  0.627866  0  4.198561  0
C  C56  1  0.62218821  0.81921254  0.39185711  1  0  0.754052  0  3.810649  0  0  0.68005  0  4.111007  0  0  0.716637  0  4.105542  0  1.847689  0  0.353461  0.655475  0  4.11387  0
C  C57  1  0.87777919  0.68077643  0.89186158  1  0  0.754009  0  3.810503  0  0  0.679909  0  4.11106  0  0  0.716477  0  4.105595  0  1.847759  0  0.353345  0.655331  0  4.113942  0
C  C58  1  0.37777999  0.18078312  0.60814673  1  0  0.754326  0  3.810281  0  0  0.680251  0  4.110775  0  0  0.716822  0  4.105319  0  1.847627  0  0.353554  0.655675  0  4.113653  0
C  C59  1  0.12221654  0.31921430  0.10814353  1  0  0.753925  0  3.810786  0  0  0.679769  0  4.111423  0  0  0.716349  0  4.105962  0  1.847652  0  0.353292  0.655185  0  4.1143  0
C  C60  1  0.81911769  0.97336824  0.30409893  1  0  0.585557  0  3.837115  0  0  0.532563  0  4.13344  0  0  0.563624  0  4.133733  0  1.319837  0  0.226019  0.511861  0  4.132627  0
C  C61  1  0.68087196  0.52662073  0.80409957  1  0  0.585585  0  3.837138  0  0  0.532668  0  4.133387  0  0  0.563728  0  4.133663  0  1.319004  0  0.2261  0.511966  0  4.132588  0
C  C62  1  0.18085972  0.02663153  0.69590363  1  0  0.5857  0  3.837143  0  0  0.532792  0  4.133343  0  0  0.563855  0  4.133625  0  1.319603  0  0.226129  0.512084  0  4.132553  0
C  C63  1  0.31913676  0.47336918  0.19589468  1  0  0.585405  0  3.836969  0  0  0.532602  0  4.133124  0  0  0.563621  0  4.133466  0  1.319412  0  0.226114  0.511901  0  4.132315  0
C  C64  1  0.76776833  0.90272827  0.22954563  1  0  -0.314208  0  3.703317  0  0  -0.296818  0  3.969788  0  0  -0.319649  0  3.990191  0  0.013975  0  -0.045677  -0.282141  0  3.956162  0
C  C65  1  0.73222394  0.59725988  0.72955394  1  0  -0.314162  0  3.703719  0  0  -0.29679  0  3.970159  0  0  -0.319615  0  3.990537  0  0.014164  0  -0.045701  -0.282106  0  3.956509  0
C  C66  1  0.23221477  0.09726411  0.77045118  1  0  -0.314314  0  3.70405  0  0  -0.29689  0  3.970443  0  0  -0.319721  0  3.990844  0  0.014042  0  -0.045651  -0.282207  0  3.956801  0
C  C67  1  0.26778366  0.40273085  0.27045437  1  0  -0.314181  0  3.703503  0  0  -0.296803  0  3.969894  0  0  -0.319614  0  3.990285  0  0.013869  0  -0.045629  -0.282129  0  3.956271  0
C  C68  1  0.65680084  0.79692935  0.24171268  1  0  0.225302  0  3.614183  0  0  0.164883  0  3.87934  0  0  0.18422  0  3.889085  0  0.409123  0  0.073555  0.152396  0  3.872465  0
C  C69  1  0.84319256  0.70305797  0.74171971  1  0  0.225643  0  3.614677  0  0  0.165139  0  3.87986  0  0  0.184517  0  3.889626  0  0.409445  0  0.073746  0.152647  0  3.872996  0
C  C70  1  0.34318036  0.20306548  0.75829116  1  0  0.225664  0  3.614363  0  0  0.165149  0  3.879609  0  0  0.184478  0  3.889343  0  0.409697  0  0.073728  0.15266  0  3.872749  0
C  C71  1  0.15682461  0.29693769  0.25828157  1  0  0.22555  0  3.614545  0  0  0.165032  0  3.879759  0  0  0.184409  0  3.889526  0  0.409423  0  0.073661  0.152543  0  3.872881  0
C  C72  1  0.83752794  0.94006713  0.14186478  1  0  0.671546  0  3.971615  0  0  0.615759  0  4.268376  0  0  0.651159  0  4.263917  0  1.589687  0  0.200568  0.591854  0  4.270471  0
C  C73  1  0.66246024  0.55992184  0.64186861  1  0  0.671086  0  3.971584  0  0  0.615385  0  4.26825  0  0  0.650789  0  4.263794  0  1.58968  0  0.200417  0.591487  0  4.270345  0
C  C74  1  0.16246631  0.05992360  0.85813331  1  0  0.671015  0  3.972059  0  0  0.615327  0  4.268679  0  0  0.650731  0  4.264227  0  1.589641  0  0.20039  0.591428  0  4.270779  0
C  C75  1  0.33754173  0.44007300  0.35813075  1  0  0.671844  0  3.971773  0  0  0.61607  0  4.268523  0  0  0.651471  0  4.264055  0  1.590361  0  0.200674  0.592165  0  4.270623  0
N  N76  1  0.11379108  0.40978252  0.88414302  1  0  -0.406565  0  3.315827  0  0  -0.340205  0  3.564993  0  0  -0.364641  0  3.570034  0  -1.277326  0  -0.36985  -0.323829  0  3.561031  0
N  N77  1  0.38622014  0.09022476  0.38413535  1  0  -0.406432  0  3.315916  0  0  -0.340113  0  3.565086  0  0  -0.36455  0  3.570146  0  -1.277333  0  -0.369858  -0.323812  0  3.561173  0
N  N78  1  0.88622296  0.59022300  0.11586081  1  0  -0.406442  0  3.31595  0  0  -0.340147  0  3.565135  0  0  -0.364582  0  3.570172  0  -1.277064  0  -0.369852  -0.323844  0  3.561238  0
N  N79  1  0.61379677  0.90978734  0.61586081  1  0  -0.406512  0  3.316004  0  0  -0.340167  0  3.565042  0  0  -0.364605  0  3.570156  0  -1.277475  0  -0.369907  -0.323768  0  3.561063  0
N  N80  1  0.25875404  0.58098319  0.82764571  1  0  -0.54244  0  3.261195  0  0  -0.477859  0  3.506986  0  0  -0.504591  0  3.508653  0  -1.306908  0  -0.384867  -0.459997  0  3.505563  0
N  N81  1  0.24125031  0.91902057  0.32764123  1  0  -0.542595  0  3.260997  0  0  -0.478136  0  3.506975  0  0  -0.504877  0  3.508659  0  -1.306824  0  -0.384949  -0.460269  0  3.505541  0
N  N82  1  0.74126967  0.41902069  0.17235813  1  0  -0.542529  0  3.261243  0  0  -0.478161  0  3.507242  0  0  -0.504906  0  3.508922  0  -1.306933  0  -0.384918  -0.460296  0  3.505815  0
N  N83  1  0.75874991  0.08099070  0.67235685  1  0  -0.542246  0  3.261131  0  0  -0.477839  0  3.507129  0  0  -0.50457  0  3.508801  0  -1.306588  0  -0.384864  -0.459979  0  3.505714  0
N  N84  1  0.58937185  0.75551742  0.31928298  1  0  -0.409055  0  3.315608  0  0  -0.338124  0  3.559696  0  0  -0.363305  0  3.56544  0  -1.25446  0  -0.366642  -0.321192  0  3.555242  0
N  N85  1  0.91061300  0.74447073  0.81927978  1  0  -0.409147  0  3.315509  0  0  -0.338238  0  3.559753  0  0  -0.363406  0  3.565514  0  -1.25449  0  -0.366782  -0.321312  0  3.555304  0
N  N86  1  0.41060704  0.24448235  0.68072278  1  0  -0.409427  0  3.315839  0  0  -0.338424  0  3.559992  0  0  -0.363606  0  3.565778  0  -1.25449  0  -0.366753  -0.321495  0  3.555542  0
N  N87  1  0.08938908  0.25551753  0.18071511  1  0  -0.409149  0  3.315746  0  0  -0.338136  0  3.559893  0  0  -0.363297  0  3.565593  0  -1.254583  0  -0.366607  -0.321205  0  3.555444  0
N  N88  1  0.73562861  0.92380769  0.38085570  1  0  -0.537059  0  3.24926  0  0  -0.47531  0  3.499215  0  0  -0.500675  0  3.499806  0  -1.270238  0  -0.389928  -0.458249  0  3.498324  0
N  N89  1  0.76436315  0.57618950  0.88086145  1  0  -0.536767  0  3.248853  0  0  -0.475146  0  3.49908  0  0  -0.500545  0  3.499798  0  -1.269965  0  -0.389831  -0.458073  0  3.498142  0
N  N90  1  0.26436027  0.07619454  0.61914366  1  0  -0.536993  0  3.2491  0  0  -0.475386  0  3.499227  0  0  -0.500745  0  3.499829  0  -1.270291  0  -0.389988  -0.458311  0  3.498296  0
N  N91  1  0.23564185  0.42380205  0.11913663  1  0  -0.536762  0  3.249034  0  0  -0.475141  0  3.499208  0  0  -0.500531  0  3.499939  0  -1.270167  0  -0.3899  -0.458062  0  3.49827  0
O  O92  1  0.28606247  0.54990965  0.97075920  1  0  -0.594804  0  1.945694  0  0  -0.53935  0  2.166924  0  0  -0.561331  0  2.155979  0  -1.174625  0  -0.285283  -0.524138  0  2.174084  0
O  O93  1  0.21394567  0.95008918  0.47075984  1  0  -0.594909  0  1.945765  0  0  -0.539457  0  2.166901  0  0  -0.561444  0  2.155959  0  -1.174485  0  -0.285276  -0.524242  0  2.17405  0
O  O94  1  0.71395132  0.45008847  0.02924080  1  0  -0.594798  0  1.945856  0  0  -0.53932  0  2.166991  0  0  -0.561297  0  2.156043  0  -1.174473  0  -0.285233  -0.524106  0  2.17414  0
O  O95  1  0.78607394  0.04991552  0.52923632  1  0  -0.594872  0  1.945436  0  0  -0.539455  0  2.166605  0  0  -0.56145  0  2.155669  0  -1.17451  0  -0.285287  -0.524234  0  2.173769  0
O  O96  1  0.27067131  0.61864168  0.68706800  1  0  -0.569277  0  2.008108  0  0  -0.511758  0  2.245071  0  0  -0.537503  0  2.23848  0  -1.160658  0  -0.269177  -0.493775  0  2.249093  0
O  O97  1  0.22933002  0.88136537  0.18706480  1  0  -0.569355  0  2.007944  0  0  -0.511834  0  2.244967  0  0  -0.537572  0  2.238369  0  -1.160759  0  -0.269184  -0.493845  0  2.248987  0
O  O98  1  0.72935051  0.38136466  0.31293264  1  0  -0.569386  0  2.007956  0  0  -0.511861  0  2.244954  0  0  -0.537607  0  2.238365  0  -1.160467  0  -0.269202  -0.493869  0  2.24897  0
O  O99  1  0.77067210  0.11864344  0.81293520  1  0  -0.569293  0  2.007816  0  0  -0.511819  0  2.244798  0  0  -0.537556  0  2.238196  0  -1.160759  0  -0.269182  -0.49383  0  2.248819  0
O  O100  1  0.00279009  0.46006122  0.58720667  1  0  -0.70766  0  2.08059  0  0  -0.618535  0  2.323719  0  0  -0.652811  0  2.315083  0  -1.19471  0  -0.291707  -0.594237  0  2.328755  0
O  O101  1  0.49721340  0.03994195  0.08720156  1  0  -0.707683  0  2.080593  0  0  -0.618554  0  2.323762  0  0  -0.652838  0  2.315133  0  -1.19474  0  -0.291696  -0.59425  0  2.32879  0
O  O102  1  0.99721516  0.53993772  0.41279780  1  0  -0.707673  0  2.08037  0  0  -0.618583  0  2.323538  0  0  -0.652863  0  2.314907  0  -1.194632  0  -0.291671  -0.594276  0  2.328568  0
O  O103  1  0.50278094  0.96006604  0.91279397  1  0  -0.707714  0  2.08056  0  0  -0.618572  0  2.323702  0  0  -0.65286  0  2.315075  0  -1.194711  0  -0.291716  -0.594273  0  2.328741  0
O  O104  1  0.88385725  0.29635347  0.64771600  1  0  -0.632797  0  1.991658  0  0  -0.58654  0  2.231574  0  0  -0.611635  0  2.222157  0  -1.202721  0  -0.315167  -0.569139  0  2.237575  0
O  O105  1  0.61613129  0.20365134  0.14770897  1  0  -0.632786  0  1.991782  0  0  -0.586584  0  2.231725  0  0  -0.611678  0  2.222308  0  -1.202889  0  -0.315134  -0.569181  0  2.237719  0
O  O106  1  0.11614216  0.70366273  0.35228847  1  0  -0.632846  0  1.99144  0  0  -0.586634  0  2.231383  0  0  -0.611729  0  2.221964  0  -1.20308  0  -0.315231  -0.569229  0  2.237381  0
O  O107  1  0.38387830  0.79635418  0.85228464  1  0  -0.632728  0  1.991807  0  0  -0.586527  0  2.231736  0  0  -0.61162  0  2.222322  0  -1.203116  0  -0.315183  -0.569128  0  2.237741  0
O  O108  1  0.55266465  0.78504702  0.46355637  1  0  -0.625853  0  1.985687  0  0  -0.562734  0  2.216837  0  0  -0.588453  0  2.207356  0  -1.180286  0  -0.278716  -0.544788  0  2.222886  0
O  O109  1  0.94732009  0.71494771  0.96355892  1  0  -0.625952  0  1.985754  0  0  -0.562732  0  2.216933  0  0  -0.588451  0  2.207461  0  -1.180277  0  -0.278678  -0.544779  0  2.222972  0
O  O110  1  0.44733015  0.21495522  0.53644491  1  0  -0.626042  0  1.985375  0  0  -0.562877  0  2.216579  0  0  -0.588601  0  2.207105  0  -1.180025  0  -0.278778  -0.544934  0  2.22263  0
O  O111  1  0.05268158  0.28504302  0.03644044  1  0  -0.625922  0  1.985535  0  0  -0.562688  0  2.216716  0  0  -0.588422  0  2.207256  0  -1.180186  0  -0.278688  -0.544727  0  2.222754  0
O  O112  1  0.92514378  0.06833187  0.30718942  1  0  -0.529082  0  1.937997  0  0  -0.490782  0  2.167979  0  0  -0.510473  0  2.161519  0  -1.150784  0  -0.293448  -0.477246  0  2.171977  0
O  O113  1  0.57485013  0.43166144  0.80720028  1  0  -0.529174  0  1.938071  0  0  -0.490828  0  2.167983  0  0  -0.510521  0  2.16153  0  -1.150809  0  -0.293536  -0.477302  0  2.17198  0
O  O114  1  0.07483256  0.93166543  0.69280994  1  0  -0.529115  0  1.937829  0  0  -0.490867  0  2.167788  0  0  -0.510558  0  2.161328  0  -1.15102  0  -0.293538  -0.477332  0  2.171781  0
O  O115  1  0.42514442  0.56833340  0.19280036  1  0  -0.529093  0  1.938036  0  0  -0.490827  0  2.167959  0  0  -0.510507  0  2.161525  0  -1.150897  0  -0.29355  -0.477298  0  2.171958  0
O  O116  1  0.94845183  0.03699129  0.13095539  1  0  -0.694768  0  2.039738  0  0  -0.632344  0  2.280841  0  0  -0.661931  0  2.274368  0  -1.195246  0  -0.306835  -0.611387  0  2.284391  0
O  O117  1  0.55152035  0.46299298  0.63095923  1  0  -0.694492  0  2.039748  0  0  -0.632074  0  2.28075  0  0  -0.661666  0  2.274288  0  -1.195309  0  -0.306702  -0.611059  0  2.284147  0
O  O118  1  0.05152319  0.96299616  0.86904013  1  0  -0.694515  0  2.040051  0  0  -0.632097  0  2.281026  0  0  -0.661689  0  2.274565  0  -1.195235  0  -0.306704  -0.611069  0  2.284393  0
O  O119  1  0.44846321  0.53699364  0.36903949  1  0  -0.69472  0  2.039973  0  0  -0.632299  0  2.281034  0  0  -0.661886  0  2.274561  0  -1.195449  0  -0.306768  -0.61133  0  2.28456  0
O  O120  1  0.78782807  0.87255858  0.07977889  1  0  -0.703392  0  1.999696  0  0  -0.641193  0  2.230202  0  0  -0.670577  0  2.223466  0  -1.210684  0  -0.315058  -0.620508  0  2.234193  0
O  O121  1  0.71215734  0.62744107  0.57977952  1  0  -0.703352  0  1.999395  0  0  -0.641212  0  2.229885  0  0  -0.670588  0  2.223144  0  -1.210453  0  -0.315055  -0.620529  0  2.233864  0
O  O122  1  0.21216387  0.12743708  0.92022814  1  0  -0.703314  0  1.999519  0  0  -0.641148  0  2.229962  0  0  -0.67053  0  2.22323  0  -1.210573  0  -0.315067  -0.620468  0  2.233943  0
O  O123  1  0.28784596  0.37256363  0.42021472  1  0  -0.703672  0  1.999405  0  0  -0.641506  0  2.229948  0  0  -0.670884  0  2.223195  0  -1.21083  0  -0.315266  -0.620821  0  2.233941  0
O  O124  1  0.10146693  0.74226862  0.55378707  1  0  -0.837832  0  1.837492  0  0  -0.775357  0  2.022469  0  0  -0.798569  0  1.989462  0  -1.248854  0  -0.565629  -0.758775  0  2.045495  0
O  O125  1  0.39852447  0.75773267  0.05378707  1  0  -0.837689  0  1.837688  0  0  -0.775237  0  2.022583  0  0  -0.798456  0  1.989575  0  -1.248734  0  -0.565531  -0.758652  0  2.045611  0
O  O126  1  0.89852936  0.25773361  0.44621613  1  0  -0.837756  0  1.837538  0  0  -0.775333  0  2.022395  0  0  -0.798551  0  1.989377  0  -1.248741  0  -0.565542  -0.758742  0  2.045429  0
O  O127  1  0.60146225  0.24226463  0.94621102  1  0  -0.83785  0  1.837523  0  0  -0.775357  0  2.022516  0  0  -0.798572  0  1.989512  0  -1.248841  0  -0.565596  -0.758775  0  2.045543  0
