# generated using pymatgen
data_Mn3H28C24(NO11)2
_symmetry_space_group_name_H-M   'P 1'
_cell_length_a   7.55395857
_cell_length_b   8.25978611
_cell_length_c   13.03404253
_cell_angle_alpha   93.84767616
_cell_angle_beta   99.74802261
_cell_angle_gamma   113.61841478
_symmetry_Int_Tables_number   1
_chemical_formula_structural   Mn3H28C24(NO11)2
_chemical_formula_sum   'Mn3 H28 C24 N2 O22'
_cell_volume   726.12084970
_cell_formula_units_Z   1
loop_
 _symmetry_equiv_pos_site_id
 _symmetry_equiv_pos_as_xyz
  1  'x, y, z'
loop_
 _atom_site_type_symbol
 _atom_site_label
 _atom_site_symmetry_multiplicity
 _atom_site_fract_x
 _atom_site_fract_y
 _atom_site_fract_z
 _atom_site_occupancy
 _atom_site_hle17_ddec_charge
 _atom_site_hle17_ddec_spin_density
 _atom_site_hle17_ddec_sum_bond_order
 _atom_site_hle17_magmom
 _atom_site_hse06_10hf_ddec_charge
 _atom_site_hse06_10hf_ddec_spin_density
 _atom_site_hse06_10hf_ddec_sum_bond_order
 _atom_site_hse06_10hf_magmom
 _atom_site_hse06_ddec_charge
 _atom_site_hse06_ddec_spin_density
 _atom_site_hse06_ddec_sum_bond_order
 _atom_site_hse06_magmom
 _atom_site_pbe_cm5_charge
 _atom_site_pbe_ddec_charge
 _atom_site_pbe_ddec_spin_density
 _atom_site_pbe_ddec_sum_bond_order
 _atom_site_pbe_magmom
Mn  Mn0  1  0.50004603  0.99995733  0.00008730  1  1.266204  -4.811355  1.621311  -4.7  1.096304  -4.744099  2.108612  -4.57  1.156864  -4.779522  2.035562  -4.622  0.590014  1.049048  -4.709354  2.161946  -4.52
Mn  Mn1  1  0.88810307  0.64778319  0.18718765  1  1.288406  4.81364  1.577391  4.689  1.1213  4.747263  2.071159  4.555  1.185932  4.787884  1.993346  4.613  0.602058  1.069486  4.70561  2.128864  4.498
Mn  Mn2  1  0.11186550  0.35217828  0.81277009  1  1.288026  -4.810337  1.576517  -4.69  1.121045  -4.745112  2.069996  -4.556  1.185647  -4.783914  1.99235  -4.613  0.601819  1.06925  -4.705595  2.127503  -4.501
H  H3  1  0.61141212  0.84251645  0.64750477  1  0.11124  0.000166  0.950176  0.0  0.118083  0.000185  1.016902  0.0  0.122922  0.000206  1.012596  0.0  0.106718  0.114566  0.000153  1.020103  0.0
H  H4  1  0.38860669  0.15752570  0.35249617  1  0.111145  -0.000131  0.950366  0.0  0.117869  -0.000208  1.017266  0.0  0.122709  -0.000192  1.012956  0.0  0.106604  0.114346  -0.000222  1.020471  0.0
H  H5  1  0.94599001  0.21707758  0.58521082  1  0.415809  0.000274  0.85271  0.0  0.382926  1.9e-05  0.933472  0.0  0.395565  0.000102  0.919312  0.0  0.31776  0.373965  -6.4e-05  0.943412  0.0
H  H6  1  0.05403803  0.78296905  0.41474977  1  0.41582  -0.000277  0.852638  0.0  0.38292  -2.7e-05  0.933464  0.0  0.395556  -0.000108  0.919319  0.0  0.317759  0.37396  5.4e-05  0.9434  0.0
H  H7  1  0.52901118  0.79867190  0.31164980  1  0.104009  -0.000203  0.977362  0.0  0.114055  -0.00022  1.04211  0.0  0.117874  -0.000229  1.039041  0.0  0.108811  0.111288  -0.000204  1.044367  0.0
H  H8  1  0.47101012  0.20131922  0.68835497  1  0.104101  0.000346  0.977228  0.0  0.114132  0.000345  1.041938  0.0  0.117951  0.000379  1.03887  0.0  0.108893  0.111393  0.000299  1.044134  0.0
H  H9  1  0.20505737  0.44343038  0.11075714  1  0.125069  0.000204  0.925757  0.0  0.14315  0.000171  0.977256  0.0  0.145145  0.000188  0.976297  0.0  0.129772  0.141596  0.000151  0.978229  0.0
H  H10  1  0.79516989  0.55660063  0.88924527  1  0.124891  -0.0002  0.926077  0.0  0.142902  -0.000513  0.977558  0.0  0.144898  -0.000369  0.976579  0.0  0.129694  0.141376  -0.000678  0.978536  -0.001
H  H11  1  0.43630029  0.55361903  0.19687824  1  0.104506  0.000476  0.966438  0.0  0.113185  0.000849  1.036969  0.0  0.11563  0.000694  1.034797  0.0  0.113643  0.111362  0.001007  1.038725  0.0
H  H12  1  0.56387607  0.44653941  0.80314421  1  0.104228  -0.000271  0.966557  0.0  0.11294  -0.000861  1.036903  0.0  0.115301  -0.000624  1.034838  0.0  0.113576  0.111207  -0.001108  1.038589  0.0
H  H13  1  0.96908374  0.28875486  0.31720572  1  0.121294  -9.4e-05  0.946965  0.0  0.134901  -0.000142  1.006493  0.0  0.136749  -0.000142  1.005423  0.0  0.121319  0.133426  -0.000128  1.00753  0.0
H  H14  1  0.03085182  0.71130930  0.68275689  1  0.121146  7.4e-05  0.947262  0.0  0.134909  -0.000123  1.006609  0.0  0.136742  -1.5e-05  1.005565  0.0  0.121277  0.133445  -0.000254  1.007623  -0.001
H  H15  1  0.11055104  0.22090515  0.24478921  1  0.101804  -0.000133  0.920506  0.0  0.115924  -0.000349  0.981908  0.0  0.11812  -0.000328  0.979852  0.0  0.11058  0.114202  -0.000349  0.983631  0.0
H  H16  1  0.88934104  0.77898771  0.75524664  1  0.101888  0.000273  0.920406  0.0  0.11605  1e-06  0.981777  0.0  0.118253  0.000171  0.979714  0.0  0.110563  0.114301  -0.000209  0.983522  0.0
H  H17  1  0.11712078  0.39436009  0.45552660  1  0.108184  3.3e-05  0.973096  0.0  0.112088  -6e-06  1.046951  0.0  0.116539  3.7e-05  1.042847  0.0  0.104099  0.108872  -5.3e-05  1.049933  0.0
H  H18  1  0.88293186  0.60563204  0.54448520  1  0.108097  -4.9e-05  0.973114  0.0  0.112132  -2.5e-05  1.046838  0.0  0.116623  -6.1e-05  1.04266  0.0  0.104141  0.108911  1.2e-05  1.04984  0.0
H  H19  1  0.73984587  0.75632200  0.99558968  1  0.430179  0.000588  0.845371  0.001  0.405762  0.001141  0.90779  0.002  0.416066  0.000931  0.892751  0.002  0.306887  0.398241  0.001321  0.918203  0.002
H  H20  1  0.25996698  0.24356174  0.00439872  1  0.429774  0.000257  0.845558  -0.001  0.405458  -0.000444  0.908063  -0.002  0.415751  -0.000144  0.893036  -0.002  0.306791  0.397958  -0.000735  0.918197  -0.003
H  H21  1  0.58211986  0.67242862  0.05876191  1  0.424691  0.00069  0.864533  0.001  0.393969  0.00147  0.937913  0.001  0.404784  0.001252  0.92223  0.001  0.303946  0.386224  0.001657  0.949099  0.002
H  H22  1  0.41766958  0.32727844  0.94117190  1  0.424857  0.000155  0.864422  -0.001  0.394168  -0.000886  0.937698  -0.002  0.404985  -0.000525  0.922012  -0.001  0.304068  0.386409  -0.001225  0.948912  -0.002
H  H23  1  0.85832817  0.93511291  0.30623456  1  0.431585  0.000444  0.872164  0.002  0.400807  0.000929  0.935718  0.002  0.411433  0.000687  0.920398  0.002  0.295813  0.393136  0.001141  0.946735  0.003
H  H24  1  0.14152040  0.06487225  0.69367277  1  0.431552  -0.000437  0.872259  -0.002  0.401071  -0.00092  0.935391  -0.002  0.411714  -0.000676  0.920036  -0.002  0.296034  0.393389  -0.001137  0.946422  -0.003
H  H25  1  0.82588348  0.96073787  0.18562607  1  0.426477  0.000903  0.880442  0.001  0.394041  0.001452  0.946588  0.002  0.405593  0.001216  0.929985  0.002  0.295036  0.385744  0.001657  0.958455  0.002
H  H26  1  0.17403890  0.03925837  0.81428603  1  0.425956  0.000292  0.881193  -0.001  0.393861  -0.000287  0.946848  -0.002  0.405406  4.2e-05  0.930258  -0.002  0.294974  0.385559  -0.000604  0.95873  -0.003
H  H27  1  0.26487668  0.00451777  0.12679254  1  0.424327  -0.000468  0.874522  0.0  0.392378  -0.001109  0.939058  -0.001  0.403643  -0.000956  0.922643  0.0  0.298926  0.38435  -0.001231  0.950724  -0.001
H  H28  1  0.73513583  0.99545107  0.87330723  1  0.424598  0.000716  0.874093  0.0  0.392629  0.000113  0.938696  -0.001  0.403905  0.00037  0.922262  -0.001  0.299124  0.384583  -0.00014  0.95039  -0.001
H  H29  1  0.43069556  0.20731084  0.16295935  1  0.443028  -0.000119  0.850412  -0.001  0.410957  -0.000736  0.915461  -0.001  0.421668  -0.000536  0.899861  -0.001  0.301807  0.403255  -0.000913  0.926656  -0.001
H  H30  1  0.56927614  0.79266207  0.83710959  1  0.442653  0.000412  0.850857  -0.001  0.410775  -7.1e-05  0.91567  -0.001  0.421504  0.000115  0.900035  -0.001  0.301788  0.40307  -0.000252  0.926869  -0.001
C  C31  1  0.35722820  0.61073661  0.55949697  1  -0.061198  7.7e-05  3.785746  0.0  -0.037387  0.000237  4.027204  0.0  -0.044548  0.000289  4.05013  0.0  -0.022607  -0.032898  0.000112  4.011947  0.0
C  C32  1  0.64280172  0.38928654  0.44050288  1  -0.061463  -0.000117  3.786134  0.0  -0.03729  -0.000238  4.027154  0.0  -0.044456  -0.000283  4.050083  0.0  -0.022474  -0.032797  -0.000114  4.011895  0.0
C  C33  1  0.52627088  0.77061760  0.57000026  1  -0.082875  0.000827  3.702492  0.001  -0.125777  0.000761  3.960487  0.0  -0.124223  0.000672  3.978592  0.0  -0.089071  -0.126502  0.000945  3.948171  0.0
C  C34  1  0.47376153  0.22941358  0.43000012  1  -0.082666  -0.000784  3.702453  -0.001  -0.125583  -0.000846  3.960426  0.0  -0.12402  -0.000708  3.97852  0.0  -0.088936  -0.126308  -0.001089  3.94811  -0.001
C  C35  1  0.58565467  0.83473280  0.47932543  1  -0.072116  -0.000595  3.811189  -0.001  -0.048248  -0.000412  4.052602  0.0  -0.056225  -0.000432  4.076025  0.0  -0.023866  -0.043095  -0.000431  4.03676  0.0
C  C36  1  0.41437073  0.16528372  0.52067527  1  -0.072007  0.000543  3.81077  0.001  -0.048252  0.000383  4.052198  0.0  -0.056235  0.000411  4.075616  0.0  -0.023834  -0.0431  0.000393  4.036364  0.0
C  C37  1  0.47694820  0.74203616  0.37950273  1  -0.137614  0.000607  3.658752  0.001  -0.17627  0.000353  3.914588  0.001  -0.177142  0.000262  3.932058  0.001  -0.085893  -0.17536  0.000513  3.902789  0.001
C  C38  1  0.52308512  0.25795478  0.62050171  1  -0.137711  -0.000648  3.658248  -0.001  -0.176113  -0.000545  3.914172  -0.001  -0.176978  -0.000388  3.931644  -0.001  -0.085796  -0.175204  -0.000791  3.902368  -0.001
C  C39  1  0.30280364  0.58410176  0.36751071  1  0.2034  -0.000816  3.757907  -0.001  0.199714  -0.00032  4.008872  0.0  0.207125  -0.000484  4.029228  0.0  0.103981  0.19431  -0.000177  3.995036  0.0
C  C40  1  0.69724461  0.41587833  0.63250023  1  0.203554  0.000586  3.756773  0.001  0.199227  4.3e-05  4.008492  0.0  0.20662  0.000283  4.028879  0.0  0.103694  0.193851  -0.000176  3.99461  0.0
C  C41  1  0.30017301  0.53871500  0.65716866  1  0.660083  -0.002909  3.877069  -0.002  0.606515  -0.006061  4.170094  -0.004  0.640245  -0.004746  4.16452  -0.003  0.218998  0.583313  -0.007415  4.172916  -0.005
C  C42  1  0.69986271  0.46131738  0.34282673  1  0.660075  0.002899  3.877099  0.002  0.606393  0.005994  4.170163  0.004  0.640116  0.004708  4.164599  0.003  0.218777  0.583195  0.007315  4.172965  0.005
C  C43  1  0.76360078  0.00452680  0.48731680  1  0.670357  4e-06  3.795685  0.0  0.617283  -1.4e-05  4.092367  0.0  0.650945  -1.3e-05  4.083847  0.0  0.2411  0.594385  -2.5e-05  4.097694  0.0
C  C44  1  0.23641394  0.99548925  0.51265058  1  0.669845  3e-06  3.795412  0.0  0.616932  1e-06  4.0919  0.0  0.650602  3e-06  4.083377  0.0  0.240959  0.594032  4e-06  4.09723  0.0
C  C45  1  0.28616602  0.54782825  0.17916284  1  -0.198913  -0.000763  3.706581  -0.001  -0.257423  -0.000377  3.956531  0.0  -0.259662  -0.000297  3.965322  0.0  -0.066377  -0.255752  -0.000491  3.950355  -0.001
C  C46  1  0.71394992  0.45219797  0.82085425  1  -0.198597  -0.001016  3.707498  -0.001  -0.256697  -0.001844  3.956338  -0.001  -0.258909  -0.001285  3.965208  -0.001  -0.066106  -0.255166  -0.002423  3.950223  -0.002
C  C47  1  0.29696743  0.71898457  0.13936394  1  0.725628  -0.000157  3.789291  0.0  0.667871  -0.000108  4.093343  0.0  0.703807  -0.000282  4.085252  0.0  0.239922  0.64269  0.000188  4.098112  0.0
C  C48  1  0.70296574  0.28104014  0.86071444  1  0.724845  -0.006693  3.791594  -0.007  0.667651  -0.012905  4.094879  -0.013  0.703508  -0.009643  4.086784  -0.01  0.239856  0.642578  -0.016379  4.099641  -0.015
C  C49  1  0.04322935  0.31676185  0.25078382  1  -0.180598  -0.001118  3.677279  -0.001  -0.240686  -0.000923  3.931568  -0.001  -0.241444  -0.000819  3.938772  -0.001  -0.063545  -0.240017  -0.001055  3.926603  -0.001
C  C50  1  0.95678006  0.68322375  0.74920344  1  -0.180691  -0.001127  3.677518  -0.001  -0.240938  -0.001991  3.931717  -0.001  -0.241692  -0.001344  3.938942  -0.001  -0.063592  -0.240248  -0.00267  3.926728  -0.002
C  C51  1  0.88049386  0.27471436  0.15280421  1  0.706469  0.003473  3.821396  0.003  0.650776  0.004272  4.127498  0.004  0.686302  0.00339  4.12011  0.003  0.230901  0.625722  0.005492  4.131926  0.005
C  C52  1  0.11959608  0.72536911  0.84716392  1  0.706608  -0.00805  3.821692  -0.008  0.651077  -0.014343  4.127872  -0.013  0.686508  -0.01085  4.120509  -0.01  0.231109  0.62616  -0.018135  4.132243  -0.016
C  C53  1  0.24655996  0.51875148  0.45980656  1  -0.133173  0.000394  3.642026  0.0  -0.168346  -0.000103  3.899403  0.0  -0.169159  -1.6e-05  3.91685  0.0  -0.084303  -0.167523  -0.000159  3.887758  0.0
C  C54  1  0.75347840  0.48125288  0.54020116  1  -0.133018  -0.000378  3.641782  0.0  -0.168265  5e-06  3.899202  0.0  -0.169079  -5.3e-05  3.916676  0.0  -0.084301  -0.16745  1.4e-05  3.88754  0.0
N  N55  1  0.18953944  0.50060910  0.26688384  1  -0.167021  0.005226  3.429269  0.003  -0.086652  0.00705  3.664352  0.005  -0.105004  0.006167  3.688896  0.004  -0.291568  -0.073176  0.008049  3.646447  0.005
N  N56  1  0.81057386  0.49932698  0.73312444  1  -0.166969  -0.006495  3.42881  -0.005  -0.086349  -0.008829  3.66378  -0.006  -0.104691  -0.007581  3.688305  -0.005  -0.291469  -0.072897  -0.010221  3.645994  -0.008
O  O57  1  0.13458863  0.40151971  0.65031188  1  -0.685053  -0.030534  2.067655  -0.019  -0.6109  -0.035361  2.329498  -0.02  -0.64316  -0.03159  2.31765  -0.017  -0.311011  -0.586867  -0.039097  2.336607  -0.024
O  O58  1  0.86543040  0.59854252  0.34968594  1  -0.684879  0.030533  2.066911  0.019  -0.610876  0.035343  2.328961  0.02  -0.64314  0.031625  2.317106  0.017  -0.310977  -0.586859  0.039038  2.336139  0.024
O  O59  1  0.41437799  0.61210940  0.74596212  1  -0.641781  -0.007795  2.003562  -0.004  -0.581102  -0.014278  2.237102  -0.01  -0.606652  -0.012101  2.226887  -0.008  -0.300112  -0.562689  -0.016565  2.243605  -0.012
O  O60  1  0.58568537  0.38791051  0.25403486  1  -0.64205  0.008008  2.004044  0.004  -0.581086  0.014285  2.237426  0.009  -0.606647  0.012281  2.227258  0.008  -0.299981  -0.562672  0.016315  2.243915  0.011
O  O61  1  0.82519386  0.10266656  0.58156626  1  -0.538026  -0.000607  2.155707  0.0  -0.48228  -0.001348  2.384401  0.0  -0.505539  -0.001087  2.371974  0.0  -0.313963  -0.466056  -0.00158  2.392673  -0.001
O  O62  1  0.17485159  0.89737721  0.41839905  1  -0.537799  0.000586  2.155363  0.0  -0.482078  0.001306  2.383918  0.0  -0.505342  0.001062  2.371494  0.0  -0.313942  -0.465861  0.001533  2.392188  0.0
O  O63  1  0.84819370  0.05377035  0.41373307  1  -0.584344  0.000113  1.989339  0.0  -0.531967  0.00027  2.209466  0.0  -0.553557  0.00015  2.200086  0.0  -0.290831  -0.517198  0.000387  2.215813  0.001
O  O64  1  0.15177038  0.94621266  0.58622343  1  -0.584087  -0.000131  1.989116  0.0  -0.531923  -0.000276  2.209219  0.0  -0.553514  -0.00016  2.199807  0.0  -0.290828  -0.517149  -0.000412  2.215565  -0.001
O  O65  1  0.77945962  0.10893193  0.11551285  1  -0.659802  -0.025413  2.05027  -0.013  -0.582618  -0.029264  2.301153  -0.013  -0.614475  -0.027391  2.287191  -0.012  -0.303142  -0.559521  -0.030837  2.310409  -0.015
O  O66  1  0.22056557  0.89118082  0.88438916  1  -0.659637  -0.033122  2.049716  -0.022  -0.582623  -0.041282  2.300385  -0.028  -0.614433  -0.036594  2.286496  -0.024  -0.303263  -0.55962  -0.045886  2.309636  -0.032
O  O67  1  0.84981322  0.39893857  0.11346189  1  -0.639018  0.029726  2.073089  0.016  -0.57496  0.032405  2.347034  0.015  -0.606893  0.029544  2.334169  0.013  -0.299555  -0.551196  0.035063  2.355152  0.018
O  O68  1  0.15036835  0.60122509  0.88655667  1  -0.639056  -0.031899  2.072949  -0.019  -0.575329  -0.037701  2.347086  -0.021  -0.607237  -0.033475  2.334276  -0.017  -0.299589  -0.551671  -0.041721  2.355265  -0.024
O  O69  1  0.17542639  0.78541819  0.15441341  1  -0.659283  0.032096  2.039302  0.019  -0.583519  0.037068  2.296856  0.02  -0.615733  0.033701  2.280082  0.017  -0.294479  -0.559811  0.040207  2.308037  0.022
O  O70  1  0.82452980  0.21456419  0.84579087  1  -0.658999  -0.033803  2.038997  -0.021  -0.583614  -0.041692  2.296369  -0.026  -0.615803  -0.036927  2.279612  -0.021  -0.294779  -0.55991  -0.046273  2.30749  -0.03
O  O71  1  0.43347402  0.78679832  0.08960444  1  -0.65964  -0.029115  2.11881  -0.014  -0.585471  -0.032157  2.387094  -0.013  -0.617936  -0.030137  2.37306  -0.012  -0.296686  -0.561907  -0.033868  2.396296  -0.014
O  O72  1  0.56633967  0.21331556  0.91040516  1  -0.659311  -0.035063  2.119399  -0.021  -0.585418  -0.042161  2.387222  -0.025  -0.617698  -0.037711  2.373058  -0.021  -0.296342  -0.561946  -0.046448  2.396418  -0.029
O  O73  1  0.70061060  0.66243784  0.04106433  1  -0.821082  0.02937  1.8614  0.018  -0.756601  0.037841  2.073769  0.023  -0.780391  0.03394  2.037153  0.019  -0.564326  -0.738651  0.041449  2.09939  0.026
O  O74  1  0.29925447  0.33740855  0.95890809  1  -0.821025  -0.02896  1.861187  -0.017  -0.756701  -0.037558  2.073687  -0.023  -0.780486  -0.033444  2.037132  -0.019  -0.564631  -0.738792  -0.0414  2.099036  -0.026
O  O75  1  0.86333877  0.88700359  0.23528462  1  -0.886417  0.03343  1.931747  0.02  -0.826402  0.041645  2.163154  0.025  -0.852233  0.037392  2.124032  0.021  -0.589206  -0.806474  0.045611  2.190542  0.029
O  O76  1  0.13647402  0.11294044  0.76462226  1  -0.8859  -0.033302  1.932604  -0.021  -0.826427  -0.041759  2.16327  -0.026  -0.85225  -0.037247  2.124142  -0.022  -0.589469  -0.806523  -0.046015  2.190663  -0.03
O  O77  1  0.34298388  0.11685081  0.10070347  1  -0.851281  -0.026659  1.861531  -0.016  -0.786877  -0.036543  2.054884  -0.023  -0.810244  -0.032728  2.017868  -0.02  -0.556267  -0.769515  -0.040038  2.080902  -0.025
O  O78  1  0.65702750  0.88307861  0.89937103  1  -0.851302  -0.026294  1.861647  -0.016  -0.787086  -0.035819  2.054715  -0.023  -0.810415  -0.031996  2.017583  -0.02  -0.556475  -0.769772  -0.039342  2.080872  -0.025
