# generated using pymatgen
data_Cd2H14C24Br4N4O9
_symmetry_space_group_name_H-M   'P 1'
_cell_length_a   11.23719627
_cell_length_b   11.67493550
_cell_length_c   24.50469646
_cell_angle_alpha   90.00005417
_cell_angle_beta   90.00003809
_cell_angle_gamma   94.02437494
_symmetry_Int_Tables_number   1
_chemical_formula_structural   Cd2H14C24Br4N4O9
_chemical_formula_sum   'Cd8 H56 C96 Br16 N16 O36'
_cell_volume   3206.93099007
_cell_formula_units_Z   4
loop_
 _symmetry_equiv_pos_site_id
 _symmetry_equiv_pos_as_xyz
  1  'x, y, z'
loop_
 _atom_site_type_symbol
 _atom_site_label
 _atom_site_symmetry_multiplicity
 _atom_site_fract_x
 _atom_site_fract_y
 _atom_site_fract_z
 _atom_site_occupancy
 _atom_site_pbe_bader_charge
 _atom_site_pbe_bader_spin_density
 _atom_site_pbe_cm5_charge
 _atom_site_pbe_ddec_charge
 _atom_site_pbe_ddec_spin_density
 _atom_site_pbe_ddec_sum_bond_order
 _atom_site_pbe_magmom
Cd  Cd0  1  0.60338977  0.36528860  0.38161804  1  1.290317  0  0.778101  0.923803  0  2.204834  0
Cd  Cd1  1  0.89661048  0.63471073  0.88161740  1  1.290316  0  0.778125  0.923865  0  2.204755  0
Cd  Cd2  1  0.39661052  0.63471210  0.61838248  1  1.290308  0  0.77812  0.923842  0  2.20482  0
Cd  Cd3  1  0.10338968  0.36528825  0.11838230  1  1.290314  0  0.778115  0.923845  0  2.204792  0
Cd  Cd4  1  0.36755135  0.13995777  0.34509761  1  1.31547  0  0.78808  0.964281  0  2.120333  0
Cd  Cd5  1  0.13244826  0.86004219  0.84509699  1  1.315502  0  0.788067  0.964235  0  2.120377  0
Cd  Cd6  1  0.63244888  0.86004207  0.65490291  1  1.315467  0  0.788079  0.964265  0  2.120322  0
Cd  Cd7  1  0.86755114  0.13995851  0.15490231  1  1.315468  0  0.788076  0.964271  0  2.120364  0
H  H8  1  0.64409351  0.14391647  0.33246212  1  0.658579  0  0.291688  0.400786  0  0.930681  0
H  H9  1  0.85590584  0.85608362  0.83246197  1  0.658577  0  0.291679  0.400771  0  0.930696  0
H  H10  1  0.35590589  0.85608423  0.66753759  1  0.658578  0  0.291687  0.400788  0  0.930675  0
H  H11  1  0.14409432  0.14391536  0.16753773  1  0.658581  0  0.291699  0.400787  0  0.930673  0
H  H12  1  0.60628981  0.13571530  0.39665878  1  0.653692  0  0.278848  0.370498  0  0.988311  0
H  H13  1  0.89371046  0.86428406  0.89665865  1  0.653695  0  0.278852  0.370492  0  0.988321  0
H  H14  1  0.39370952  0.86428454  0.60334093  1  0.653691  0  0.278851  0.370504  0  0.988301  0
H  H15  1  0.10628881  0.13571492  0.10334105  1  0.653708  0  0.278841  0.370476  0  0.988341  0
H  H16  1  0.39331468  0.49548731  0.51088550  1  0.148895  0  0.117412  0.098027  0  1.026043  0
H  H17  1  0.10668630  0.50451367  0.01088498  1  0.148913  0  0.117416  0.098032  0  1.026044  0
H  H18  1  0.60668389  0.50451425  0.48911543  1  0.148897  0  0.117415  0.098029  0  1.026041  0
H  H19  1  0.89331475  0.49548531  0.98911432  1  0.14891  0  0.117431  0.098054  0  1.026029  0
H  H20  1  0.33133389  0.37416863  0.66817858  1  0.098818  0  0.116382  0.099176  0  0.998273  0
H  H21  1  0.16866728  0.62583181  0.16817854  1  0.098822  0  0.116385  0.099176  0  0.998257  0
H  H22  1  0.66866729  0.62583206  0.33182235  1  0.098859  0  0.116363  0.099144  0  0.998272  0
H  H23  1  0.83133651  0.37416802  0.83182076  1  0.098818  0  0.116357  0.099135  0  0.998341  0
H  H24  1  0.33382658  0.12977982  0.53524605  1  0.145082  0  0.116459  0.137538  0  0.989092  0
H  H25  1  0.16617450  0.87022207  0.03524612  1  0.145073  0  0.116454  0.1375  0  0.98909  0
H  H26  1  0.66617377  0.87022174  0.46475447  1  0.145044  0  0.116458  0.137498  0  0.989132  0
H  H27  1  0.83382572  0.12977777  0.96475318  1  0.145069  0  0.116458  0.13752  0  0.989138  0
H  H28  1  0.26323711  0.34841903  0.22181066  1  0.15725  0  0.11872  0.104002  0  1.025762  0
H  H29  1  0.23676217  0.65157896  0.72181039  1  0.157277  0  0.118727  0.104016  0  1.025775  0
H  H30  1  0.73676305  0.65157995  0.77819027  1  0.157276  0  0.118701  0.103995  0  1.025816  0
H  H31  1  0.76323551  0.34842260  0.27818973  1  0.157265  0  0.118727  0.103985  0  1.025783  0
H  H32  1  0.36914844  0.41502653  0.06210580  1  0.122839  0  0.111595  0.095839  0  1.01268  0
H  H33  1  0.13085161  0.58497284  0.56210505  1  0.122813  0  0.111585  0.095804  0  1.012697  0
H  H34  1  0.63084975  0.58496988  0.93789473  1  0.122823  0  0.111571  0.095787  0  1.012711  0
H  H35  1  0.86914881  0.41502957  0.43789465  1  0.122806  0  0.111555  0.095772  0  1.012701  0
H  H36  1  0.63668999  0.43150905  0.18998500  1  0.127264  0  0.110762  0.130053  0  1.00342  0
H  H37  1  0.86330996  0.56848988  0.68998351  1  0.127274  0  0.110763  0.130055  0  1.003423  0
H  H38  1  0.36331087  0.56848735  0.81001471  1  0.127261  0  0.110778  0.13012  0  1.003515  0
H  H39  1  0.13669014  0.43150824  0.31001620  1  0.127282  0  0.110765  0.130081  0  1.003387  0
H  H40  1  0.65780563  0.36322207  0.56625776  1  0.147168  0  0.10642  0.12842  0  1.011368  0
H  H41  1  0.84219411  0.63677660  0.06625614  1  0.147142  0  0.106449  0.128448  0  1.011317  0
H  H42  1  0.34219370  0.63677777  0.43374276  1  0.147154  0  0.106452  0.128441  0  1.011343  0
H  H43  1  0.15780802  0.36322495  0.93374397  1  0.147123  0  0.106429  0.128444  0  1.011306  0
H  H44  1  0.63496470  0.12030120  0.70047034  1  0.152416  0  0.115355  0.102005  0  1.014716  0
H  H45  1  0.86503889  0.87969861  0.20046884  1  0.152451  0  0.115384  0.102102  0  1.014637  0
H  H46  1  0.36503724  0.87969778  0.29953018  1  0.152435  0  0.115378  0.102064  0  1.01467  0
H  H47  1  0.13496242  0.12030380  0.79953046  1  0.152431  0  0.115375  0.102075  0  1.014666  0
H  H48  1  0.63023508  0.99687723  0.54177851  1  0.150382  0  0.118391  0.101843  0  1.032557  0
H  H49  1  0.86976482  0.00312396  0.04177743  1  0.150352  0  0.118391  0.101865  0  1.032541  0
H  H50  1  0.36976426  0.00312261  0.45822202  1  0.150373  0  0.118387  0.101824  0  1.032558  0
H  H51  1  0.13023457  0.99687673  0.95822146  1  0.150382  0  0.118393  0.101832  0  1.032557  0
H  H52  1  0.60856487  0.10419654  0.22159886  1  0.1942  0  0.116307  0.103908  0  1.029617  0
H  H53  1  0.89143634  0.89580674  0.72159875  1  0.194417  0  0.116322  0.103909  0  1.029663  0
H  H54  1  0.39143466  0.89580587  0.77840084  1  0.194304  0  0.116307  0.103893  0  1.029665  0
H  H55  1  0.10856319  0.10419567  0.27840137  1  0.194415  0  0.116315  0.103892  0  1.029713  0
H  H56  1  0.68619081  0.15356228  0.05739077  1  0.149369  0  0.112258  0.098002  0  1.048005  0
H  H57  1  0.81380892  0.84643637  0.55739143  1  0.14938  0  0.11225  0.098004  0  1.047944  0
H  H58  1  0.31380928  0.84643584  0.94260853  1  0.149382  0  0.112238  0.097976  0  1.047963  0
H  H59  1  0.18619219  0.15356347  0.44260869  1  0.149367  0  0.112253  0.097987  0  1.048027  0
H  H60  1  0.31620496  0.11825125  0.10717096  1  0.142114  0  0.109875  0.127069  0  1.023897  0
H  H61  1  0.18379522  0.88174907  0.60717078  1  0.142119  0  0.109872  0.127079  0  1.023894  0
H  H62  1  0.68379628  0.88175031  0.89282834  1  0.142048  0  0.109887  0.12709  0  1.02386  0
H  H63  1  0.81620507  0.11825162  0.39282934  1  0.142128  0  0.109881  0.127118  0  1.023847  0
C  C64  1  0.37378086  0.42122627  0.53704210  1  0.46487  0  0.049325  0.077365  0  3.895411  0
C  C65  1  0.12621927  0.57877476  0.03704162  1  0.464849  0  0.049278  0.077313  0  3.895489  0
C  C66  1  0.62621764  0.57877443  0.46295842  1  0.464827  0  0.049315  0.077402  0  3.895396  0
C  C67  1  0.87378185  0.42122507  0.96295768  1  0.464811  0  0.049293  0.077331  0  3.895446  0
C  C68  1  0.33894735  0.35370528  0.62493462  1  0.552445  0  0.042176  0.032702  0  3.957129  0
C  C69  1  0.16105374  0.64629508  0.12493459  1  0.552453  0  0.042163  0.032707  0  3.957064  0
C  C70  1  0.66105382  0.64629541  0.37506631  1  0.552584  0  0.042183  0.032718  0  3.957021  0
C  C71  1  0.83894915  0.35370476  0.87506471  1  0.552592  0  0.042163  0.032698  0  3.957163  0
C  C72  1  0.32779037  0.24059997  0.60611739  1  -0.112367  0  -0.017815  0.048736  0  3.993422  0
C  C73  1  0.17221076  0.75940120  0.10611741  1  -0.112376  0  -0.017802  0.048739  0  3.993338  0
C  C74  1  0.67221259  0.75940072  0.39388395  1  -0.112368  0  -0.017835  0.048755  0  3.993425  0
C  C75  1  0.82779035  0.24059863  0.89388189  1  -0.112387  0  -0.017802  0.048779  0  3.993346  0
C  C76  1  0.33980561  0.21769291  0.55057415  1  -0.010968  0  -0.06495  -0.098975  0  3.904932  0
C  C77  1  0.16019632  0.78230815  0.05057418  1  -0.010745  0  -0.064942  -0.098923  0  3.904867  0
C  C78  1  0.66019570  0.78230950  0.44942596  1  -0.010761  0  -0.064953  -0.098928  0  3.905024  0
C  C79  1  0.83980473  0.21769083  0.94942512  1  -0.010747  0  -0.065003  -0.099061  0  3.90493  0
C  C80  1  0.36419328  0.31050422  0.51524870  1  0.041291  0  -0.013931  -0.062106  0  3.953654  0
C  C81  1  0.13580771  0.68949677  0.01524868  1  0.04104  0  -0.013924  -0.062104  0  3.953742  0
C  C82  1  0.63580523  0.68949648  0.48475059  1  0.041034  0  -0.013954  -0.062227  0  3.953807  0
C  C83  1  0.86419341  0.31050307  0.98475103  1  0.041145  0  -0.013878  -0.06201  0  3.953615  0
C  C84  1  0.38940978  0.29445771  0.45544058  1  1.605046  0  0.202411  0.572159  0  4.242997  0
C  C85  1  0.11059267  0.70554248  0.95544111  1  1.604947  0  0.202379  0.572123  0  4.243005  0
C  C86  1  0.61059229  0.70554298  0.54455791  1  1.605311  0  0.202415  0.572128  0  4.243006  0
C  C87  1  0.88940933  0.29445735  0.04455901  1  1.605049  0  0.202391  0.572145  0  4.242988  0
C  C88  1  0.33637785  0.37130698  0.19396295  1  0.450341  0  0.048856  0.074107  0  3.914796  0
C  C89  1  0.16362145  0.62869181  0.69396265  1  0.450361  0  0.048828  0.07406  0  3.914733  0
C  C90  1  0.66362142  0.62869200  0.80603757  1  0.450279  0  0.048899  0.074043  0  3.914785  0
C  C91  1  0.83637801  0.37130975  0.30603747  1  0.450356  0  0.048882  0.074247  0  3.914921  0
C  C92  1  0.39543809  0.40948701  0.10482822  1  0.514225  0  0.040986  0.036548  0  3.95138  0
C  C93  1  0.10456107  0.59051159  0.60482747  1  0.514203  0  0.041021  0.036635  0  3.95137  0
C  C94  1  0.60456016  0.59051025  0.89517189  1  0.514212  0  0.041028  0.036631  0  3.951423  0
C  C95  1  0.89543928  0.40948997  0.39517223  1  0.514216  0  0.041048  0.036679  0  3.951197  0
C  C96  1  0.51412070  0.42804243  0.12131365  1  -0.076982  0  -0.013891  0.059482  0  3.969489  0
C  C97  1  0.98587913  0.57195635  0.62131302  1  -0.076947  0  -0.013915  0.059436  0  3.969398  0
C  C98  1  0.48587946  0.57195655  0.87868605  1  -0.076976  0  -0.013891  0.059474  0  3.96959  0
C  C99  1  0.01412026  0.42804434  0.37868669  1  -0.076969  0  -0.013872  0.059512  0  3.96933  0
C  C100  1  0.54457830  0.41798399  0.17621823  1  0.002946  0  -0.064264  -0.094981  0  3.899463  0
C  C101  1  0.95542251  0.58201491  0.67621800  1  0.002881  0  -0.064251  -0.094946  0  3.899459  0
C  C102  1  0.45542179  0.58201413  0.82378106  1  0.002928  0  -0.064306  -0.095152  0  3.899661  0
C  C103  1  0.04457759  0.41798321  0.32378252  1  0.002875  0  -0.064292  -0.094997  0  3.899434  0
C  C104  1  0.45296663  0.38783373  0.21332416  1  0.062923  0  -0.012889  -0.059712  0  3.948243  0
C  C105  1  0.04703181  0.61216510  0.71332341  1  0.062929  0  -0.012878  -0.059725  0  3.948311  0
C  C106  1  0.54703271  0.61216611  0.78667636  1  0.062906  0  -0.012874  -0.059557  0  3.948225  0
C  C107  1  0.95296739  0.38783302  0.28667752  1  0.062928  0  -0.012904  -0.059873  0  3.948581  0
C  C108  1  0.47497195  0.36841297  0.27311433  1  1.6094  0  0.202989  0.585103  0  4.225717  0
C  C109  1  0.02502570  0.63158598  0.77311439  1  1.609677  0  0.202831  0.584881  0  4.22603  0
C  C110  1  0.52502669  0.63158944  0.72688578  1  1.609672  0  0.202903  0.584942  0  4.225924  0
C  C111  1  0.97497262  0.36841214  0.22688654  1  1.609676  0  0.202947  0.585098  0  4.225674  0
C  C112  1  0.65207170  0.27605403  0.58224692  1  0.017878  0  -0.071805  -0.108146  0  3.933802  0
C  C113  1  0.84792998  0.72394638  0.08224575  1  0.017812  0  -0.071855  -0.10811  0  3.933811  0
C  C114  1  0.34792764  0.72394580  0.41775401  1  0.017701  0  -0.071826  -0.108143  0  3.933853  0
C  C115  1  0.15207208  0.27605431  0.91775436  1  0.017852  0  -0.071793  -0.108139  0  3.933794  0
C  C116  1  0.64790413  0.25398278  0.63808070  1  -0.118949  0  -0.016072  0.058537  0  3.981444  0
C  C117  1  0.85209402  0.74601690  0.13808036  1  -0.11889  0  -0.016102  0.05842  0  3.981567  0
C  C118  1  0.35209610  0.74601706  0.36192023  1  -0.118932  0  -0.016102  0.058486  0  3.981516  0
C  C119  1  0.14790449  0.25398380  0.86191975  1  -0.118965  0  -0.016058  0.058582  0  3.981426  0
C  C120  1  0.63906506  0.14102862  0.65708723  1  0.522884  0  0.041305  0.033574  0  3.950649  0
C  C121  1  0.86093763  0.85897195  0.15708654  1  0.522883  0  0.041336  0.033587  0  3.950558  0
C  C122  1  0.36093605  0.85897121  0.34291329  1  0.522895  0  0.041341  0.033589  0  3.950529  0
C  C123  1  0.13906361  0.14102961  0.84291276  1  0.522873  0  0.041265  0.03347  0  3.950621  0
C  C124  1  0.63704325  0.07182681  0.56825608  1  0.539946  0  0.050092  0.07606  0  3.893934  0
C  C125  1  0.86295663  0.92817358  0.06825542  1  0.540104  0  0.050145  0.076124  0  3.893844  0
C  C126  1  0.36295608  0.92817303  0.43174444  1  0.539991  0  0.050122  0.076124  0  3.893865  0
C  C127  1  0.13704372  0.07182797  0.93174429  1  0.540058  0  0.050112  0.076139  0  3.893867  0
C  C128  1  0.64734790  0.18252284  0.54646192  1  -0.059841  0  -0.014786  -0.059868  0  3.955408  0
C  C129  1  0.85265188  0.81747665  0.04646161  1  -0.059786  0  -0.014789  -0.059925  0  3.955414  0
C  C130  1  0.35264965  0.81747700  0.45353860  1  -0.059679  0  -0.014766  -0.059892  0  3.955424  0
C  C131  1  0.14735019  0.18252404  0.95353809  1  -0.059806  0  -0.014765  -0.05989  0  3.95544  0
C  C132  1  0.64990983  0.19939591  0.48539649  1  1.608421  0  0.199757  0.569047  0  4.244778  0
C  C133  1  0.85008703  0.80060364  0.98539550  1  1.608425  0  0.199657  0.568946  0  4.244948  0
C  C134  1  0.35008677  0.80060307  0.51460363  1  1.608479  0  0.199692  0.568981  0  4.244964  0
C  C135  1  0.14991231  0.19939620  0.01460421  1  1.608418  0  0.199746  0.569035  0  4.244823  0
C  C136  1  0.57414468  0.11314627  0.18029290  1  0.482884  0  0.050346  0.079244  0  3.876969  0
C  C137  1  0.92585455  0.88685522  0.68029402  1  0.482603  0  0.050277  0.079141  0  3.877029  0
C  C138  1  0.42585389  0.88685529  0.81970558  1  0.482695  0  0.050272  0.079122  0  3.877067  0
C  C139  1  0.07414491  0.11314634  0.31970569  1  0.48261  0  0.050294  0.079193  0  3.876998  0
C  C140  1  0.61756632  0.14094422  0.08854927  1  0.481954  0  0.030113  0.020286  0  3.97119  0
C  C141  1  0.88243544  0.85905707  0.58854873  1  0.481945  0  0.030108  0.020224  0  3.97118  0
C  C142  1  0.38243384  0.85905476  0.91145043  1  0.481938  0  0.030135  0.020297  0  3.971224  0
C  C143  1  0.11756670  0.14094448  0.41145057  1  0.481947  0  0.030114  0.020284  0  3.971227  0
C  C144  1  0.49668715  0.13712133  0.07568274  1  -0.10304  0  -0.017114  0.061692  0  3.983513  0
C  C145  1  0.00331381  0.86287807  0.57568249  1  -0.103063  0  -0.017087  0.061753  0  3.983482  0
C  C146  1  0.50331123  0.86287766  0.92431696  1  -0.103046  0  -0.017087  0.061712  0  3.98354  0
C  C147  1  0.99668820  0.13712176  0.42431762  1  -0.103052  0  -0.017094  0.061708  0  3.983512  0
C  C148  1  0.41110531  0.12086948  0.11657693  1  0.010554  0  -0.070504  -0.105227  0  3.92869  0
C  C149  1  0.08889476  0.87912914  0.61657671  1  0.010534  0  -0.070557  -0.105302  0  3.928726  0
C  C150  1  0.58889396  0.87912950  0.88342319  1  0.010647  0  -0.070534  -0.10528  0  3.928649  0
C  C151  1  0.91110623  0.12086898  0.38342340  1  0.01056  0  -0.07056  -0.105354  0  3.928714  0
C  C152  1  0.45095276  0.10799921  0.17019604  1  -0.017519  0  -0.013727  -0.065921  0  3.94104  0
C  C153  1  0.04904778  0.89200468  0.67019582  1  -0.017467  0  -0.013673  -0.065886  0  3.940974  0
C  C154  1  0.54904779  0.89200492  0.82980367  1  -0.017462  0  -0.01366  -0.065812  0  3.940955  0
C  C155  1  0.95095168  0.10799688  0.32980430  1  -0.017473  0  -0.013691  -0.065857  0  3.940969  0
C  C156  1  0.36492816  0.09398593  0.21776690  1  1.606539  0  0.201463  0.571027  0  4.252394  0
C  C157  1  0.13507315  0.90601548  0.71776672  1  1.606548  0  0.201558  0.571133  0  4.252399  0
C  C158  1  0.63507124  0.90601477  0.78223321  1  1.60605  0  0.201428  0.57095  0  4.252395  0
C  C159  1  0.86492631  0.09398608  0.28223340  1  1.606532  0  0.201491  0.571064  0  4.252502  0
Br  Br160  1  0.30129579  0.11916891  0.65685783  1  -0.006617  0  0.064774  -0.011722  0  1.563589  0
Br  Br161  1  0.19870447  0.88083151  0.15685792  1  -0.006625  0  0.06477  -0.011723  0  1.563581  0
Br  Br162  1  0.69871461  0.88083606  0.34314514  1  -0.006626  0  0.064742  -0.011757  0  1.563596  0
Br  Br163  1  0.80129480  0.11916747  0.84314179  1  -0.006642  0  0.064752  -0.011744  0  1.563577  0
Br  Br164  1  0.63231973  0.46444670  0.06758521  1  -0.032301  0  0.056996  -0.035988  0  1.547744  0
Br  Br165  1  0.86767926  0.53555369  0.56758451  1  -0.032326  0  0.057005  -0.035967  0  1.547719  0
Br  Br166  1  0.36768100  0.53554798  0.93241532  1  -0.032331  0  0.056986  -0.035993  0  1.54777  0
Br  Br167  1  0.13232020  0.46444787  0.43241519  1  -0.032324  0  0.056993  -0.036005  0  1.547708  0
Br  Br168  1  0.65262856  0.37651733  0.68916971  1  -0.045  0  0.048418  -0.036688  0  1.47358  0
Br  Br169  1  0.84737323  0.62348245  0.18916891  1  -0.04501  0  0.048413  -0.036684  0  1.473615  0
Br  Br170  1  0.34737166  0.62348250  0.31083041  1  -0.045021  0  0.048415  -0.036697  0  1.473597  0
Br  Br171  1  0.15262706  0.37651825  0.81083121  1  -0.044997  0  0.048411  -0.03671  0  1.473595  0
Br  Br172  1  0.45351540  0.15919201  0.00164387  1  -0.050038  0  0.044413  -0.042245  0  1.483843  0
Br  Br173  1  0.04648373  0.84080809  0.50164363  1  -0.050049  0  0.044425  -0.04223  0  1.483831  0
Br  Br174  1  0.54648394  0.84080782  0.99835583  1  -0.05016  0  0.044417  -0.042234  0  1.483849  0
Br  Br175  1  0.95351650  0.15919175  0.49835608  1  -0.050171  0  0.044427  -0.04222  0  1.483848  0
N  N176  1  0.36133719  0.44185915  0.59045268  1  -1.230705  0  -0.324811  -0.218282  0  3.514499  0
N  N177  1  0.13866392  0.55814199  0.09045260  1  -1.230662  0  -0.324775  -0.218263  0  3.514483  0
N  N178  1  0.63866138  0.55814240  0.40954784  1  -1.2308  0  -0.324733  -0.218217  0  3.514438  0
N  N179  1  0.86133891  0.44185699  0.90954669  1  -1.230853  0  -0.32476  -0.21826  0  3.514437  0
N  N180  1  0.30873446  0.38254028  0.14118572  1  -1.243663  0  -0.327548  -0.227777  0  3.524296  0
N  N181  1  0.19126476  0.61745839  0.64118542  1  -1.243628  0  -0.327558  -0.227789  0  3.524301  0
N  N182  1  0.69126475  0.61745784  0.85881480  1  -1.243556  0  -0.327571  -0.227756  0  3.524264  0
N  N183  1  0.80873388  0.38254402  0.35881429  1  -1.243643  0  -0.327532  -0.227819  0  3.524223  0
N  N184  1  0.63382962  0.05205986  0.62222777  1  -1.242635  0  -0.322728  -0.22745  0  3.508969  0
N  N185  1  0.86617124  0.94794064  0.12222671  1  -1.24277  0  -0.322774  -0.227522  0  3.50897  0
N  N186  1  0.36617060  0.94793998  0.37777275  1  -1.242646  0  -0.322804  -0.227514  0  3.509005  0
N  N187  1  0.13382994  0.05206005  0.87777299  1  -1.242681  0  -0.322748  -0.227481  0  3.508995  0
N  N188  1  0.65540482  0.13020578  0.14030589  1  -1.214166  0  -0.319082  -0.230815  0  3.487277  0
N  N189  1  0.84459523  0.86979562  0.64030575  1  -1.214078  0  -0.319072  -0.230736  0  3.48721  0
N  N190  1  0.34459457  0.86979492  0.85969341  1  -1.214147  0  -0.319078  -0.230744  0  3.487307  0
N  N191  1  0.15540505  0.13020507  0.35969396  1  -1.214137  0  -0.319073  -0.230787  0  3.48722  0
O  O192  1  0.37425260  0.19254099  0.43701225  1  -1.169478  0  -0.31779  -0.546733  0  2.312954  0
O  O193  1  0.12574804  0.80745916  0.93701242  1  -1.169477  0  -0.317778  -0.546701  0  2.312971  0
O  O194  1  0.62574679  0.80745971  0.56298746  1  -1.169709  0  -0.317801  -0.546697  0  2.312944  0
O  O195  1  0.87425041  0.19254068  0.06298851  1  -1.169495  0  -0.317784  -0.546734  0  2.312959  0
O  O196  1  0.42711330  0.38278193  0.42889059  1  -1.170244  0  -0.332166  -0.57056  0  2.316761  0
O  O197  1  0.07288561  0.61721907  0.92889025  1  -1.170128  0  -0.332164  -0.570573  0  2.316698  0
O  O198  1  0.57288623  0.61722048  0.57110952  1  -1.170246  0  -0.332156  -0.570535  0  2.316694  0
O  O199  1  0.92711372  0.38278077  0.07110905  1  -1.170215  0  -0.332159  -0.570561  0  2.316802  0
O  O200  1  0.57652309  0.40543130  0.29145900  1  -1.161623  0  -0.325086  -0.549354  0  2.273695  0
O  O201  1  0.92347644  0.59456012  0.79145876  1  -1.161965  0  -0.324985  -0.549269  0  2.273829  0
O  O202  1  0.42347624  0.59456854  0.70854111  1  -1.161899  0  -0.325047  -0.549296  0  2.273719  0
O  O203  1  0.07652226  0.40543114  0.20854135  1  -1.161865  0  -0.325082  -0.549364  0  2.273666  0
O  O204  1  0.39091238  0.31782354  0.30031195  1  -1.182177  0  -0.334109  -0.57737  0  2.278132  0
O  O205  1  0.10908372  0.68217805  0.80031125  1  -1.182134  0  -0.334057  -0.577235  0  2.278194  0
O  O206  1  0.60908696  0.68217630  0.69968816  1  -1.182166  0  -0.334065  -0.5773  0  2.27822  0
O  O207  1  0.89091307  0.31782351  0.19968764  1  -1.182156  0  -0.334113  -0.577363  0  2.278067  0
O  O208  1  0.64077383  0.10957767  0.45604413  1  -1.173439  0  -0.320868  -0.549843  0  2.202914  0
O  O209  1  0.85922292  0.89042096  0.95604319  1  -1.173435  0  -0.320822  -0.549771  0  2.202902  0
O  O210  1  0.35922271  0.89042046  0.54395598  1  -1.173477  0  -0.320853  -0.549804  0  2.202913  0
O  O211  1  0.14077292  0.10957974  0.04395611  1  -1.173426  0  -0.320879  -0.549823  0  2.202944  0
O  O212  1  0.65959937  0.30306745  0.46878255  1  -1.169929  0  -0.333887  -0.56923  0  2.267688  0
O  O213  1  0.84039931  0.69693292  0.96878192  1  -1.169958  0  -0.333859  -0.569228  0  2.267837  0
O  O214  1  0.34039819  0.69693239  0.53121756  1  -1.169957  0  -0.333854  -0.569209  0  2.267819  0
O  O215  1  0.15960098  0.30306778  0.03121778  1  -1.169951  0  -0.333897  -0.569277  0  2.267737  0
O  O216  1  0.25575533  0.10902684  0.21082210  1  -1.192544  0  -0.316215  -0.550601  0  2.215296  0
O  O217  1  0.24424603  0.89097542  0.71082112  1  -1.192564  0  -0.316215  -0.550622  0  2.215289  0
O  O218  1  0.74424509  0.89097558  0.78917842  1  -1.192531  0  -0.316193  -0.550585  0  2.215287  0
O  O219  1  0.75575330  0.10902442  0.28917899  1  -1.192545  0  -0.316226  -0.55063  0  2.215342  0
O  O220  1  0.41343164  0.06818200  0.26286561  1  -1.165953  0  -0.334314  -0.563578  0  2.298367  0
O  O221  1  0.08657083  0.93182208  0.76286542  1  -1.165954  0  -0.334372  -0.5636  0  2.298468  0
O  O222  1  0.58656980  0.93182213  0.73713410  1  -1.165508  0  -0.334301  -0.563517  0  2.298313  0
O  O223  1  0.91342863  0.06817948  0.23713511  1  -1.165959  0  -0.334305  -0.563554  0  2.298478  0
O  O224  1  0.58234732  0.16629153  0.35902967  1  -1.278163  0  -0.580722  -0.777738  0  2.202556  0
O  O225  1  0.91765194  0.83370689  0.85902954  1  -1.27816  0  -0.580726  -0.777749  0  2.202591  0
O  O226  1  0.41765296  0.83370916  0.64097044  1  -1.278159  0  -0.580708  -0.777755  0  2.202572  0
O  O227  1  0.08234631  0.16629037  0.14097017  1  -1.278179  0  -0.580726  -0.777739  0  2.2026  0
