# generated using pymatgen
data_Hg3H20C28Br6(N4O)2
_symmetry_space_group_name_H-M   'P 1'
_cell_length_a   7.31192567
_cell_length_b   7.97530214
_cell_length_c   29.13508600
_cell_angle_alpha   92.22159646
_cell_angle_beta   90.00054280
_cell_angle_gamma   90.00049987
_symmetry_Int_Tables_number   1
_chemical_formula_structural   Hg3H20C28Br6(N4O)2
_chemical_formula_sum   'Hg6 H40 C56 Br12 N16 O4'
_cell_volume   1697.73017723
_cell_formula_units_Z   2
loop_
 _symmetry_equiv_pos_site_id
 _symmetry_equiv_pos_as_xyz
  1  'x, y, z'
loop_
 _atom_site_type_symbol
 _atom_site_label
 _atom_site_symmetry_multiplicity
 _atom_site_fract_x
 _atom_site_fract_y
 _atom_site_fract_z
 _atom_site_occupancy
 _atom_site_hle17_bader_spin_density
 _atom_site_hle17_ddec_charge
 _atom_site_hle17_ddec_spin_density
 _atom_site_hle17_ddec_sum_bond_order
 _atom_site_hle17_magmom
 _atom_site_hse06_10hf_bader_spin_density
 _atom_site_hse06_10hf_ddec_charge
 _atom_site_hse06_10hf_ddec_spin_density
 _atom_site_hse06_10hf_ddec_sum_bond_order
 _atom_site_hse06_10hf_magmom
 _atom_site_hse06_bader_spin_density
 _atom_site_hse06_ddec_charge
 _atom_site_hse06_ddec_spin_density
 _atom_site_hse06_ddec_sum_bond_order
 _atom_site_hse06_magmom
 _atom_site_pbe_bader_spin_density
 _atom_site_pbe_cm5_charge
 _atom_site_pbe_ddec_charge
 _atom_site_pbe_ddec_spin_density
 _atom_site_pbe_ddec_sum_bond_order
 _atom_site_pbe_magmom
Hg  Hg0  1  0.50000607  0.99999309  0.99999843  1  0  0.706292  0  2.007696  0  0  0.56014  0  2.496567  0  0  0.610392  0  2.461901  0  0  0.480148  0.525636  0  2.519929  0
Hg  Hg1  1  0.00000014  0.99999425  0.49999932  1  0  0.706265  0  2.007805  0  0  0.560116  0  2.496701  0  0  0.610368  0  2.462031  0  0  0.480221  0.525718  0  2.520057  0
Hg  Hg2  1  0.81281250  0.32553174  0.25087111  1  0  0.67589  0  2.025296  0  0  0.536927  0  2.522476  0  0  0.585676  0  2.488556  0  0  0.444157  0.50394  0  2.545041  0
Hg  Hg3  1  0.31279263  0.67446847  0.24912967  1  0  0.675875  0  2.02523  0  0  0.536865  0  2.522418  0  0  0.58562  0  2.488496  0  0  0.444151  0.503876  0  2.54499  0
Hg  Hg4  1  0.18718909  0.67446477  0.74913107  1  0  0.675872  0  2.0252  0  0  0.536859  0  2.52235  0  0  0.58561  0  2.488439  0  0  0.444146  0.503885  0  2.544907  0
Hg  Hg5  1  0.68718981  0.32552676  0.75087147  1  0  0.67588  0  2.025097  0  0  0.53687  0  2.522238  0  0  0.585625  0  2.488319  0  0  0.444135  0.503881  0  2.544808  0
H  H6  1  0.40081439  0.33836824  0.17532054  1  0  0.073944  0  0.98005  0  0  0.076337  0  1.05628  0  0  0.079297  0  1.054267  0  0  0.092068  0.074165  0  1.057929  0
H  H7  1  0.90080320  0.66163142  0.32467872  1  0  0.074052  0  0.979987  0  0  0.07635  0  1.056317  0  0  0.079304  0  1.054313  0  0  0.092099  0.074188  0  1.057959  0
H  H8  1  0.59920224  0.66163066  0.82467650  1  0  0.074173  0  0.97979  0  0  0.076419  0  1.056185  0  0  0.07937  0  1.054188  0  0  0.092121  0.074249  0  1.057834  0
H  H9  1  0.09918471  0.33838647  0.67532569  1  0  0.074143  0  0.979787  0  0  0.076414  0  1.056114  0  0  0.079374  0  1.054104  0  0  0.09214  0.074253  0  1.057757  0
H  H10  1  0.37551513  0.11432383  0.11157289  1  0  0.084805  0  0.959146  0  0  0.086632  0  1.034112  0  0  0.090156  0  1.031171  0  0  0.100107  0.084004  0  1.036429  0
H  H11  1  0.87550565  0.88567062  0.38842730  1  0  0.084775  0  0.959166  0  0  0.086614  0  1.034152  0  0  0.090116  0  1.031229  0  0  0.100113  0.084  0  1.036442  0
H  H12  1  0.62450696  0.88567382  0.88842448  1  0  0.084699  0  0.959218  0  0  0.086654  0  1.034098  0  0  0.090153  0  1.031182  0  0  0.100082  0.084034  0  1.036395  0
H  H13  1  0.12446721  0.11432104  0.61158204  1  0  0.084705  0  0.959117  0  0  0.086644  0  1.033977  0  0  0.09012  0  1.031077  0  0  0.100109  0.084012  0  1.036314  0
H  H14  1  0.63127663  0.43026994  0.02155551  1  0  0.092256  0  0.949237  0  0  0.092777  0  1.02653  0  0  0.096815  0  1.022517  0  0  0.113253  0.089874  0  1.029513  0
H  H15  1  0.13128596  0.56972492  0.47844168  1  0  0.092227  0  0.949458  0  0  0.092802  0  1.026683  0  0  0.096841  0  1.022675  0  0  0.113214  0.089895  0  1.029666  0
H  H16  1  0.36872495  0.56973394  0.97844021  1  0  0.09231  0  0.949384  0  0  0.092782  0  1.026729  0  0  0.096811  0  1.022724  0  0  0.113224  0.089876  0  1.02971  0
H  H17  1  0.86872930  0.43025773  0.52155797  1  0  0.092299  0  0.949335  0  0  0.092742  0  1.026689  0  0  0.096762  0  1.022688  0  0  0.113219  0.089834  0  1.029673  0
H  H18  1  0.71567063  0.98499563  0.19783366  1  0  0.084465  0  0.95843  0  0  0.090206  0  1.030883  0  0  0.092905  0  1.027712  0  0  0.102095  0.088303  0  1.0331  0
H  H19  1  0.21568197  0.01500627  0.30216654  1  0  0.084444  0  0.958393  0  0  0.090166  0  1.030893  0  0  0.092876  0  1.027709  0  0  0.102063  0.088275  0  1.033102  0
H  H20  1  0.28433779  0.01499959  0.80216713  1  0  0.084512  0  0.958362  0  0  0.090258  0  1.03082  0  0  0.092952  0  1.027654  0  0  0.102133  0.088357  0  1.033038  0
H  H21  1  0.78433466  0.98499515  0.69783121  1  0  0.08449  0  0.958437  0  0  0.090274  0  1.030868  0  0  0.092947  0  1.027718  0  0  0.102144  0.088391  0  1.033071  0
H  H22  1  0.98141335  0.50650202  0.18022155  1  0  0.081638  0  1.016737  0  0  0.089505  0  1.0902  0  0  0.091641  0  1.08938  0  0  0.075625  0.087924  0  1.09092  0
H  H23  1  0.48141074  0.49351086  0.31977804  1  0  0.081641  0  1.016708  0  0  0.089486  0  1.090184  0  0  0.091624  0  1.089356  0  0  0.075606  0.087904  0  1.090913  0
H  H24  1  0.01858413  0.49350198  0.81977897  1  0  0.081632  0  1.01674  0  0  0.089511  0  1.09019  0  0  0.091645  0  1.089374  0  0  0.075617  0.087924  0  1.090907  0
H  H25  1  0.51858674  0.50649065  0.68022315  1  0  0.081631  0  1.016707  0  0  0.089454  0  1.090225  0  0  0.091592  0  1.089398  0  0  0.07559  0.08787  0  1.090934  0
H  H26  1  0.11847332  0.65389375  0.11596592  1  0  0.093697  0  0.961444  0  0  0.10212  0  1.027129  0  0  0.105139  0  1.025553  0  0  0.087244  0.099926  0  1.028391  0
H  H27  1  0.61846402  0.34610735  0.38403437  1  0  0.093629  0  0.961448  0  0  0.102054  0  1.027141  0  0  0.105069  0  1.025564  0  0  0.087215  0.099866  0  1.028402  0
H  H28  1  0.88152963  0.34610523  0.88403456  1  0  0.093681  0  0.961438  0  0  0.102094  0  1.027126  0  0  0.105114  0  1.025552  0  0  0.087227  0.099898  0  1.028389  0
H  H29  1  0.38153894  0.65388911  0.61596574  1  0  0.093631  0  0.961479  0  0  0.102056  0  1.027166  0  0  0.105074  0  1.025588  0  0  0.087199  0.099861  0  1.028427  0
H  H30  1  0.13802150  0.51446007  0.03788968  1  0  0.093944  0  0.958504  0  0  0.104226  0  1.021586  0  0  0.107209  0  1.02017  0  0  0.094472  0.102092  0  1.02271  0
H  H31  1  0.63801635  0.48553118  0.46211160  1  0  0.093911  0  0.958478  0  0  0.104222  0  1.021524  0  0  0.107216  0  1.020074  0  0  0.094494  0.102088  0  1.022651  0
H  H32  1  0.86198282  0.48553766  0.96211113  1  0  0.093921  0  0.958526  0  0  0.104221  0  1.021594  0  0  0.107209  0  1.020159  0  0  0.094486  0.102089  0  1.02272  0
H  H33  1  0.36197566  0.51446152  0.53788882  1  0  0.093945  0  0.958508  0  0  0.104237  0  1.021578  0  0  0.107227  0  1.020136  0  0  0.094472  0.10211  0  1.022706  0
H  H34  1  0.02849332  0.22223731  0.02505142  1  0  0.105385  0  0.963279  0  0  0.112352  0  1.031843  0  0  0.115663  0  1.029675  0  0  0.0966  0.10998  0  1.033455  0
H  H35  1  0.52850646  0.77776059  0.47495102  1  0  0.105325  0  0.963401  0  0  0.112367  0  1.031865  0  0  0.115678  0  1.029703  0  0  0.096635  0.109995  0  1.033485  0
H  H36  1  0.97150963  0.77776169  0.97494974  1  0  0.105354  0  0.963398  0  0  0.112384  0  1.031857  0  0  0.115695  0  1.029694  0  0  0.096636  0.110012  0  1.033468  0
H  H37  1  0.47148281  0.22223216  0.52505112  1  0  0.105413  0  0.96332  0  0  0.112373  0  1.031892  0  0  0.115678  0  1.029739  0  0  0.096638  0.110019  0  1.033488  0
H  H38  1  0.87320787  0.97180672  0.05477944  1  0  0.120135  0  0.982893  0  0  0.125687  0  1.052033  0  0  0.129782  0  1.047846  0  0  0.102403  0.122699  0  1.055152  0
H  H39  1  0.37321905  0.02819906  0.44522325  1  0  0.120071  0  0.982909  0  0  0.125614  0  1.052077  0  0  0.129713  0  1.047865  0  0  0.102359  0.122621  0  1.055202  0
H  H40  1  0.12679508  0.02819728  0.94522143  1  0  0.120155  0  0.982881  0  0  0.125708  0  1.052013  0  0  0.129805  0  1.047824  0  0  0.10239  0.122721  0  1.055132  0
H  H41  1  0.62677843  0.97180367  0.55477657  1  0  0.120083  0  0.982909  0  0  0.125621  0  1.052074  0  0  0.12972  0  1.047875  0  0  0.10237  0.122628  0  1.055201  0
H  H42  1  0.64384215  0.74969481  0.14976512  1  0  0.292304  0  0.917257  0  0  0.264724  0  1.001982  0  0  0.272938  0  0.995003  0  0  0.300871  0.258827  0  1.00708  0
H  H43  1  0.14384652  0.25029142  0.35023408  1  0  0.292316  0  0.917096  0  0  0.264738  0  1.001841  0  0  0.272945  0  0.994874  0  0  0.300873  0.25885  0  1.00693  0
H  H44  1  0.35616764  0.25029536  0.85023425  1  0  0.292428  0  0.917096  0  0  0.264755  0  1.001907  0  0  0.272961  0  0.994942  0  0  0.30089  0.25886  0  1.007002  0
H  H45  1  0.85616600  0.74970498  0.64976363  1  0  0.292208  0  0.917194  0  0  0.264625  0  1.001942  0  0  0.272832  0  0.994975  0  0  0.300857  0.258737  0  1.007031  0
C  C46  1  0.45275367  0.35996163  0.14091619  1  0  0.084246  0  3.695396  0  0  0.061797  0  3.955669  0  0  0.061849  0  3.973933  0  0  0.045382  0.061511  0  3.943443  0
C  C47  1  0.95274899  0.64003843  0.35908184  1  0  0.084097  0  3.695516  0  0  0.061746  0  3.955821  0  0  0.061804  0  3.974073  0  0  0.04534  0.061466  0  3.943569  0
C  C48  1  0.54725338  0.64003973  0.85907916  1  0  0.083946  0  3.695216  0  0  0.061599  0  3.955593  0  0  0.061655  0  3.973844  0  0  0.04524  0.061312  0  3.943366  0
C  C49  1  0.04724985  0.35996938  0.64092043  1  0  0.083992  0  3.695344  0  0  0.061684  0  3.955633  0  0  0.061736  0  3.973888  0  0  0.045251  0.06141  0  3.943373  0
C  C50  1  0.43848397  0.23598762  0.10582866  1  0  0.085424  0  3.681455  0  0  0.057332  0  3.935195  0  0  0.061432  0  3.953275  0  0  0.050403  0.054688  0  3.922927  0
C  C51  1  0.93847901  0.76400729  0.39416894  1  0  0.085556  0  3.681443  0  0  0.057387  0  3.935242  0  0  0.061504  0  3.953332  0  0  0.050435  0.054751  0  3.922975  0
C  C52  1  0.56152992  0.76401124  0.89416666  1  0  0.085627  0  3.681508  0  0  0.057389  0  3.935271  0  0  0.061505  0  3.953367  0  0  0.050461  0.054747  0  3.923003  0
C  C53  1  0.06150889  0.23599055  0.60583633  1  0  0.085546  0  3.681574  0  0  0.057327  0  3.935324  0  0  0.061463  0  3.953438  0  0  0.050416  0.054686  0  3.923045  0
C  C54  1  0.57831437  0.40994865  0.05585710  1  0  0.084306  0  3.662919  0  0  0.048683  0  3.916708  0  0  0.053233  0  3.933726  0  0  0.059941  0.045579  0  3.905348  0
C  C55  1  0.07832128  0.59004703  0.44414030  1  0  0.084171  0  3.663248  0  0  0.048432  0  3.917053  0  0  0.052972  0  3.934081  0  0  0.059929  0.045336  0  3.905696  0
C  C56  1  0.42168585  0.59005524  0.94413861  1  0  0.084108  0  3.663031  0  0  0.048491  0  3.916797  0  0  0.053049  0  3.933815  0  0  0.059974  0.045388  0  3.905437  0
C  C57  1  0.92168714  0.40994441  0.55585977  1  0  0.084052  0  3.663013  0  0  0.048479  0  3.91676  0  0  0.053041  0  3.933772  0  0  0.059927  0.045378  0  3.90541  0
C  C58  1  0.59221070  0.53359351  0.09113291  1  0  0.053368  0  3.766823  0  0  0.062236  0  4.010718  0  0  0.058954  0  4.03059  0  0  0.118058  0.063947  0  3.997697  0
C  C59  1  0.09221516  0.46640480  0.40886489  1  0  0.053433  0  3.766616  0  0  0.062564  0  4.010408  0  0  0.059298  0  4.030295  0  0  0.118164  0.064266  0  3.997389  0
C  C60  1  0.40779088  0.46641289  0.90886317  1  0  0.053605  0  3.766575  0  0  0.062645  0  4.010365  0  0  0.059367  0  4.030249  0  0  0.118235  0.064352  0  3.997344  0
C  C61  1  0.90779053  0.53359414  0.59113421  1  0  0.053587  0  3.766537  0  0  0.062531  0  4.010272  0  0  0.059251  0  4.030143  0  0  0.118095  0.064237  0  3.997251  0
C  C62  1  0.68353610  0.69749619  0.08234522  1  0  0.510488  0  3.853371  0  0  0.464392  0  4.134429  0  0  0.493208  0  4.135236  0  0  0.238395  0.445087  0  4.133343  0
C  C63  1  0.18353658  0.30251039  0.41765219  1  0  0.510926  0  3.85281  0  0  0.464417  0  4.134383  0  0  0.493185  0  4.135248  0  0  0.238394  0.445118  0  4.133302  0
C  C64  1  0.31645044  0.30251775  0.91765161  1  0  0.510644  0  3.853001  0  0  0.464227  0  4.134452  0  0  0.493023  0  4.135283  0  0  0.238323  0.444928  0  4.133364  0
C  C65  1  0.81646500  0.69749726  0.58234390  1  0  0.510242  0  3.85347  0  0  0.464152  0  4.134502  0  0  0.492968  0  4.135304  0  0  0.238357  0.444853  0  4.133411  0
C  C66  1  0.78187061  0.95672106  0.12472203  1  0  0.2142  0  3.777582  0  0  0.211911  0  4.027029  0  0  0.215036  0  4.048565  0  0  0.100628  0.209614  0  4.012328  0
C  C67  1  0.28188077  0.04328517  0.37527906  1  0  0.21428  0  3.777314  0  0  0.21181  0  4.027008  0  0  0.214935  0  4.048533  0  0  0.100598  0.209514  0  4.012308  0
C  C68  1  0.21812960  0.04328167  0.87527813  1  0  0.214212  0  3.777657  0  0  0.211929  0  4.02707  0  0  0.215053  0  4.048612  0  0  0.100649  0.20963  0  4.012375  0
C  C69  1  0.71813313  0.95671753  0.62471974  1  0  0.214323  0  3.777157  0  0  0.211995  0  4.026703  0  0  0.215116  0  4.048236  0  0  0.100679  0.209702  0  4.012002  0
C  C70  1  0.77753988  0.04369137  0.16829734  1  0  0.054147  0  3.676424  0  0  0.017577  0  3.929068  0  0  0.02626  0  3.944456  0  0  0.049696  0.011586  0  3.919259  0
C  C71  1  0.27754894  0.95631234  0.33170440  1  0  0.054242  0  3.676177  0  0  0.017714  0  3.92883  0  0  0.026368  0  3.944253  0  0  0.049735  0.011733  0  3.918998  0
C  C72  1  0.22246717  0.95630764  0.83170417  1  0  0.0541  0  3.676331  0  0  0.017464  0  3.92901  0  0  0.026165  0  3.94437  0  0  0.049617  0.011472  0  3.919202  0
C  C73  1  0.72246359  0.04368660  0.66829470  1  0  0.054136  0  3.676264  0  0  0.017442  0  3.928996  0  0  0.026161  0  3.944371  0  0  0.049657  0.011458  0  3.919147  0
C  C74  1  0.92445117  0.27875356  0.13982904  1  0  0.183772  0  3.77015  0  0  0.178186  0  4.004655  0  0  0.183744  0  4.029586  0  0  0.097182  0.174526  0  3.987611  0
C  C75  1  0.42445628  0.72125262  0.36017275  1  0  0.183831  0  3.770309  0  0  0.178307  0  4.004614  0  0  0.183868  0  4.029545  0  0  0.097156  0.174647  0  3.987562  0
C  C76  1  0.07554768  0.72125044  0.86017148  1  0  0.184017  0  3.770121  0  0  0.178386  0  4.004613  0  0  0.183943  0  4.029547  0  0  0.097273  0.174725  0  3.987565  0
C  C77  1  0.57554667  0.27874511  0.63982806  1  0  0.18379  0  3.770217  0  0  0.17819  0  4.004646  0  0  0.183745  0  4.029588  0  0  0.097188  0.17453  0  3.987587  0
C  C78  1  0.99165872  0.44397287  0.14646765  1  0  -0.158231  0  3.7521  0  0  -0.174482  0  4.000942  0  0  -0.180731  0  4.024972  0  0  -0.104596  -0.170224  0  3.984631  0
C  C79  1  0.49165382  0.55603386  0.35353362  1  0  -0.158343  0  3.752082  0  0  -0.174605  0  4.000921  0  0  -0.180856  0  4.024954  0  0  -0.104677  -0.170331  0  3.984578  0
C  C80  1  0.00834150  0.55603238  0.85353288  1  0  -0.158388  0  3.752195  0  0  -0.174657  0  4.001053  0  0  -0.180908  0  4.025085  0  0  -0.104709  -0.1704  0  3.984736  0
C  C81  1  0.50834229  0.44396388  0.64646753  1  0  -0.15813  0  3.751993  0  0  -0.174392  0  4.000916  0  0  -0.180642  0  4.024951  0  0  -0.104615  -0.170121  0  3.98457  0
C  C82  1  0.06698686  0.52643837  0.11022188  1  0  -0.041383  0  3.742307  0  0  -0.057155  0  3.990902  0  0  -0.057989  0  4.013106  0  0  -0.09251  -0.056295  0  3.975565  0
C  C83  1  0.56698171  0.47356231  0.38977863  1  0  -0.041206  0  3.742046  0  0  -0.056996  0  3.990695  0  0  -0.057825  0  4.012897  0  0  -0.092418  -0.056136  0  3.975351  0
C  C84  1  0.93301746  0.47356311  0.88977828  1  0  -0.041295  0  3.742206  0  0  -0.057034  0  3.990767  0  0  -0.057873  0  4.012978  0  0  -0.092472  -0.056177  0  3.975428  0
C  C85  1  0.43301988  0.52643416  0.61022217  1  0  -0.041427  0  3.742345  0  0  -0.057204  0  3.990944  0  0  -0.058039  0  4.013151  0  0  -0.092487  -0.056347  0  3.975599  0
C  C86  1  0.07904543  0.44696482  0.06611651  1  0  -0.053849  0  3.735593  0  0  -0.068513  0  3.986126  0  0  -0.071497  0  4.008589  0  0  -0.089861  -0.066479  0  3.970677  0
C  C87  1  0.57904537  0.55303597  0.43388471  1  0  -0.053859  0  3.735445  0  0  -0.06855  0  3.98601  0  0  -0.071532  0  4.00849  0  0  -0.089883  -0.066521  0  3.970576  0
C  C88  1  0.92095342  0.55303541  0.93388398  1  0  -0.053805  0  3.735532  0  0  -0.068504  0  3.986073  0  0  -0.071484  0  4.008547  0  0  -0.089852  -0.066474  0  3.970628  0
C  C89  1  0.42095211  0.44696051  0.56611643  1  0  -0.053777  0  3.735569  0  0  -0.068435  0  3.986071  0  0  -0.071413  0  4.008547  0  0  -0.089808  -0.066407  0  3.970643  0
C  C90  1  0.01765577  0.28481613  0.05883631  1  0  -0.099616  0  3.712633  0  0  -0.120713  0  3.961555  0  0  -0.123305  0  3.983549  0  0  -0.087363  -0.118662  0  3.946451  0
C  C91  1  0.51766436  0.71518292  0.44116578  1  0  -0.099479  0  3.712671  0  0  -0.120691  0  3.961647  0  0  -0.123264  0  3.983593  0  0  -0.087372  -0.118662  0  3.946601  0
C  C92  1  0.98234854  0.71518163  0.94116553  1  0  -0.099633  0  3.712631  0  0  -0.120788  0  3.96163  0  0  -0.123362  0  3.983572  0  0  -0.087429  -0.118746  0  3.946558  0
C  C93  1  0.48233039  0.28481232  0.55883604  1  0  -0.099603  0  3.712832  0  0  -0.12075  0  3.961808  0  0  -0.123319  0  3.983747  0  0  -0.087362  -0.118731  0  3.946797  0
C  C94  1  0.93754912  0.19736649  0.09529290  1  0  0.030418  0  3.804609  0  0  0.051401  0  4.030192  0  0  0.048496  0  4.055729  0  0  -0.006879  0.053199  0  4.012849  0
C  C95  1  0.43755526  0.80263732  0.40470993  1  0  0.030388  0  3.804788  0  0  0.051434  0  4.030206  0  0  0.048528  0  4.055743  0  0  -0.006896  0.053231  0  4.012873  0
C  C96  1  0.06245520  0.80263377  0.90470897  1  0  0.030477  0  3.804519  0  0  0.051453  0  4.030101  0  0  0.048549  0  4.055648  0  0  -0.006867  0.05325  0  4.012756  0
C  C97  1  0.56244359  0.19736419  0.59529125  1  0  0.030455  0  3.804781  0  0  0.051456  0  4.030298  0  0  0.048551  0  4.055842  0  0  -0.006936  0.053249  0  4.012963  0
C  C98  1  0.86513501  0.03457789  0.08842511  1  0  -0.14496  0  3.660269  0  0  -0.180352  0  3.914658  0  0  -0.180071  0  3.930775  0  0  -0.078469  -0.180214  0  3.903698  0
C  C99  1  0.36514295  0.96542029  0.41157749  1  0  -0.145018  0  3.660412  0  0  -0.180363  0  3.914799  0  0  -0.180089  0  3.930955  0  0  -0.078452  -0.180234  0  3.903858  0
C  C100  1  0.13486794  0.96542234  0.91157538  1  0  -0.145157  0  3.660509  0  0  -0.180562  0  3.914936  0  0  -0.180274  0  3.931036  0  0  -0.078515  -0.180423  0  3.903977  0
C  C101  1  0.63485863  0.03458118  0.58842266  1  0  -0.145044  0  3.660277  0  0  -0.180403  0  3.914661  0  0  -0.180125  0  3.930796  0  0  -0.078455  -0.180273  0  3.903718  0
Br  Br102  1  0.73729432  0.14108344  0.95401152  1  0  -0.358444  0  1.1046  0  0  -0.301346  0  1.426373  0  0  -0.320595  0  1.40807  0  0  -0.165114  -0.288467  0  1.439025  0
Br  Br103  1  0.23730031  0.85891335  0.54598397  1  0  -0.358432  0  1.104577  0  0  -0.301357  0  1.426376  0  0  -0.320613  0  1.408077  0  0  -0.165101  -0.288454  0  1.439027  0
Br  Br104  1  0.26270726  0.85891801  0.04598760  1  0  -0.358434  0  1.104527  0  0  -0.301341  0  1.426288  0  0  -0.320593  0  1.408006  0  0  -0.165103  -0.288456  0  1.438938  0
Br  Br105  1  0.76270675  0.14108939  0.45401654  1  0  -0.358415  0  1.104568  0  0  -0.301324  0  1.426365  0  0  -0.320574  0  1.408062  0  0  -0.165061  -0.288404  0  1.439008  0
Br  Br106  1  0.76489885  0.09022019  0.30504642  1  0  -0.39423  0  0.958813  0  0  -0.343414  0  1.250629  0  0  -0.361842  0  1.233342  0  0  -0.232734  -0.330865  0  1.262454  0
Br  Br107  1  0.26484370  0.90980754  0.19496752  1  0  -0.394219  0  0.958893  0  0  -0.343375  0  1.250693  0  0  -0.36181  0  1.23341  0  0  -0.232698  -0.330788  0  1.262518  0
Br  Br108  1  0.23510410  0.90975611  0.69495008  1  0  -0.3942  0  0.958871  0  0  -0.343354  0  1.250661  0  0  -0.36179  0  1.233376  0  0  -0.2327  -0.330799  0  1.262487  0
Br  Br109  1  0.73511412  0.09023586  0.80505429  1  0  -0.394209  0  0.958819  0  0  -0.3434  0  1.250644  0  0  -0.361838  0  1.233359  0  0  -0.2327  -0.33082  0  1.26247  0
Br  Br110  1  0.72345982  0.63677642  0.24356344  1  0  -0.386083  0  1.188207  0  0  -0.325424  0  1.536861  0  0  -0.345886  0  1.512818  0  0  -0.176537  -0.311513  0  1.553262  0
Br  Br111  1  0.22346871  0.36320278  0.25642903  1  0  -0.385992  0  1.18814  0  0  -0.325364  0  1.536843  0  0  -0.345828  0  1.512799  0  0  -0.176494  -0.311455  0  1.553246  0
Br  Br112  1  0.27650210  0.36320765  0.75644308  1  0  -0.386067  0  1.188118  0  0  -0.325422  0  1.536767  0  0  -0.345884  0  1.512727  0  0  -0.176518  -0.311514  0  1.55316  0
Br  Br113  1  0.77648774  0.63679340  0.74355976  1  0  -0.386084  0  1.188042  0  0  -0.325405  0  1.536643  0  0  -0.345864  0  1.5126  0  0  -0.176522  -0.311501  0  1.553045  0
N  N114  1  0.53011690  0.50824822  0.13364100  1  0  -0.283531  0  3.113947  0  0  -0.255822  0  3.385012  0  0  -0.262556  0  3.401819  0  0  -0.299032  -0.25081  0  3.373736  0
N  N115  1  0.03012279  0.49175331  0.36635531  1  0  -0.283696  0  3.113907  0  0  -0.256  0  3.384828  0  0  -0.262734  0  3.401632  0  0  -0.299087  -0.250973  0  3.373537  0
N  N116  1  0.46988331  0.49175190  0.86635469  1  0  -0.283788  0  3.113942  0  0  -0.25605  0  3.384861  0  0  -0.262784  0  3.401672  0  0  -0.299145  -0.251035  0  3.373582  0
N  N117  1  0.96988289  0.50825190  0.63364351  1  0  -0.283676  0  3.113943  0  0  -0.255986  0  3.384891  0  0  -0.262719  0  3.4017  0  0  -0.29904  -0.250959  0  3.373594  0
N  N118  1  0.50202473  0.26140571  0.06363322  1  0  -0.267811  0  3.201919  0  0  -0.208232  0  3.465681  0  0  -0.223664  0  3.486117  0  0  -0.296201  -0.197304  0  3.451391  0
N  N119  1  0.00202320  0.73858685  0.43636533  1  0  -0.267679  0  3.201946  0  0  -0.208051  0  3.465756  0  0  -0.223481  0  3.486192  0  0  -0.296148  -0.197147  0  3.451489  0
N  N120  1  0.49798642  0.73859314  0.93636210  1  0  -0.267691  0  3.201791  0  0  -0.208097  0  3.465609  0  0  -0.223529  0  3.486042  0  0  -0.296169  -0.19717  0  3.451313  0
N  N121  1  0.99797018  0.26140469  0.56363885  1  0  -0.267596  0  3.201822  0  0  -0.208005  0  3.465584  0  0  -0.223434  0  3.486006  0  0  -0.296097  -0.197095  0  3.451312  0
N  N122  1  0.70051503  0.79891191  0.12102871  1  0  -0.424307  0  3.38558  0  0  -0.367933  0  3.621479  0  0  -0.390737  0  3.632917  0  0  -0.389549  -0.352186  0  3.613286  0
N  N123  1  0.20052408  0.20108862  0.37897178  1  0  -0.424434  0  3.385353  0  0  -0.36789  0  3.621432  0  0  -0.390673  0  3.632892  0  0  -0.389507  -0.352139  0  3.613228  0
N  N124  1  0.29948382  0.20109079  0.87897008  1  0  -0.424353  0  3.385249  0  0  -0.367788  0  3.621322  0  0  -0.390582  0  3.632769  0  0  -0.389513  -0.352048  0  3.613132  0
N  N125  1  0.79948981  0.79891030  0.62102629  1  0  -0.424117  0  3.385489  0  0  -0.367733  0  3.621414  0  0  -0.390546  0  3.63289  0  0  -0.389575  -0.351988  0  3.613209  0
N  N126  1  0.84450941  0.19671893  0.17523368  1  0  -0.313821  0  3.284137  0  0  -0.233693  0  3.541628  0  0  -0.256171  0  3.565688  0  0  -0.304992  -0.218295  0  3.524722  0
N  N127  1  0.34451403  0.80328782  0.32476723  1  0  -0.31395  0  3.284225  0  0  -0.233744  0  3.541547  0  0  -0.256218  0  3.565604  0  0  -0.304894  -0.21833  0  3.52462  0
N  N128  1  0.15549217  0.80328257  0.82476750  1  0  -0.3139  0  3.28427  0  0  -0.233642  0  3.54163  0  0  -0.256126  0  3.5657  0  0  -0.304932  -0.218238  0  3.524715  0
N  N129  1  0.65549166  0.19670990  0.67523324  1  0  -0.313932  0  3.284194  0  0  -0.233637  0  3.541532  0  0  -0.256119  0  3.565592  0  0  -0.304905  -0.218219  0  3.524596  0
O  O130  1  0.73784546  0.73122558  0.04342118  1  0  -0.525741  0  1.954207  0  0  -0.47801  0  2.180618  0  0  -0.499594  0  2.175405  0  0  -0.28491  -0.463075  0  2.183822  0
O  O131  1  0.23785114  0.26877896  0.45657669  1  0  -0.526028  0  1.953829  0  0  -0.478165  0  2.180438  0  0  -0.499734  0  2.175245  0  0  -0.284991  -0.463242  0  2.183653  0
O  O132  1  0.26212877  0.26879588  0.95657537  1  0  -0.525908  0  1.953956  0  0  -0.478062  0  2.180495  0  0  -0.499641  0  2.175292  0  0  -0.284941  -0.46311  0  2.183659  0
O  O133  1  0.76216549  0.73122367  0.54341936  1  0  -0.525637  0  1.954102  0  0  -0.477931  0  2.180526  0  0  -0.499515  0  2.175309  0  0  -0.284892  -0.462999  0  2.183731  0
