# generated using pymatgen
data_H24Pb3C28(N2Cl3)2
_symmetry_space_group_name_H-M   'P 1'
_cell_length_a   7.34701063
_cell_length_b   10.38444247
_cell_length_c   10.80590368
_cell_angle_alpha   78.96840777
_cell_angle_beta   76.22166606
_cell_angle_gamma   87.32606897
_symmetry_Int_Tables_number   1
_chemical_formula_structural   H24Pb3C28(N2Cl3)2
_chemical_formula_sum   'H24 Pb3 C28 N4 Cl6'
_cell_volume   785.91253639
_cell_formula_units_Z   1
loop_
 _symmetry_equiv_pos_site_id
 _symmetry_equiv_pos_as_xyz
  1  'x, y, z'
loop_
 _atom_site_type_symbol
 _atom_site_label
 _atom_site_symmetry_multiplicity
 _atom_site_fract_x
 _atom_site_fract_y
 _atom_site_fract_z
 _atom_site_occupancy
 _atom_site_hle17_bader_spin_density
 _atom_site_hle17_ddec_charge
 _atom_site_hle17_ddec_spin_density
 _atom_site_hle17_ddec_sum_bond_order
 _atom_site_hle17_magmom
 _atom_site_hse06_10hf_bader_spin_density
 _atom_site_hse06_10hf_ddec_charge
 _atom_site_hse06_10hf_ddec_spin_density
 _atom_site_hse06_10hf_ddec_sum_bond_order
 _atom_site_hse06_10hf_magmom
 _atom_site_hse06_bader_spin_density
 _atom_site_hse06_ddec_charge
 _atom_site_hse06_ddec_spin_density
 _atom_site_hse06_ddec_sum_bond_order
 _atom_site_hse06_magmom
 _atom_site_pbe_bader_spin_density
 _atom_site_pbe_cm5_charge
 _atom_site_pbe_ddec_charge
 _atom_site_pbe_ddec_spin_density
 _atom_site_pbe_ddec_sum_bond_order
 _atom_site_pbe_magmom
H  H0  1  0.33571235  0.50438101  0.13083959  1  0  0.125562  0  0.962238  0  0  0.14506  0  1.027978  0  0  0.146612  0  1.027822  0  0  0.089869  0.144157  0  1.027973  0
H  H1  1  0.66429021  0.49562143  0.86916058  1  0  0.125551  0  0.962285  0  0  0.145073  0  1.028  0  0  0.146616  0  1.027853  0  0  0.089863  0.144166  0  1.028003  0
H  H2  1  0.31042576  0.49079382  0.97311333  1  0  0.129055  0  0.971766  0  0  0.149644  0  1.031211  0  0  0.15192  0  1.030373  0  0  0.087432  0.147747  0  1.032394  0
H  H3  1  0.68957681  0.50920665  0.02688720  1  0  0.12902  0  0.971788  0  0  0.14962  0  1.031221  0  0  0.151895  0  1.030383  0  0  0.087424  0.147724  0  1.032401  0
H  H4  1  0.11169049  0.52019088  0.09610680  1  0  0.122182  0  0.970347  0  0  0.141657  0  1.035756  0  0  0.143571  0  1.03496  0  0  0.086849  0.140188  0  1.036811  0
H  H5  1  0.88831068  0.47980862  0.90389414  1  0  0.122202  0  0.970329  0  0  0.141679  0  1.035738  0  0  0.143594  0  1.03494  0  0  0.08686  0.14021  0  1.036791  0
H  H6  1  0.46539065  0.67395902  0.82168782  1  0  0.115537  0  0.959279  0  0  0.123112  0  1.024169  0  0  0.126415  0  1.023283  0  0  0.101316  0.120897  0  1.024638  0
H  H7  1  0.53460771  0.32604144  0.17831156  1  0  0.115501  0  0.959296  0  0  0.123079  0  1.024192  0  0  0.126382  0  1.023306  0  0  0.101299  0.120864  0  1.024661  0
H  H8  1  0.50436695  0.91676189  0.75399154  1  0  0.104384  0  0.92049  0  0  0.121566  0  0.970223  0  0  0.123823  0  0.969158  0  0  0.113476  0.12005  0  0.970793  0
H  H9  1  0.49562998  0.08323955  0.24600604  1  0  0.104395  0  0.920507  0  0  0.121575  0  0.970238  0  0  0.123831  0  0.969173  0  0  0.113486  0.120058  0  0.970806  0
H  H10  1  0.42173156  0.14002529  0.80116776  1  0  0.103507  0  0.98725  0  0  0.109119  0  1.059519  0  0  0.112472  0  1.057581  0  0  0.088545  0.10667  0  1.061135  0
H  H11  1  0.57826539  0.85997516  0.19883000  1  0  0.103547  0  0.987288  0  0  0.109125  0  1.059603  0  0  0.112479  0  1.057667  0  0  0.088559  0.106675  0  1.061218  0
H  H12  1  0.25164820  0.28130927  0.95014302  1  0  0.101031  0  0.972395  0  0  0.110759  0  1.036555  0  0  0.113515  0  1.035672  0  0  0.095381  0.108423  0  1.037913  0
H  H13  1  0.74835017  0.71869120  0.04985820  1  0  0.101017  0  0.9724  0  0  0.110744  0  1.036561  0  0  0.1135  0  1.03568  0  0  0.095378  0.108407  0  1.037921  0
H  H14  1  0.04392450  0.30353484  0.16623403  1  0  0.104494  0  0.942957  0  0  0.116822  0  1.002511  0  0  0.119337  0  1.000776  0  0  0.106254  0.115084  0  1.003841  0
H  H15  1  0.95607666  0.69646367  0.83376525  1  0  0.104483  0  0.942957  0  0  0.116807  0  1.002522  0  0  0.119323  0  1.000785  0  0  0.106253  0.115066  0  1.003858  0
H  H16  1  0.84016913  0.19690574  0.37548912  1  0  0.111895  0  0.986401  0  0  0.11759  0  1.054598  0  0  0.120969  0  1.053689  0  0  0.094038  0.115118  0  1.055634  0
H  H17  1  0.15983345  0.80309376  0.62451252  1  0  0.111884  0  0.986382  0  0  0.117581  0  1.054586  0  0  0.120959  0  1.053675  0  0  0.094044  0.11511  0  1.05562  0
H  H18  1  0.66059349  0.88591501  0.43982958  1  0  0.127531  0  0.955122  0  0  0.14573  0  1.021716  0  0  0.147274  0  1.021561  0  0  0.088979  0.144242  0  1.022297  0
H  H19  1  0.33940768  0.11408448  0.56017229  1  0  0.127527  0  0.955098  0  0  0.145713  0  1.021711  0  0  0.147257  0  1.021556  0  0  0.08897  0.144226  0  1.022291  0
H  H20  1  0.71646992  0.00663265  0.52227254  1  0  0.12896  0  0.963966  0  0  0.146685  0  1.026957  0  0  0.149247  0  1.025523  0  0  0.085532  0.144491  0  1.028461  0
H  H21  1  0.28353125  0.99336782  0.47772915  1  0  0.128956  0  0.963966  0  0  0.146677  0  1.026967  0  0  0.14924  0  1.025532  0  0  0.085531  0.144483  0  1.028471  0
H  H22  1  0.84797275  0.85824257  0.51808155  1  0  0.117879  0  0.980273  0  0  0.137706  0  1.045155  0  0  0.138653  0  1.046222  0  0  0.08543  0.136586  0  1.044966  0
H  H23  1  0.15202841  0.14175888  0.48191810  1  0  0.117876  0  0.980248  0  0  0.137723  0  1.045111  0  0  0.138671  0  1.046177  0  0  0.085447  0.136597  0  1.044927  0
Pb  Pb24  1  0.50000058  0.50000024  0.49999992  1  0  1.099364  0  1.789453  0  0  0.932314  0  2.25653  0  0  0.986894  0  2.213285  0  0  0.409275  0.896038  0  2.281568  0
Pb  Pb25  1  0.03946903  0.67149339  0.33074008  1  0  1.133303  0  1.590985  0  0  0.94895  0  2.007816  0  0  1.005526  0  1.971264  0  0  0.513494  0.907726  0  2.034422  0
Pb  Pb26  1  0.96053073  0.32850708  0.66925999  1  0  1.133324  0  1.590966  0  0  0.948986  0  2.007777  0  0  1.005553  0  1.971241  0  0  0.513506  0.907766  0  2.034381  0
C  C27  1  0.26116056  0.54227046  0.05428208  1  0  -0.400558  0  3.700865  0  0  -0.481744  0  3.929359  0  0  -0.486152  0  3.936534  0  0  -0.24885  -0.478663  0  3.924675  0
C  C28  1  0.73884059  0.45773099  0.94571666  1  0  -0.40055  0  3.700969  0  0  -0.481757  0  3.929458  0  0  -0.486158  0  3.936642  0  0  -0.248848  -0.478675  0  3.924775  0
C  C29  1  0.28805761  0.68691941  0.01036972  1  0  0.337156  0  3.70902  0  0  0.345063  0  3.948958  0  0  0.356117  0  3.968285  0  0  0.134616  0.337691  0  3.935204  0
C  C30  1  0.71194495  0.31308105  0.98962804  1  0  0.337146  0  3.709062  0  0  0.345038  0  3.94904  0  0  0.356093  0  3.968367  0  0  0.134614  0.337668  0  3.935288  0
C  C31  1  0.39909251  0.73967841  0.88671348  1  0  -0.16361  0  3.689572  0  0  -0.180975  0  3.93743  0  0  -0.18934  0  3.958026  0  0  -0.082534  -0.175193  0  3.922559  0
C  C32  1  0.60090583  0.26032205  0.11328497  1  0  -0.163561  0  3.689515  0  0  -0.180924  0  3.937383  0  0  -0.189288  0  3.957979  0  0  -0.082508  -0.175145  0  3.922514  0
C  C33  1  0.41863534  0.87374811  0.84887719  1  0  -0.026344  0  3.695879  0  0  -0.051835  0  3.945288  0  0  -0.047851  0  3.962293  0  0  -0.059973  -0.05359  0  3.932368  0
C  C34  1  0.58136020  0.12625333  0.15112246  1  0  -0.026406  0  3.695946  0  0  -0.051904  0  3.945366  0  0  -0.047919  0  3.962368  0  0  -0.060015  -0.053656  0  3.932445  0
C  C35  1  0.32545258  0.95727046  0.93271884  1  0  0.018293  0  3.798226  0  0  0.033054  0  4.035246  0  0  0.030372  0  4.058816  0  0  -0.004674  0.035041  0  4.018673  0
C  C36  1  0.67454296  0.04272901  0.06727841  1  0  0.018333  0  3.798232  0  0  0.033106  0  4.035226  0  0  0.030424  0  4.058795  0  0  -0.004684  0.035094  0  4.018652  0
C  C37  1  0.33694307  0.09693185  0.89634919  1  0  -0.096767  0  3.737657  0  0  -0.123815  0  4.001626  0  0  -0.126687  0  4.02409  0  0  -0.090046  -0.121433  0  3.985798  0
C  C38  1  0.66305671  0.90306666  0.10365310  1  0  -0.096794  0  3.737677  0  0  -0.123782  0  4.001558  0  0  -0.126654  0  4.024021  0  0  -0.090026  -0.121399  0  3.985727  0
C  C39  1  0.24407405  0.17493682  0.97923817  1  0  -0.098476  0  3.747998  0  0  -0.123144  0  4.009159  0  0  -0.126738  0  4.032459  0  0  -0.090582  -0.12052  0  3.993438  0
C  C40  1  0.75592571  0.82506168  0.02076135  1  0  -0.098497  0  3.748008  0  0  -0.123167  0  4.009176  0  0  -0.126759  0  4.032478  0  0  -0.090608  -0.120542  0  3.993448  0
C  C41  1  0.13229195  0.11902294  0.10369531  1  0  0.019839  0  3.794872  0  0  0.033655  0  4.032977  0  0  0.03123  0  4.056705  0  0  -0.00559  0.034866  0  4.016847  0
C  C42  1  0.86770500  0.88097851  0.89630504  1  0  0.01989  0  3.794858  0  0  0.033693  0  4.032962  0  0  0.031267  0  4.056689  0  0  -0.005551  0.034904  0  4.01683  0
C  C43  1  0.03328189  0.19696372  0.19131663  1  0  -0.024453  0  3.684606  0  0  -0.050318  0  3.935293  0  0  -0.046571  0  3.952069  0  0  -0.061373  -0.052037  0  3.923798  0
C  C44  1  0.96672068  0.80303577  0.80868316  1  0  -0.02444  0  3.684597  0  0  -0.050307  0  3.935287  0  0  -0.046558  0  3.952062  0  0  -0.061386  -0.052027  0  3.923796  0
C  C45  1  0.92040946  0.13826760  0.30758016  1  0  -0.167609  0  3.70246  0  0  -0.183321  0  3.947784  0  0  -0.191509  0  3.968345  0  0  -0.086805  -0.178615  0  3.934549  0
C  C46  1  0.07959031  0.86173189  0.69242102  1  0  -0.16761  0  3.702447  0  0  -0.183317  0  3.947776  0  0  -0.191506  0  3.968334  0  0  -0.086811  -0.178612  0  3.934543  0
C  C47  1  0.90581321  0.00012540  0.33895479  1  0  0.333657  0  3.710541  0  0  0.340828  0  3.951147  0  0  0.351417  0  3.970546  0  0  0.133599  0.333832  0  3.937672  0
C  C48  1  0.09418795  0.99987409  0.66104523  1  0  0.333685  0  3.710472  0  0  0.340855  0  3.951086  0  0  0.351444  0  3.970483  0  0  0.133614  0.333859  0  3.937613  0
C  C49  1  0.77629093  0.93462138  0.46161328  1  0  -0.395097  0  3.693659  0  0  -0.470888  0  3.918004  0  0  -0.475169  0  3.925501  0  0  -0.247647  -0.467307  0  3.913612  0
C  C50  1  0.22371023  0.06537909  0.53838656  1  0  -0.395078  0  3.693578  0  0  -0.470869  0  3.917915  0  0  -0.475149  0  3.92541  0  0  -0.247656  -0.467285  0  3.913527  0
C  C51  1  0.11534718  0.98023845  0.14322295  1  0  0.13885  0  3.747703  0  0  0.12886  0  3.994481  0  0  0.134093  0  4.01569  0  0  0.117986  0.125629  0  3.979807  0
C  C52  1  0.88464976  0.01976398  0.85677721  1  0  0.138803  0  3.747786  0  0  0.12886  0  3.994479  0  0  0.134093  0  4.01569  0  0  0.117996  0.125629  0  3.979809  0
C  C53  1  0.21610779  0.89739576  0.05607913  1  0  0.139559  0  3.750538  0  0  0.130461  0  3.995141  0  0  0.136374  0  4.016226  0  0  0.118439  0.125745  0  3.981183  0
C  C54  1  0.78388775  0.10260469  0.94391978  1  0  0.139549  0  3.750638  0  0  0.130453  0  3.995196  0  0  0.136364  0  4.016283  0  0  0.118412  0.125736  0  3.981239  0
N  N55  1  0.20171756  0.76474157  0.09229105  1  0  -0.408039  0  3.158633  0  0  -0.340061  0  3.401983  0  0  -0.362146  0  3.423361  0  0  -0.293667  -0.324805  0  3.387464  0
N  N56  1  0.79827940  0.23525791  0.90770874  1  0  -0.407991  0  3.158667  0  0  -0.340019  0  3.402028  0  0  -0.362102  0  3.423406  0  0  -0.293621  -0.324765  0  3.387515  0
N  N57  1  0.00398966  0.92441318  0.25897157  1  0  -0.419673  0  3.176694  0  0  -0.352572  0  3.421249  0  0  -0.374437  0  3.44353  0  0  -0.299192  -0.337309  0  3.405566  0
N  N58  1  0.99600729  0.07558630  0.74102730  1  0  -0.419705  0  3.176726  0  0  -0.352625  0  3.421278  0  0  -0.374492  0  3.443564  0  0  -0.299217  -0.337361  0  3.405598  0
Cl  Cl59  1  0.76981313  0.52516590  0.25437827  1  0  -0.619075  0  0.861835  0  0  -0.545159  0  1.110198  0  0  -0.568239  0  1.09433  0  0  -0.27029  -0.528639  0  1.121629  0
Cl  Cl60  1  0.23019083  0.47483457  0.74562018  1  0  -0.619086  0  0.861837  0  0  -0.545162  0  1.11019  0  0  -0.568244  0  1.094324  0  0  -0.270297  -0.528641  0  1.121621  0
Cl  Cl61  1  0.21795010  0.40485317  0.39099036  1  0  -0.638712  0  0.913064  0  0  -0.557803  0  1.168391  0  0  -0.584742  0  1.154361  0  0  -0.251488  -0.5385  0  1.178562  0
Cl  Cl62  1  0.78205389  0.59514633  0.60901198  1  0  -0.638709  0  0.913029  0  0  -0.557802  0  1.168358  0  0  -0.584739  0  1.154321  0  0  -0.251504  -0.5385  0  1.178533  0
Cl  Cl63  1  0.35629784  0.75684085  0.40501182  1  0  -0.60394  0  0.902989  0  0  -0.530871  0  1.156802  0  0  -0.552834  0  1.139547  0  0  -0.253165  -0.515616  0  1.168834  0
Cl  Cl64  1  0.64370474  0.24315669  0.59499019  1  0  -0.603947  0  0.902988  0  0  -0.530881  0  1.156802  0  0  -0.552831  0  1.139526  0  0  -0.253158  -0.515625  0  1.168834  0
