# generated using pymatgen
data_ZnH12C7S2(NO)4
_symmetry_space_group_name_H-M   'P 1'
_cell_length_a   8.20512739
_cell_length_b   11.64191607
_cell_length_c   13.39600000
_cell_angle_alpha   90.00000000
_cell_angle_beta   90.00000000
_cell_angle_gamma   90.00000000
_symmetry_Int_Tables_number   1
_chemical_formula_structural   ZnH12C7S2(NO)4
_chemical_formula_sum   'Zn4 H48 C28 S8 N16 O16'
_cell_volume   1279.63152598
_cell_formula_units_Z   4
loop_
 _symmetry_equiv_pos_site_id
 _symmetry_equiv_pos_as_xyz
  1  'x, y, z'
loop_
 _atom_site_type_symbol
 _atom_site_label
 _atom_site_symmetry_multiplicity
 _atom_site_fract_x
 _atom_site_fract_y
 _atom_site_fract_z
 _atom_site_occupancy
 _atom_site_hle17_bader_spin_density
 _atom_site_hle17_ddec_charge
 _atom_site_hle17_ddec_spin_density
 _atom_site_hle17_ddec_sum_bond_order
 _atom_site_hle17_magmom
 _atom_site_hse06_10hf_bader_spin_density
 _atom_site_hse06_10hf_ddec_charge
 _atom_site_hse06_10hf_ddec_spin_density
 _atom_site_hse06_10hf_ddec_sum_bond_order
 _atom_site_hse06_10hf_magmom
 _atom_site_hse06_bader_spin_density
 _atom_site_hse06_ddec_charge
 _atom_site_hse06_ddec_spin_density
 _atom_site_hse06_ddec_sum_bond_order
 _atom_site_hse06_magmom
 _atom_site_pbe_bader_charge
 _atom_site_pbe_bader_spin_density
 _atom_site_pbe_cm5_charge
 _atom_site_pbe_ddec_charge
 _atom_site_pbe_ddec_spin_density
 _atom_site_pbe_ddec_sum_bond_order
 _atom_site_pbe_magmom
Zn  Zn0  1  0.22271562  0.89668745  0.82449463  1  0  0.815441  0  2.102728  0  0  0.657457  0  2.575943  0  0  0.700615  0  2.527586  0  1.059587  0  0.524089  0.627545  0  2.609009  0
Zn  Zn1  1  0.27728272  0.10331289  0.32449313  1  0  0.815526  0  2.102693  0  0  0.657524  0  2.575914  0  0  0.700681  0  2.527555  0  1.059468  0  0.52412  0.627617  0  2.608982  0
Zn  Zn2  1  0.72271760  0.60331220  0.17550537  1  0  0.815526  0  2.102719  0  0  0.657486  0  2.575926  0  0  0.70064  0  2.527571  0  1.05948  0  0.524098  0.627574  0  2.60899  0
Zn  Zn3  1  0.77728348  0.39668814  0.67550537  1  0  0.815481  0  2.102655  0  0  0.657483  0  2.575862  0  0  0.700641  0  2.527505  0  1.059492  0  0.524096  0.62757  0  2.60893  0
H  H4  1  0.20997846  0.90689797  0.14836966  1  0  0.342279  0  0.886951  0  0  0.322269  0  0.953733  0  0  0.330237  0  0.946968  0  0.510906  0  0.301829  0.316603  0  0.958637  0
H  H5  1  0.29002109  0.09310151  0.64837041  1  0  0.342288  0  0.886992  0  0  0.322274  0  0.953776  0  0  0.330242  0  0.947012  0  0.510895  0  0.301824  0.316608  0  0.95868  0
H  H6  1  0.70997801  0.59310254  0.85163034  1  0  0.34222  0  0.886913  0  0  0.322217  0  0.953697  0  0  0.330185  0  0.946935  0  0.510902  0  0.301804  0.31655  0  0.958602  0
H  H7  1  0.79002186  0.40689780  0.35163034  1  0  0.342276  0  0.88695  0  0  0.322267  0  0.95373  0  0  0.330235  0  0.946965  0  0.510902  0  0.301826  0.316602  0  0.958635  0
H  H8  1  0.28204437  0.93531167  0.02763810  1  0  0.342294  0  0.925194  0  0  0.319816  0  0.993224  0  0  0.328208  0  0.986281  0  0.523759  0  0.298949  0.313921  0  0.998093  0
H  H9  1  0.21795518  0.06468866  0.52763810  1  0  0.342308  0  0.925205  0  0  0.31983  0  0.993232  0  0  0.328221  0  0.986289  0  0.523753  0  0.29896  0.313936  0  0.9981  0
H  H10  1  0.78204392  0.56468883  0.97236115  1  0  0.342311  0  0.925178  0  0  0.319818  0  0.993223  0  0  0.328209  0  0.986283  0  0.523766  0  0.29896  0.313923  0  0.998091  0
H  H11  1  0.71795595  0.43531150  0.47236190  1  0  0.342313  0  0.925195  0  0  0.319838  0  0.993215  0  0  0.328229  0  0.986273  0  0.523755  0  0.298957  0.313943  0  0.998085  0
H  H12  1  0.07136879  0.74315258  0.18251418  1  0  0.338179  0  0.892144  0  0  0.319077  0  0.956583  0  0  0.326526  0  0.950562  0  0.474742  0  0.309001  0.313799  0  0.960931  0
H  H13  1  0.42863198  0.25684775  0.68251493  1  0  0.338139  0  0.89221  0  0  0.319032  0  0.956652  0  0  0.326479  0  0.950636  0  0.474719  0  0.308987  0.313755  0  0.960998  0
H  H14  1  0.57136834  0.75684792  0.81748507  1  0  0.338138  0  0.892214  0  0  0.319037  0  0.956647  0  0  0.326483  0  0.950632  0  0.47472  0  0.308989  0.313759  0  0.960994  0
H  H15  1  0.92863153  0.24315241  0.31748582  1  0  0.338144  0  0.892241  0  0  0.319042  0  0.956674  0  0  0.326489  0  0.950657  0  0.474743  0  0.308996  0.313765  0  0.96102  0
H  H16  1  0.02941332  0.64249733  0.08923858  1  0  0.342053  0  0.905177  0  0  0.320867  0  0.971534  0  0  0.328715  0  0.965051  0  0.512191  0  0.300907  0.31531  0  0.976223  0
H  H17  1  0.47058623  0.35750215  0.58923858  1  0  0.342043  0  0.905188  0  0  0.320871  0  0.971528  0  0  0.328719  0  0.965045  0  0.512202  0  0.300923  0.315314  0  0.976218  0
H  H18  1  0.52941287  0.85750232  0.91076067  1  0  0.342045  0  0.905184  0  0  0.320873  0  0.971524  0  0  0.328721  0  0.965039  0  0.512204  0  0.300922  0.315315  0  0.976214  0
H  H19  1  0.97058578  0.14249802  0.41076142  1  0  0.342027  0  0.905214  0  0  0.320853  0  0.971556  0  0  0.328701  0  0.96507  0  0.512201  0  0.300915  0.315297  0  0.976244  0
H  H20  1  0.60856094  0.94930765  0.71771574  1  0  0.346309  0  0.906517  0  0  0.325823  0  0.970258  0  0  0.334539  0  0.963098  0  0.518726  0  0.301193  0.319696  0  0.975304  0
H  H21  1  0.89143649  0.05069526  0.21771798  1  0  0.346343  0  0.906557  0  0  0.32586  0  0.970281  0  0  0.334574  0  0.963125  0  0.518774  0  0.301208  0.319733  0  0.975325  0
H  H22  1  0.10856504  0.55069457  0.28228352  1  0  0.346318  0  0.906427  0  0  0.32584  0  0.970149  0  0  0.334553  0  0.962993  0  0.518774  0  0.30119  0.319715  0  0.975194  0
H  H23  1  0.39143816  0.44930491  0.78228277  1  0  0.346306  0  0.906547  0  0  0.325823  0  0.970273  0  0  0.334538  0  0.963117  0  0.518759  0  0.301189  0.319697  0  0.975318  0
H  H24  1  0.71630941  0.07310738  0.75600105  1  0  0.348334  0  0.886518  0  0  0.328376  0  0.951234  0  0  0.335693  0  0.945643  0  0.504579  0  0.301758  0.323174  0  0.955307  0
H  H25  1  0.78368802  0.92689381  0.25600328  1  0  0.348339  0  0.88655  0  0  0.328349  0  0.951303  0  0  0.335686  0  0.945684  0  0.504575  0  0.301758  0.323149  0  0.95537  0
H  H26  1  0.21631474  0.42689193  0.24399895  1  0  0.348417  0  0.886554  0  0  0.328461  0  0.951254  0  0  0.335779  0  0.94566  0  0.504562  0  0.301781  0.323259  0  0.955329  0
H  H27  1  0.28368847  0.57310755  0.74399746  1  0  0.348337  0  0.886547  0  0  0.328376  0  0.95127  0  0  0.335693  0  0.945679  0  0.504563  0  0.301747  0.323174  0  0.955344  0
H  H28  1  0.77272414  0.77263828  0.69952001  1  0  0.34362  0  0.904779  0  0  0.324243  0  0.967563  0  0  0.332141  0  0.961771  0  0.50679  0  0.302738  0.318694  0  0.971618  0
H  H29  1  0.72727451  0.22736206  0.19952150  1  0  0.343628  0  0.904794  0  0  0.324256  0  0.967571  0  0  0.332155  0  0.961777  0  0.506802  0  0.302755  0.318708  0  0.971626  0
H  H30  1  0.27272703  0.72736223  0.30047999  1  0  0.343597  0  0.904766  0  0  0.324233  0  0.967531  0  0  0.332131  0  0.961737  0  0.506811  0  0.302744  0.318686  0  0.971588  0
H  H31  1  0.22727496  0.27263897  0.80047925  1  0  0.343618  0  0.904739  0  0  0.324245  0  0.967515  0  0  0.332143  0  0.961721  0  0.506801  0  0.30274  0.318696  0  0.971572  0
H  H32  1  0.98369710  0.78484246  0.71166169  1  0  0.337666  0  0.901352  0  0  0.317  0  0.97161  0  0  0.324362  0  0.965379  0  0.502257  0  0.300235  0.31172  0  0.976213  0
H  H33  1  0.51630277  0.21515960  0.21166318  1  0  0.337729  0  0.901388  0  0  0.317064  0  0.971634  0  0  0.324426  0  0.965401  0  0.502234  0  0.300261  0.311785  0  0.976237  0
H  H34  1  0.48369877  0.71515805  0.28833682  1  0  0.337737  0  0.901361  0  0  0.317077  0  0.9716  0  0  0.324439  0  0.965365  0  0.502245  0  0.300273  0.3118  0  0.97621  0
H  H35  1  0.01630444  0.28484229  0.78833682  1  0  0.337707  0  0.901364  0  0  0.31704  0  0.971621  0  0  0.324403  0  0.965389  0  0.502267  0  0.300264  0.311761  0  0.976223  0
H  H36  1  0.54378315  0.65173035  0.46397880  1  0  0.121122  0  0.933772  0  0  0.135826  0  0.993597  0  0  0.137809  0  0.993687  0  0.059456  0  0.104746  0.134445  0  0.993562  0
H  H37  1  0.95622647  0.34827343  0.96397955  1  0  0.121177  0  0.933675  0  0  0.135865  0  0.993508  0  0  0.137852  0  0.993595  0  0.059365  0  0.104764  0.134487  0  0.99348  0
H  H38  1  0.04378360  0.84827016  0.53602045  1  0  0.121117  0  0.933781  0  0  0.13582  0  0.993599  0  0  0.137804  0  0.993689  0  0.059466  0  0.104736  0.134438  0  0.993565  0
H  H39  1  0.45621595  0.15173018  0.03602120  1  0  0.121134  0  0.933746  0  0  0.135842  0  0.99357  0  0  0.137826  0  0.993659  0  0.059453  0  0.104744  0.134457  0  0.993535  0
H  H40  1  0.36769082  0.61148268  0.53092192  1  0  0.12606  0  0.916646  0  0  0.143302  0  0.972025  0  0  0.145624  0  0.970602  0  0.082463  0  0.109208  0.141629  0  0.973104  0
H  H41  1  0.13231726  0.38851680  0.03092490  1  0  0.126033  0  0.916694  0  0  0.143279  0  0.97207  0  0  0.145605  0  0.970648  0  0.082392  0  0.109174  0.141624  0  0.973136  0
H  H42  1  0.86768915  0.88851611  0.46907808  1  0  0.126034  0  0.916661  0  0  0.143278  0  0.972038  0  0  0.1456  0  0.970615  0  0.082471  0  0.1092  0.141606  0  0.973115  0
H  H43  1  0.63230828  0.11148251  0.96907883  1  0  0.126043  0  0.916674  0  0  0.143295  0  0.972046  0  0  0.145618  0  0.970624  0  0.082483  0  0.109206  0.141617  0  0.973126  0
H  H44  1  0.49725371  0.95801584  0.53838982  1  0  0.127372  0  0.981863  0  0  0.137113  0  1.049205  0  0  0.140771  0  1.047044  0  0.114078  0  0.091301  0.134526  0  1.050717  0
H  H45  1  0.00274097  0.04198364  0.03838907  1  0  0.127329  0  0.981867  0  0  0.137076  0  1.049198  0  0  0.140738  0  1.047032  0  0.114102  0  0.091297  0.13449  0  1.050714  0
H  H46  1  0.99725447  0.54198381  0.46161018  1  0  0.127362  0  0.98187  0  0  0.137103  0  1.049212  0  0  0.140762  0  1.04705  0  0.114072  0  0.091296  0.134515  0  1.050725  0
H  H47  1  0.50274539  0.45801481  0.96160944  1  0  0.12736  0  0.981864  0  0  0.137111  0  1.049195  0  0  0.140767  0  1.047039  0  0.114093  0  0.091322  0.134524  0  1.050707  0
H  H48  1  0.58462956  0.85601717  0.44500896  1  0  0.133967  0  0.997197  0  0  0.141947  0  1.066028  0  0  0.145872  0  1.063569  0  0.083704  0  0.08903  0.13903  0  1.06798  0
H  H49  1  0.91537031  0.14398661  0.94500672  1  0  0.133992  0  0.997084  0  0  0.141942  0  1.065956  0  0  0.145889  0  1.063473  0  0.083691  0  0.089037  0.139025  0  1.067906  0
H  H50  1  0.08463001  0.64398248  0.55499179  1  0  0.133954  0  0.9972  0  0  0.141937  0  1.066027  0  0  0.145861  0  1.063571  0  0.083735  0  0.089026  0.139019  0  1.067981  0
H  H51  1  0.41536954  0.35601700  0.05499104  1  0  0.133978  0  0.997191  0  0  0.141965  0  1.066019  0  0  0.145883  0  1.063568  0  0.083338  0  0.089034  0.139047  0  1.067974  0
C  C52  1  0.15349061  0.78588953  0.04332562  1  0  0.607328  0  3.821811  0  0  0.565967  0  4.111656  0  0  0.594161  0  4.116142  0  1.05796  0  0.252121  0.546914  0  4.107921  0
C  C53  1  0.34650894  0.21411080  0.54332562  1  0  0.607386  0  3.821749  0  0  0.566006  0  4.111627  0  0  0.594211  0  4.116102  0  1.057962  0  0.25213  0.546953  0  4.107895  0
C  C54  1  0.65349016  0.71411097  0.95667438  1  0  0.607353  0  3.821752  0  0  0.565991  0  4.111608  0  0  0.594194  0  4.116084  0  1.057957  0  0.252147  0.546936  0  4.107875  0
C  C55  1  0.84650971  0.28588851  0.45667438  1  0  0.607336  0  3.821767  0  0  0.565965  0  4.111634  0  0  0.594168  0  4.116107  0  1.05796  0  0.252134  0.546911  0  4.107902  0
C  C56  1  0.86101405  0.93521375  0.73457226  1  0  0.602842  0  3.839385  0  0  0.56009  0  4.130273  0  0  0.587978  0  4.135228  0  1.067795  0  0.255131  0.541272  0  4.126182  0
C  C57  1  0.63898338  0.06478745  0.23457375  1  0  0.60283  0  3.839444  0  0  0.560103  0  4.130297  0  0  0.587991  0  4.13525  0  1.0678  0  0.255148  0.541285  0  4.126209  0
C  C58  1  0.36101816  0.56478675  0.26542849  1  0  0.602927  0  3.839342  0  0  0.560163  0  4.130265  0  0  0.588051  0  4.135218  0  1.067944  0  0.255132  0.541346  0  4.126174  0
C  C59  1  0.13898383  0.43521444  0.76542923  1  0  0.602924  0  3.839307  0  0  0.56017  0  4.130211  0  0  0.588058  0  4.135163  0  1.068065  0  0.25516  0.541351  0  4.126122  0
C  C60  1  0.35794082  0.79959948  0.65839878  1  0  0.629874  0  3.902779  0  0  0.574706  0  4.199508  0  0  0.609048  0  4.191849  0  1.527977  0  0.199588  0.551478  0  4.203966  0
C  C61  1  0.14205873  0.20039914  0.15840176  1  0  0.629834  0  3.902825  0  0  0.574601  0  4.199629  0  0  0.608945  0  4.191969  0  1.528063  0  0.199538  0.551376  0  4.204082  0
C  C62  1  0.85794159  0.70039931  0.34159973  1  0  0.62982  0  3.902783  0  0  0.57463  0  4.19953  0  0  0.608972  0  4.191871  0  1.528001  0  0.199535  0.551404  0  4.203988  0
C  C63  1  0.64205828  0.29959931  0.84159973  1  0  0.629916  0  3.902694  0  0  0.574724  0  4.19945  0  0  0.609066  0  4.19179  0  1.527993  0  0.199586  0.551497  0  4.203908  0
C  C64  1  0.45697158  0.78092557  0.56614213  1  0  0.008967  0  3.785711  0  0  0.038124  0  4.024852  0  0  0.031251  0  4.048476  0  -0.02573  0  -0.029617  0.042345  0  4.009094  0
C  C65  1  0.04303041  0.21907648  0.06614213  1  0  0.008962  0  3.785503  0  0  0.038118  0  4.024666  0  0  0.031235  0  4.048315  0  -0.025756  0  -0.029628  0.042345  0  4.008916  0
C  C66  1  0.95697113  0.71907407  0.43385638  1  0  0.00909  0  3.785511  0  0  0.038224  0  4.02469  0  0  0.031358  0  4.048303  0  -0.02573  0  -0.029591  0.042444  0  4.008933  0
C  C67  1  0.54302752  0.28092455  0.93385712  1  0  0.008994  0  3.785651  0  0  0.038145  0  4.024828  0  0  0.031276  0  4.048447  0  -0.025726  0  -0.029619  0.042362  0  4.009067  0
C  C68  1  0.48390717  0.65836242  0.53702001  1  0  -0.303698  0  3.730596  0  0  -0.350504  0  3.972493  0  0  -0.355927  0  3.98188  0  -0.02173  0  -0.164596  -0.346639  0  3.966039  0
C  C69  1  0.01609725  0.34164050  0.03702150  1  0  -0.303778  0  3.730595  0  0  -0.350565  0  3.972473  0  0  -0.355999  0  3.981868  0  -0.021973  0  -0.164604  -0.346732  0  3.966049  0
C  C70  1  0.98390794  0.84163723  0.46297925  1  0  -0.303708  0  3.730594  0  0  -0.350517  0  3.972506  0  0  -0.355942  0  3.981894  0  -0.0221  0  -0.164581  -0.34665  0  3.966051  0
C  C71  1  0.51609071  0.15836139  0.96297925  1  0  -0.303702  0  3.730589  0  0  -0.350513  0  3.972468  0  0  -0.35594  0  3.981857  0  -0.022113  0  -0.164574  -0.346631  0  3.965998  0
C  C72  1  0.58754725  0.59433086  0.61302628  1  0  0.724056  0  3.782938  0  0  0.670986  0  4.087095  0  0  0.70405  0  4.080008  0  1.568589  0  0.22107  0.648575  0  4.09107  0
C  C73  1  0.91245750  0.40567034  0.11302702  1  0  0.724212  0  3.782846  0  0  0.67111  0  4.086999  0  0  0.704175  0  4.079906  0  1.568891  0  0.221139  0.648706  0  4.090977  0
C  C74  1  0.08754770  0.90566965  0.38697447  1  0  0.724027  0  3.782945  0  0  0.670961  0  4.087113  0  0  0.704023  0  4.080024  0  1.568991  0  0.221047  0.64855  0  4.091084  0
C  C75  1  0.41245063  0.09432983  0.88697372  1  0  0.724144  0  3.782893  0  0  0.67107  0  4.087068  0  0  0.704134  0  4.079979  0  1.568954  0  0.221093  0.648656  0  4.091041  0
C  C76  1  0.51759586  0.86976061  0.51433040  1  0  -0.254444  0  3.544359  0  0  -0.311435  0  3.779466  0  0  -0.312166  0  3.792201  0  -0.118247  0  -0.17368  -0.31062  0  3.771047  0
C  C77  1  0.98240157  0.13024145  0.01433040  1  0  -0.254405  0  3.544151  0  0  -0.311372  0  3.779298  0  0  -0.312121  0  3.792004  0  -0.118207  0  -0.173659  -0.310558  0  3.770878  0
C  C78  1  0.01759631  0.63023904  0.48566960  1  0  -0.254473  0  3.544251  0  0  -0.311455  0  3.779359  0  0  -0.312187  0  3.792093  0  -0.118268  0  -0.173685  -0.310638  0  3.770941  0
C  C79  1  0.48240324  0.36975958  0.98566886  1  0  -0.254439  0  3.544344  0  0  -0.311447  0  3.779451  0  0  -0.312173  0  3.792193  0  -0.117866  0  -0.173684  -0.310632  0  3.771035  0
S  S80  1  0.15968308  0.73861123  0.92130487  1  0  -0.435107  0  2.052797  0  0  -0.40572  0  2.403397  0  0  -0.424656  0  2.391248  0  -0.245518  0  -0.188791  -0.392689  0  2.411428  0
S  S81  1  0.34031525  0.26138824  0.42130487  1  0  -0.435151  0  2.052811  0  0  -0.405756  0  2.403422  0  0  -0.424696  0  2.391268  0  -0.245489  0  -0.188791  -0.392724  0  2.411453  0
S  S82  1  0.65968263  0.76138927  0.07869513  1  0  -0.435134  0  2.052791  0  0  -0.405752  0  2.403403  0  0  -0.424691  0  2.39125  0  -0.245516  0  -0.188801  -0.39272  0  2.411433  0
S  S83  1  0.84031602  0.23861021  0.57869513  1  0  -0.435111  0  2.052759  0  0  -0.405718  0  2.403356  0  0  -0.424657  0  2.391202  0  -0.245512  0  -0.188788  -0.392684  0  2.411387  0
S  S84  1  0.03079903  0.01808036  0.75977008  1  0  -0.438158  0  2.127053  0  0  -0.40604  0  2.497795  0  0  -0.423678  0  2.482741  0  -0.250137  0  -0.17624  -0.393813  0  2.507873  0
S  S85  1  0.46919808  0.98192084  0.25976859  1  0  -0.438166  0  2.127085  0  0  -0.406071  0  2.497859  0  0  -0.423706  0  2.482799  0  -0.250134  0  -0.176244  -0.393842  0  2.507938  0
S  S86  1  0.53080102  0.48191895  0.24023067  1  0  -0.438152  0  2.127092  0  0  -0.40602  0  2.497832  0  0  -0.423657  0  2.482778  0  -0.250183  0  -0.176195  -0.39379  0  2.507907  0
S  S87  1  0.96920007  0.51808138  0.74023291  1  0  -0.438176  0  2.127056  0  0  -0.406054  0  2.497809  0  0  -0.423695  0  2.482757  0  -0.25045  0  -0.176225  -0.393824  0  2.507885  0
N  N88  1  0.21012836  0.88725687  0.07407883  1  0  -0.668201  0  3.134414  0  0  -0.62349  0  3.369261  0  0  -0.644908  0  3.3646  0  -1.313529  0  -0.566138  -0.608937  0  3.372407  0
N  N89  1  0.28986997  0.11274261  0.57407958  1  0  -0.668275  0  3.13449  0  0  -0.623553  0  3.369344  0  0  -0.644963  0  3.364653  0  -1.313522  0  -0.566154  -0.608998  0  3.372489  0
N  N90  1  0.71012913  0.61274364  0.92592117  1  0  -0.668144  0  3.134325  0  0  -0.623446  0  3.369204  0  0  -0.644849  0  3.364503  0  -1.313527  0  -0.566133  -0.608893  0  3.372349  0
N  N91  1  0.78987073  0.38725670  0.42592117  1  0  -0.668228  0  3.134403  0  0  -0.623517  0  3.369265  0  0  -0.644936  0  3.364595  0  -1.313513  0  -0.56615  -0.608963  0  3.372412  0
N  N92  1  0.08784873  0.71548274  0.11111153  1  0  -0.662481  0  3.130629  0  0  -0.618264  0  3.36646  0  0  -0.639165  0  3.36271  0  -1.294814  0  -0.572463  -0.604067  0  3.368981  0
N  N93  1  0.41215082  0.28451674  0.61111227  1  0  -0.662446  0  3.13065  0  0  -0.618225  0  3.366495  0  0  -0.63913  0  3.362745  0  -1.294797  0  -0.57246  -0.604028  0  3.369019  0
N  N94  1  0.58784950  0.78451691  0.88888773  1  0  -0.662457  0  3.130676  0  0  -0.618236  0  3.366502  0  0  -0.639142  0  3.362751  0  -1.29481  0  -0.572471  -0.60404  0  3.369026  0
N  N95  1  0.91215159  0.21548257  0.38888847  1  0  -0.66245  0  3.130749  0  0  -0.618228  0  3.36659  0  0  -0.639131  0  3.362835  0  -1.294825  0  -0.57247  -0.604031  0  3.369113  0
N  N96  1  0.71738192  0.98888017  0.73476709  1  0  -0.649656  0  3.08366  0  0  -0.601782  0  3.310507  0  0  -0.623  0  3.306067  0  -1.299106  0  -0.558662  -0.587357  0  3.313512  0
N  N97  1  0.78261673  0.01112102  0.23476784  1  0  -0.649682  0  3.08367  0  0  -0.601795  0  3.31056  0  0  -0.623034  0  3.306084  0  -1.299123  0  -0.558686  -0.587369  0  3.313563  0
N  N98  1  0.21738480  0.51112033  0.26523216  1  0  -0.649814  0  3.083493  0  0  -0.601967  0  3.310396  0  0  -0.623184  0  3.305946  0  -1.299237  0  -0.558718  -0.587541  0  3.313403  0
N  N99  1  0.28261840  0.48888001  0.76523365  1  0  -0.64968  0  3.083635  0  0  -0.601809  0  3.310484  0  0  -0.623026  0  3.306042  0  -1.299101  0  -0.558645  -0.587383  0  3.313488  0
N  N100  1  0.87227165  0.82357319  0.71300164  1  0  -0.66496  0  3.129969  0  0  -0.62013  0  3.363635  0  0  -0.641909  0  3.361005  0  -1.318208  0  -0.561062  -0.605262  0  3.365357  0
N  N101  1  0.62772700  0.17642714  0.21300090  1  0  -0.665027  0  3.130086  0  0  -0.620203  0  3.36373  0  0  -0.641981  0  3.361096  0  -1.318214  0  -0.56111  -0.605335  0  3.365452  0
N  N102  1  0.37227454  0.67642731  0.28699910  1  0  -0.665026  0  3.130057  0  0  -0.620184  0  3.363687  0  0  -0.641961  0  3.361054  0  -1.318218  0  -0.561111  -0.605325  0  3.36541  0
N  N103  1  0.12772745  0.32357388  0.78699985  1  0  -0.665037  0  3.129958  0  0  -0.62021  0  3.363627  0  0  -0.641987  0  3.360991  0  -1.318214  0  -0.561131  -0.605342  0  3.365351  0
O  O104  1  0.39723088  0.88541525  0.71499030  1  0  -0.638734  0  2.107385  0  0  -0.55699  0  2.361553  0  0  -0.585698  0  2.349603  0  -1.184893  0  -0.322759  -0.537091  0  2.369212  0
O  O105  1  0.10276257  0.11458251  0.21499104  1  0  -0.638705  0  2.107522  0  0  -0.556911  0  2.36166  0  0  -0.585614  0  2.349709  0  -1.184958  0  -0.322682  -0.537015  0  2.369323  0
O  O106  1  0.89723287  0.61458354  0.28500896  1  0  -0.638716  0  2.107448  0  0  -0.55694  0  2.361589  0  0  -0.585646  0  2.349642  0  -1.184945  0  -0.322686  -0.537041  0  2.369249  0
O  O107  1  0.60276822  0.38541594  0.78501045  1  0  -0.638792  0  2.107417  0  0  -0.557008  0  2.361554  0  0  -0.585714  0  2.349606  0  -1.184917  0  -0.322754  -0.53711  0  2.369214  0
O  O108  1  0.24047159  0.73342738  0.67884070  1  0  -0.636988  0  1.964129  0  0  -0.575624  0  2.194696  0  0  -0.599913  0  2.18496  0  -1.192847  0  -0.316354  -0.558641  0  2.200932  0
O  O109  1  0.25952796  0.26657038  0.17884518  1  0  -0.637005  0  1.964183  0  0  -0.57561  0  2.194763  0  0  -0.599897  0  2.185025  0  -1.192882  0  -0.316364  -0.558631  0  2.201002  0
O  O110  1  0.74047114  0.76657227  0.32115855  1  0  -0.637038  0  1.964144  0  0  -0.575639  0  2.194676  0  0  -0.59993  0  2.184943  0  -1.192841  0  -0.316383  -0.558658  0  2.200914  0
O  O111  1  0.75952751  0.23342635  0.82115781  1  0  -0.637019  0  1.964096  0  0  -0.575647  0  2.19466  0  0  -0.599939  0  2.18493  0  -1.192857  0  -0.316364  -0.558664  0  2.200895  0
O  O112  1  0.62570753  0.49051719  0.58701627  1  0  -0.655627  0  2.123365  0  0  -0.567884  0  2.376439  0  0  -0.597577  0  2.364178  0  -1.203309  0  -0.323391  -0.547142  0  2.384104  0
O  O113  1  0.87429477  0.50948400  0.08701627  1  0  -0.655837  0  2.12351  0  0  -0.567938  0  2.376421  0  0  -0.597638  0  2.364177  0  -1.203322  0  -0.323435  -0.547203  0  2.384101  0
O  O114  1  0.12570554  0.00948212  0.41298298  1  0  -0.655579  0  2.123405  0  0  -0.567812  0  2.376427  0  0  -0.59752  0  2.364208  0  -1.203446  0  -0.323367  -0.54708  0  2.384109  0
O  O115  1  0.37429035  0.99051650  0.91298373  1  0  -0.655622  0  2.123409  0  0  -0.567886  0  2.376483  0  0  -0.597582  0  2.364233  0  -1.203457  0  -0.323379  -0.547141  0  2.384143  0
O  O116  1  0.63044969  0.64020561  0.69382652  1  0  -0.629678  0  1.940688  0  0  -0.565131  0  2.156876  0  0  -0.589009  0  2.148787  0  -1.207374  0  -0.309161  -0.548424  0  2.161877  0
O  O117  1  0.86955140  0.35979301  0.19382577  1  0  -0.629692  0  1.940592  0  0  -0.565168  0  2.156802  0  0  -0.589045  0  2.148714  0  -1.207305  0  -0.309191  -0.548462  0  2.161802  0
O  O118  1  0.13045136  0.85979404  0.30617274  1  0  -0.629707  0  1.940662  0  0  -0.565173  0  2.156863  0  0  -0.589047  0  2.148772  0  -1.207308  0  -0.309169  -0.548465  0  2.161863  0
O  O119  1  0.36954941  0.14020458  0.80617274  1  0  -0.629789  0  1.940689  0  0  -0.565216  0  2.156852  0  0  -0.589094  0  2.148764  0  -1.207376  0  -0.309211  -0.548511  0  2.161856  0
