# generated using pymatgen
data_Zr3H18C26N5(O8F)2
_symmetry_space_group_name_H-M   'P 1'
_cell_length_a   14.77488418
_cell_length_b   14.76126642
_cell_length_c   14.75953517
_cell_angle_alpha   60.34237782
_cell_angle_beta   60.09287704
_cell_angle_gamma   60.23142913
_symmetry_Int_Tables_number   1
_chemical_formula_structural   Zr3H18C26N5(O8F)2
_chemical_formula_sum   'Zr6 H36 C52 N10 O32 F4'
_cell_volume   2287.60424076
_cell_formula_units_Z   2
loop_
 _symmetry_equiv_pos_site_id
 _symmetry_equiv_pos_as_xyz
  1  'x, y, z'
loop_
 _atom_site_type_symbol
 _atom_site_label
 _atom_site_symmetry_multiplicity
 _atom_site_fract_x
 _atom_site_fract_y
 _atom_site_fract_z
 _atom_site_occupancy
 _atom_site_pbe_bader_charge
 _atom_site_pbe_bader_spin_density
 _atom_site_pbe_cm5_charge
 _atom_site_pbe_ddec_charge
 _atom_site_pbe_ddec_spin_density
 _atom_site_pbe_ddec_sum_bond_order
 _atom_site_pbe_magmom
Zr  Zr0  1  0.87938153  0.88499762  0.61809340  1  2.629887  0  1.628939  2.359233  0  2.791768  0
Zr  Zr1  1  0.12161943  0.11795180  0.38642972  1  2.626645  0  1.629173  2.362635  0  2.78491  0
Zr  Zr2  1  0.11801080  0.88061217  0.62428366  1  2.631077  0  1.627726  2.371343  0  2.75453  0
Zr  Zr3  1  0.88247743  0.12240295  0.38116908  1  2.631984  0  1.627605  2.368977  0  2.758756  0
Zr  Zr4  1  0.11969057  0.88246096  0.38305395  1  2.626829  0  1.625885  2.361111  0  2.779355  0
Zr  Zr5  1  0.88094390  0.12071833  0.62210492  1  2.632312  0  1.625439  2.364181  0  2.760931  0
H  H6  1  0.09350829  0.71962390  0.59198397  1  0.61536  0  0.328832  0.420066  0  0.865371  0
H  H7  1  0.09983595  0.09130422  0.22048951  1  0.621212  0  0.329545  0.420551  0  0.864469  0
H  H8  1  0.09232116  0.09428315  0.60155848  1  0.613037  0  0.336162  0.432816  0  0.843499  0
H  H9  1  0.71865633  0.09779369  0.59369629  1  0.620481  0  0.334783  0.427552  0  0.849573  0
H  H10  1  0.13590938  0.59667368  0.35800715  1  0.054355  0  0.101515  0.11248  0  1.01931  0
H  H11  1  0.83103674  0.44256275  0.60539859  1  0.09969  0  0.099842  0.108013  0  1.019945  0
H  H12  1  0.59243806  0.13960099  0.91171141  1  0.074866  0  0.102247  0.114013  0  1.020115  0
H  H13  1  0.40995571  0.86000179  0.09456475  1  0.076955  0  0.101082  0.112871  0  1.019165  0
H  H14  1  0.83031347  0.10453363  0.12835239  1  0.044776  0  0.100139  0.109865  0  1.017858  0
H  H15  1  0.13219084  0.85443019  0.91754573  1  0.108558  0  0.10555  0.118992  0  1.0094  0
H  H16  1  0.59297820  0.41055701  0.36147544  1  0.062213  0  0.104634  0.118576  0  1.01034  0
H  H17  1  0.41061796  0.59463578  0.64080105  1  0.067419  0  0.102613  0.115101  0  1.011852  0
H  H18  1  0.99103545  0.57307305  0.73860334  1  0.113379  0  0.111696  0.142514  0  1.019981  0
H  H19  1  0.99815413  0.23470961  0.07335661  1  0.120904  0  0.11255  0.145079  0  1.017408  0
H  H20  1  0.59904713  0.85923840  0.63486214  1  0.04826  0  0.102887  0.115331  0  1.021068  0
H  H21  1  0.40779877  0.13785860  0.36372006  1  0.050429  0  0.101933  0.114138  0  1.019005  0
H  H22  1  0.16671470  0.36159377  0.31512664  1  0.467826  0  0.297758  0.303951  0  0.99296  0
H  H23  1  0.21414766  0.46868347  0.26611816  1  0.411953  0  0.301632  0.29219  0  0.954325  0
H  H24  1  0.79754168  0.68338156  0.64072031  1  0.476157  0  0.29437  0.299616  0  0.99999  0
H  H25  1  0.74804082  0.57813250  0.69079264  1  0.403624  0  0.296688  0.283614  0  0.962752  0
H  H26  1  0.36371136  0.16357182  0.16408222  1  0.492678  0  0.296055  0.302049  0  0.999957  0
H  H27  1  0.47416123  0.20777067  0.06105056  1  0.418614  0  0.2997  0.290572  0  0.958598  0
H  H28  1  0.65829914  0.81802115  0.86021390  1  0.479053  0  0.295697  0.301265  0  1.00087  0
H  H29  1  0.55750675  0.76424875  0.97095220  1  0.415235  0  0.299617  0.289189  0  0.958117  0
H  H30  1  0.79692035  0.13952064  0.88598150  1  0.485757  0  0.293839  0.2987  0  1.003323  0
H  H31  1  0.74646231  0.18875121  0.99182290  1  0.423407  0  0.296051  0.282514  0  0.963651  0
H  H32  1  0.16628743  0.81602001  0.16154702  1  0.487584  0  0.29758  0.302712  0  0.998882  0
H  H33  1  0.21447665  0.76594332  0.05516764  1  0.412172  0  0.304255  0.295326  0  0.953858  0
H  H34  1  0.35910220  0.65827708  0.32025701  1  0.477465  0  0.296037  0.30153  0  1.002455  0
H  H35  1  0.46841384  0.55504807  0.26763745  1  0.423404  0  0.301273  0.291144  0  0.957232  0
H  H36  1  0.66156183  0.36357074  0.66441399  1  0.487219  0  0.295783  0.30127  0  1.003511  0
H  H37  1  0.56079074  0.47460102  0.70903566  1  0.411982  0  0.299054  0.288235  0  0.960437  0
H  H38  1  0.36679358  0.81120921  0.66589655  1  0.476874  0  0.297518  0.303109  0  0.996144  0
H  H39  1  0.48054741  0.75931128  0.70512152  1  0.412418  0  0.299618  0.290014  0  0.96048  0
H  H40  1  0.65842261  0.16755196  0.31549948  1  0.487723  0  0.297216  0.302663  0  0.999166  0
H  H41  1  0.55569945  0.21051609  0.26385264  1  0.424844  0  0.300187  0.28939  0  0.960483  0
C  C42  1  0.98749571  0.70716426  0.49294251  1  1.490859  0  0.234936  0.652963  0  4.064625  0
C  C43  1  0.30969924  0.99897073  0.20205924  1  1.491181  0  0.233125  0.649838  0  4.07063  0
C  C44  1  0.99573845  0.31308036  0.49308168  1  1.527867  0  0.235454  0.655481  0  4.062075  0
C  C45  1  0.69607187  0.99802671  0.80744959  1  1.49308  0  0.234426  0.651347  0  4.067655  0
C  C46  1  0.99359160  0.70168064  0.80853985  1  1.609114  0  0.240244  0.673738  0  4.091603  0
C  C47  1  0.69939787  0.00308447  0.49285878  1  1.490431  0  0.235851  0.653603  0  4.066898  0
C  C48  1  0.00096702  0.30715881  0.20157713  1  1.595469  0  0.239872  0.673092  0  4.090613  0
C  C49  1  0.30808432  0.99300944  0.50524225  1  1.484405  0  0.234911  0.651452  0  4.068987  0
C  C50  1  0.30649264  0.69783169  0.49899769  1  1.500097  0  0.233234  0.650174  0  4.067079  0
C  C51  1  0.98523782  0.99150321  0.81983729  1  1.529667  0  0.237908  0.657  0  4.056717  0
C  C52  1  0.69981187  0.31038219  0.50033849  1  1.490816  0  0.234896  0.651002  0  4.067802  0
C  C53  1  0.99605547  0.99199229  0.20391551  1  1.503535  0  0.232499  0.649637  0  4.066455  0
C  C54  1  0.99040434  0.42125487  0.48081283  1  -0.00442  0  -0.023475  -0.132889  0  3.934535  0
C  C55  1  0.97812116  0.61601053  0.48516561  1  -0.030596  0  -0.026302  -0.135315  0  3.947275  0
C  C56  1  0.07752276  0.46684419  0.40436294  1  0.399838  0  0.096448  0.283454  0  4.070964  0
C  C57  1  0.88695441  0.57556938  0.55493720  1  0.438525  0  0.090111  0.271746  0  4.081372  0
C  C58  1  0.06819211  0.56293477  0.41047040  1  0.069464  0  -0.09932  -0.201314  0  3.961736  0
C  C59  1  0.89716307  0.47838650  0.55048944  1  -0.024491  0  -0.099519  -0.196495  0  3.973868  0
C  C60  1  0.40792732  0.00250692  0.10039869  1  0.019302  0  -0.026906  -0.136691  0  3.951412  0
C  C61  1  0.59608197  0.99561853  0.90753278  1  0.051456  0  -0.025484  -0.136663  0  3.948289  0
C  C62  1  0.45848777  0.08504709  0.04896833  1  0.421498  0  0.094495  0.27887  0  4.080946  0
C  C63  1  0.54496299  0.91358571  0.95826886  1  0.413008  0  0.093509  0.278382  0  4.080979  0
C  C64  1  0.55148437  0.07817625  0.95344770  1  -0.020263  0  -0.097369  -0.195952  0  3.964919  0
C  C65  1  0.45187227  0.92054925  0.05360656  1  -0.023027  0  -0.10236  -0.207351  0  3.974536  0
C  C66  1  0.97600741  0.98341545  0.92826720  1  -0.013274  0  -0.022234  -0.127721  0  3.930741  0
C  C67  1  0.98912256  0.97923148  0.11458465  1  -0.036723  0  -0.027338  -0.140949  0  3.949889  0
C  C68  1  0.88539219  0.05353950  0.99023619  1  0.428319  0  0.091294  0.273619  0  4.077736  0
C  C69  1  0.07530535  0.90229641  0.05836079  1  0.431897  0  0.09675  0.283269  0  4.07975  0
C  C70  1  0.89590500  0.04919601  0.08142470  1  0.047327  0  -0.101538  -0.202375  0  3.981012  0
C  C71  1  0.06551826  0.90800857  0.96588883  1  0.034721  0  -0.096631  -0.198012  0  3.953772  0
C  C72  1  0.40650477  0.59788818  0.49679079  1  -0.047343  0  -0.026489  -0.137077  0  3.947647  0
C  C73  1  0.59839831  0.40898279  0.50390359  1  0.00131  0  -0.024655  -0.134606  0  3.94592  0
C  C74  1  0.45707614  0.54590190  0.41525669  1  0.425143  0  0.094366  0.279167  0  4.080064  0
C  C75  1  0.54697853  0.46000559  0.58639075  1  0.447176  0  0.093492  0.277893  0  4.082183  0
C  C76  1  0.55209133  0.45262486  0.42209836  1  0.021826  0  -0.09929  -0.202247  0  3.961867  0
C  C77  1  0.45228084  0.55346053  0.57929609  1  0.042499  0  -0.101215  -0.204658  0  3.970126  0
C  C78  1  0.99455776  0.59922279  0.90812199  1  0.025501  0  -0.017985  -0.172006  0  3.951262  0
C  C79  1  0.99456626  0.50273363  0.90741445  1  0.023332  0  -0.002332  0.081124  0  3.983866  0
C  C80  1  0.99964704  0.59610055  0.00044341  1  0.556903  0  0.099044  0.163148  0  4.088671  0
C  C81  1  0.99599027  0.49997756  0.81182505  1  0.074543  0  -0.104253  -0.247508  0  3.985001  0
C  C82  1  0.00196748  0.40444489  0.81167282  1  0.445274  0  0.0897  0.181928  0  4.129544  0
C  C83  1  0.00041860  0.40630602  0.09856915  1  0.086421  0  -0.016911  -0.168992  0  3.943554  0
C  C84  1  0.00272850  0.50039783  0.09471316  1  0.478862  0  0.098068  0.161014  0  4.092314  0
C  C85  1  0.99720917  0.40521070  0.00377462  1  0.03828  0  -0.001546  0.082205  0  3.97644  0
C  C86  1  0.00035475  0.30881960  0.00094177  1  0.025516  0  -0.101004  -0.241949  0  3.97013  0
C  C87  1  0.00402362  0.30896627  0.90623435  1  0.469209  0  0.089757  0.18318  0  4.122649  0
C  C88  1  0.40878623  0.99182193  0.50510116  1  0.041666  0  -0.025093  -0.134939  0  3.947387  0
C  C89  1  0.59950384  0.00371579  0.49206477  1  0.030499  0  -0.025426  -0.136162  0  3.949794  0
C  C90  1  0.46204477  0.90994879  0.58491925  1  0.387673  0  0.095647  0.280851  0  4.079121  0
C  C91  1  0.54642182  0.08554610  0.41204297  1  0.405786  0  0.094428  0.280485  0  4.08689  0
C  C92  1  0.55630659  0.91949963  0.57517042  1  0.05035  0  -0.097824  -0.199364  0  3.963916  0
C  C93  1  0.45191495  0.07631681  0.42204397  1  0.037311  0  -0.100591  -0.204519  0  3.967552  0
N  N94  1  0.17191857  0.41801144  0.33096215  1  -1.205708  0  -0.604216  -0.625103  0  3.33634  0
N  N95  1  0.79037494  0.62818560  0.62463717  1  -1.217055  0  -0.607114  -0.6257  0  3.324011  0
N  N96  1  0.41892797  0.17160621  0.08608859  1  -1.237828  0  -0.605893  -0.626177  0  3.337006  0
N  N97  1  0.58060865  0.83158636  0.91621021  1  -1.23559  0  -0.60623  -0.624946  0  3.330929  0
N  N98  1  0.78906451  0.12298974  0.96464256  1  -1.256343  0  -0.607392  -0.625107  0  3.323529  0
N  N99  1  0.16911458  0.82902477  0.08615578  1  -1.249145  0  -0.602739  -0.623433  0  3.348137  0
N  N100  1  0.41506862  0.58085291  0.33384883  1  -1.243352  0  -0.60494  -0.625479  0  3.338846  0
N  N101  1  0.58404856  0.41972353  0.67305050  1  -1.236797  0  -0.607185  -0.627687  0  3.337037  0
N  N102  1  0.42384027  0.82560946  0.67160786  1  -1.217748  0  -0.604666  -0.625959  0  3.336855  0
N  N103  1  0.58135455  0.17348398  0.32970153  1  -1.255732  0  -0.605035  -0.626538  0  3.343343  0
O  O104  1  0.91508695  0.74360772  0.57471031  1  -1.183681  0  -0.362676  -0.634869  0  2.308201  0
O  O105  1  0.26853996  0.07460905  0.24524798  1  -1.178947  0  -0.360291  -0.623273  0  2.314122  0
O  O106  1  0.07675509  0.26560938  0.42206927  1  -1.189866  0  -0.362956  -0.625582  0  2.324393  0
O  O107  1  0.73825985  0.92186392  0.76461246  1  -1.186027  0  -0.361839  -0.623502  0  2.316633  0
O  O108  1  0.07212654  0.73810996  0.76986267  1  -1.168365  0  -0.349311  -0.609484  0  2.271471  0
O  O109  1  0.74109886  0.07974759  0.41708501  1  -1.183425  0  -0.358417  -0.623398  0  2.309182  0
O  O110  1  0.92330900  0.26876600  0.24090610  1  -1.175279  0  -0.353625  -0.615659  0  2.27785  0
O  O111  1  0.26538954  0.91733317  0.58217880  1  -1.187841  0  -0.357397  -0.621836  0  2.29699  0
O  O112  1  0.26456580  0.73973517  0.42241963  1  -1.190363  0  -0.360253  -0.625885  0  2.309022  0
O  O113  1  0.91353607  0.07299761  0.77417981  1  -1.193496  0  -0.359073  -0.628703  0  2.294743  0
O  O114  1  0.74136710  0.26837731  0.57709322  1  -1.185882  0  -0.359461  -0.62393  0  2.317844  0
O  O115  1  0.07636088  0.92067013  0.24163505  1  -1.184837  0  -0.360935  -0.624504  0  2.322687  0
O  O116  1  0.06606375  0.91981184  0.77479929  1  -1.196681  0  -0.357135  -0.623009  0  2.287374  0
O  O117  1  0.74061689  0.27087313  0.42273473  1  -1.183453  0  -0.356958  -0.622364  0  2.27406  0
O  O118  1  0.92432232  0.07452168  0.23784766  1  -1.195046  0  -0.360951  -0.636302  0  2.275935  0
O  O119  1  0.26566413  0.73724880  0.57671438  1  -1.179809  0  -0.357507  -0.626997  0  2.273508  0
O  O120  1  0.91659458  0.74117238  0.76975109  1  -1.17382  0  -0.345974  -0.61482  0  2.265632  0
O  O121  1  0.26721760  0.07001006  0.42945130  1  -1.185653  0  -0.363199  -0.628895  0  2.29673  0
O  O122  1  0.07816014  0.26884884  0.23921688  1  -1.161558  0  -0.340204  -0.608025  0  2.253213  0
O  O123  1  0.73919669  0.92708765  0.56965534  1  -1.193516  0  -0.363081  -0.627454  0  2.298832  0
O  O124  1  0.73543886  0.07526643  0.76761739  1  -1.182207  0  -0.356466  -0.624369  0  2.283344  0
O  O125  1  0.06866250  0.74240011  0.42176143  1  -1.187033  0  -0.356617  -0.626701  0  2.284908  0
O  O126  1  0.26913873  0.92248635  0.24179224  1  -1.190263  0  -0.36063  -0.631163  0  2.277655  0
O  O127  1  0.92213982  0.27057818  0.57390923  1  -1.192334  0  -0.358906  -0.631855  0  2.262992  0
O  O128  1  0.79891856  0.07081347  0.56700621  1  -1.244979  0  -0.696996  -1.06636  0  2.37106  0
O  O129  1  0.06669242  0.06724647  0.57361486  1  -1.235959  0  -0.694766  -1.070664  0  2.348222  0
O  O130  1  0.06975839  0.06871953  0.30059592  1  -1.248978  0  -0.696321  -1.070125  0  2.371585  0
O  O131  1  0.06538429  0.79961998  0.56947669  1  -1.245922  0  -0.695826  -1.070009  0  2.369233  0
O  O132  1  0.14856506  0.95031241  0.45548286  1  -1.192625  0  -0.795689  -1.146077  0  2.14976  0
O  O133  1  0.95080434  0.95354811  0.45024099  1  -1.197458  0  -0.795381  -1.143228  0  2.144831  0
O  O134  1  0.95253682  0.14941404  0.45308541  1  -1.197  0  -0.793519  -1.145236  0  2.137649  0
O  O135  1  0.94962880  0.95192411  0.65061817  1  -1.19805  0  -0.7932  -1.14497  0  2.137824  0
F  F136  1  0.00473600  0.50555862  0.18267615  1  -0.617205  0  -0.087094  -0.107172  0  1.378441  0
F  F137  1  0.99907046  0.68558576  0.00509041  1  -0.613839  0  -0.085943  -0.103475  0  1.37193  0
F  F138  1  0.00531249  0.39930741  0.72098100  1  -0.623743  0  -0.08918  -0.116441  0  1.400039  0
F  F139  1  0.00914314  0.21758330  0.90086282  1  -0.622999  0  -0.088899  -0.115936  0  1.396983  0
