# generated using pymatgen
data_NdH12C21NO9
_symmetry_space_group_name_H-M   'P 1'
_cell_length_a   9.25499702
_cell_length_b   10.60786569
_cell_length_c   11.23492780
_cell_angle_alpha   60.29321701
_cell_angle_beta   79.63554130
_cell_angle_gamma   81.25838838
_symmetry_Int_Tables_number   1
_chemical_formula_structural   NdH12C21NO9
_chemical_formula_sum   'Nd2 H24 C42 N2 O18'
_cell_volume   939.85084814
_cell_formula_units_Z   2
loop_
 _symmetry_equiv_pos_site_id
 _symmetry_equiv_pos_as_xyz
  1  'x, y, z'
loop_
 _atom_site_type_symbol
 _atom_site_label
 _atom_site_symmetry_multiplicity
 _atom_site_fract_x
 _atom_site_fract_y
 _atom_site_fract_z
 _atom_site_occupancy
 _atom_site_hle17_bader_spin_density
 _atom_site_hle17_ddec_charge
 _atom_site_hle17_ddec_spin_density
 _atom_site_hle17_ddec_sum_bond_order
 _atom_site_hle17_magmom
 _atom_site_hse06_10hf_bader_spin_density
 _atom_site_hse06_10hf_ddec_charge
 _atom_site_hse06_10hf_ddec_spin_density
 _atom_site_hse06_10hf_ddec_sum_bond_order
 _atom_site_hse06_10hf_magmom
 _atom_site_hse06_bader_spin_density
 _atom_site_hse06_ddec_charge
 _atom_site_hse06_ddec_spin_density
 _atom_site_hse06_ddec_sum_bond_order
 _atom_site_hse06_magmom
 _atom_site_pbe_bader_spin_density
 _atom_site_pbe_cm5_charge
 _atom_site_pbe_ddec_charge
 _atom_site_pbe_ddec_spin_density
 _atom_site_pbe_ddec_sum_bond_order
 _atom_site_pbe_magmom
Nd  Nd0  1  0.17367268  0.59109175  0.50619774  1  0  2.308992  0  1.637807  0  0  2.153973  0  2.098277  0  0  2.248922  0  1.956733  0  0  1.48732  2.118951  0  2.135279  0
Nd  Nd1  1  0.82632619  0.40890788  0.49380430  1  0  2.308983  0  1.637814  0  0  2.15401  0  2.098193  0  0  2.248919  0  1.956735  0  0  1.487284  2.119036  0  2.135119  0
H  H2  1  0.46066232  0.37491229  0.62123464  1  0  0.456703  0  0.829134  0  0  0.427998  0  0.888341  0  0  0.437975  0  0.873816  0  0  0.312532  0.420823  0  0.898965  0
H  H3  1  0.53932998  0.62508743  0.37876562  1  0  0.456702  0  0.829118  0  0  0.427985  0  0.888352  0  0  0.437964  0  0.87382  0  0  0.312539  0.420816  0  0.89897  0
H  H4  1  0.39066658  0.44706818  0.72124387  1  0  0.427628  0  0.874516  0  0  0.395686  0  0.940736  0  0  0.40762  0  0.923128  0  0  0.296477  0.387263  0  0.95321  0
H  H5  1  0.60932672  0.55293255  0.27875758  1  0  0.427605  0  0.874548  0  0  0.395668  0  0.940766  0  0  0.407602  0  0.923159  0  0  0.296463  0.387245  0  0.95324  0
H  H6  1  0.48051344  0.88763401  0.18334274  1  0  0.311316  0  0.849672  0  0  0.2987  0  0.897261  0  0  0.305851  0  0.892166  0  0  0.344174  0.293472  0  0.901183  0
H  H7  1  0.51948776  0.11236475  0.81665401  1  0  0.311362  0  0.849735  0  0  0.298749  0  0.897312  0  0  0.305901  0  0.892216  0  0  0.344184  0.293515  0  0.901239  0
H  H8  1  0.15121331  0.06256865  0.42576958  1  0  0.124342  0  0.928216  0  0  0.134739  0  0.985095  0  0  0.139146  0  0.981276  0  0  0.119268  0.131498  0  0.98783  0
H  H9  1  0.84877651  0.93742149  0.57422989  1  0  0.124441  0  0.928206  0  0  0.134786  0  0.985137  0  0  0.139188  0  0.981322  0  0  0.119311  0.131549  0  0.98786  0
H  H10  1  0.49226469  0.33370666  0.35481355  1  0  0.124825  0  0.940056  0  0  0.130431  0  1.005056  0  0  0.13508  0  1.000688  0  0  0.119145  0.127204  0  1.007906  0
H  H11  1  0.50771871  0.66629550  0.64517976  1  0  0.124821  0  0.940082  0  0  0.130498  0  1.005  0  0  0.135145  0  1.000634  0  0  0.119134  0.12727  0  1.007846  0
H  H12  1  0.66746357  0.19213532  0.26475914  1  0  0.089001  0  0.995911  0  0  0.09802  0  1.060953  0  0  0.100284  0  1.061088  0  0  0.104124  0.096338  0  1.061116  0
H  H13  1  0.33252646  0.80786555  0.73523915  1  0  0.088955  0  0.995951  0  0  0.098019  0  1.06095  0  0  0.100288  0  1.061074  0  0  0.104106  0.096342  0  1.061101  0
H  H14  1  0.64073810  0.78013440  0.07144373  1  0  0.119177  0  0.918692  0  0  0.129892  0  0.974887  0  0  0.133677  0  0.970933  0  0  0.141887  0.126814  0  0.978325  0
H  H15  1  0.35926510  0.21986644  0.92855450  1  0  0.119171  0  0.918589  0  0  0.129874  0  0.974802  0  0  0.13366  0  0.970846  0  0  0.141873  0.126799  0  0.978236  0
H  H16  1  0.99693800  0.90359538  0.18563194  1  0  0.122139  0  0.923184  0  0  0.132591  0  0.980667  0  0  0.135601  0  0.978123  0  0  0.125485  0.130253  0  0.982696  0
H  H17  1  0.00306104  0.09641625  0.81436391  1  0  0.122171  0  0.923099  0  0  0.132559  0  0.980679  0  0  0.135575  0  0.978115  0  0  0.125486  0.130217  0  0.98272  0
H  H18  1  0.81412836  0.01446955  0.29784040  1  0  0.131318  0  0.930174  0  0  0.143085  0  0.98374  0  0  0.146174  0  0.983478  0  0  0.125633  0.140807  0  0.984254  0
H  H19  1  0.18586534  0.98552563  0.70216610  1  0  0.131304  0  0.930152  0  0  0.143065  0  0.983731  0  0  0.146155  0  0.983469  0  0  0.125628  0.140784  0  0.984252  0
H  H20  1  0.81284576  0.85629004  0.87022675  1  0  0.084912  0  0.977008  0  0  0.091174  0  1.047447  0  0  0.093633  0  1.047297  0  0  0.095744  0.089517  0  1.047406  0
H  H21  1  0.18714727  0.14369970  0.12978224  1  0  0.084924  0  0.977079  0  0  0.091186  0  1.047518  0  0  0.093643  0  1.047367  0  0  0.09576  0.089526  0  1.047484  0
H  H22  1  0.97928545  0.74165995  0.74530601  1  0  0.117337  0  0.968972  0  0  0.123075  0  1.03511  0  0  0.127135  0  1.031937  0  0  0.111554  0.120216  0  1.037188  0
H  H23  1  0.02071965  0.25834397  0.25469504  1  0  0.117327  0  0.96907  0  0  0.123039  0  1.035226  0  0  0.127098  0  1.032057  0  0  0.111562  0.12018  0  1.037304  0
H  H24  1  0.26058298  0.54955575  0.06638080  1  0  0.120868  0  0.920844  0  0  0.130854  0  0.978832  0  0  0.134931  0  0.975869  0  0  0.113889  0.12811  0  0.980676  0
H  H25  1  0.73942793  0.45045791  0.93361695  1  0  0.120891  0  0.920714  0  0  0.130816  0  0.978757  0  0  0.134893  0  0.975799  0  0  0.113876  0.128072  0  0.980599  0
C  C26  1  0.30491528  0.86837074  0.36981777  1  0  0.610307  0  3.982352  0  0  0.563952  0  4.280751  0  0  0.596384  0  4.277949  0  0  0.184483  0.541053  0  4.285686  0
C  C27  1  0.69508063  0.13162602  0.63017615  1  0  0.610188  0  3.982418  0  0  0.563839  0  4.280829  0  0  0.596269  0  4.278022  0  0  0.18451  0.54094  0  4.285768  0
C  C28  1  0.36402380  0.00417281  0.34702499  1  0  -0.092117  0  3.71121  0  0  -0.076377  0  3.952183  0  0  -0.083586  0  3.973824  0  0  -0.014796  -0.071604  0  3.937256  0
C  C29  1  0.63596758  0.99582476  0.65297544  1  0  -0.092055  0  3.711355  0  0  -0.076348  0  3.952248  0  0  -0.08355  0  3.973896  0  0  -0.014858  -0.071573  0  3.937317  0
C  C30  1  0.26487821  0.09149145  0.38987106  1  0  -0.062637  0  3.679908  0  0  -0.096475  0  3.927512  0  0  -0.094962  0  3.945601  0  0  -0.066844  -0.096618  0  3.914373  0
C  C31  1  0.73511327  0.90850515  0.61012712  1  0  -0.062847  0  3.679738  0  0  -0.096662  0  3.927374  0  0  -0.095143  0  3.945446  0  0  -0.066911  -0.0968  0  3.914238  0
C  C32  1  0.30911287  0.21025996  0.39239340  1  0  -0.048235  0  3.711013  0  0  -0.025033  0  3.944402  0  0  -0.03234  0  3.965472  0  0  -0.004551  -0.020604  0  3.929957  0
C  C33  1  0.69087455  0.78973220  0.60760907  1  0  -0.048087  0  3.71105  0  0  -0.024873  0  3.944364  0  0  -0.032173  0  3.965433  0  0  -0.004445  -0.020472  0  3.929965  0
C  C34  1  0.45633433  0.24320704  0.35052576  1  0  -0.024617  0  3.662303  0  0  -0.053222  0  3.914323  0  0  -0.050606  0  3.930082  0  0  -0.064323  -0.05479  0  3.903481  0
C  C35  1  0.54365605  0.75678952  0.64947348  1  0  -0.024662  0  3.662502  0  0  -0.053312  0  3.914492  0  0  -0.050695  0  3.930253  0  0  -0.06438  -0.054869  0  3.903641  0
C  C36  1  0.55494450  0.16091473  0.30292662  1  0  -0.078983  0  3.702773  0  0  -0.100714  0  3.954506  0  0  -0.104057  0  3.975765  0  0  -0.075499  -0.098574  0  3.940175  0
C  C37  1  0.44504798  0.83908285  0.69707365  1  0  -0.078972  0  3.702918  0  0  -0.100804  0  3.954597  0  0  -0.10414  0  3.975858  0  0  -0.075476  -0.098661  0  3.940265  0
C  C38  1  0.51254282  0.04094729  0.29970349  1  0  -0.010578  0  3.754094  0  0  -0.004249  0  3.99373  0  0  -0.005194  0  4.016982  0  0  -0.001863  -0.003047  0  3.977829  0
C  C39  1  0.48745633  0.95904919  0.70029723  1  0  -0.010606  0  3.754325  0  0  -0.004061  0  3.993771  0  0  -0.005031  0  4.01707  0  0  -0.001818  -0.002858  0  3.977873  0
C  C40  1  0.20063906  0.30245959  0.43944175  1  0  0.68885  0  3.90298  0  0  0.641641  0  4.196927  0  0  0.675579  0  4.191575  0  0  0.226018  0.618786  0  4.201837  0
C  C41  1  0.79935880  0.69753898  0.56056001  1  0  0.688781  0  3.903375  0  0  0.641596  0  4.197264  0  0  0.675532  0  4.191921  0  0  0.226043  0.618744  0  4.202166  0
C  C42  1  0.62650155  0.96807075  0.24079554  1  0  0.254659  0  3.656767  0  0  0.23786  0  3.907587  0  0  0.250201  0  3.922438  0  0  0.149228  0.22917  0  3.898236  0
C  C43  1  0.37349540  0.03192575  0.75920458  1  0  0.254645  0  3.656677  0  0  0.237622  0  3.907722  0  0  0.24997  0  3.922577  0  0  0.149159  0.228921  0  3.898382  0
C  C44  1  0.68631105  0.83689870  0.11311273  1  0  0.115336  0  3.575542  0  0  0.066385  0  3.830985  0  0  0.076253  0  3.842211  0  0  0.077354  0.059651  0  3.824253  0
C  C45  1  0.31368667  0.16310216  0.88688537  1  0  0.115324  0  3.575421  0  0  0.066377  0  3.830836  0  0  0.076246  0  3.842058  0  0  0.07733  0.059633  0  3.824111  0
C  C46  1  0.83708363  0.83547449  0.11227678  1  0  0.025613  0  3.744417  0  0  0.040541  0  3.988339  0  0  0.035665  0  4.009835  0  0  0.01846  0.043056  0  3.974258  0
C  C47  1  0.16291928  0.16452946  0.88772368  1  0  0.025626  0  3.744483  0  0  0.040621  0  3.988319  0  0  0.035746  0  4.009817  0  0  0.018448  0.04314  0  3.974239  0
C  C48  1  0.88079073  0.90218349  0.18032519  1  0  0.015417  0  3.593343  0  0  -0.015313  0  3.846435  0  0  -0.007427  0  3.859287  0  0  -0.032367  -0.020232  0  3.838382  0
C  C49  1  0.11920652  0.09782262  0.81967512  1  0  0.015378  0  3.593214  0  0  -0.015335  0  3.846316  0  0  -0.007446  0  3.859178  0  0  -0.032358  -0.020253  0  3.838262  0
C  C50  1  0.77743962  0.96676068  0.24333478  1  0  -0.120806  0  3.63819  0  0  -0.141001  0  3.892797  0  0  -0.149231  0  3.911604  0  0  -0.056418  -0.136522  0  3.881671  0
C  C51  1  0.22255705  0.03323898  0.75666666  1  0  -0.120693  0  3.638047  0  0  -0.140843  0  3.892742  0  0  -0.149077  0  3.911553  0  0  -0.056373  -0.136365  0  3.881624  0
C  C52  1  0.93933157  0.76471347  0.04263732  1  0  0.031183  0  3.767488  0  0  0.034193  0  4.003661  0  0  0.035704  0  4.028707  0  0  -0.001188  0.034401  0  3.985845  0
C  C53  1  0.06067835  0.23528507  0.95736453  1  0  0.031385  0  3.767377  0  0  0.034354  0  4.00357  0  0  0.03586  0  4.028621  0  0  -0.001048  0.034562  0  3.985751  0
C  C54  1  0.90873090  0.78630653  0.91573900  1  0  -0.098913  0  3.748331  0  0  -0.119845  0  4.007394  0  0  -0.124034  0  4.028816  0  0  -0.085626  -0.11712  0  3.991942  0
C  C55  1  0.09127689  0.21369080  0.08426636  1  0  -0.099048  0  3.748214  0  0  -0.119983  0  4.00731  0  0  -0.124175  0  4.028742  0  0  -0.085713  -0.117257  0  3.991855  0
C  C56  1  0.00175991  0.72414738  0.84449854  1  0  -0.056339  0  3.707007  0  0  -0.08223  0  3.958144  0  0  -0.080807  0  3.976135  0  0  -0.077276  -0.082046  0  3.945219  0
C  C57  1  0.99824984  0.27585330  0.15550329  1  0  -0.056279  0  3.70703  0  0  -0.082089  0  3.958163  0  0  -0.080692  0  3.976133  0  0  -0.077236  -0.081895  0  3.945247  0
C  C58  1  0.12846691  0.63753643  0.89883392  1  0  -0.062641  0  3.738016  0  0  -0.040701  0  3.975591  0  0  -0.048607  0  3.998454  0  0  -0.013522  -0.036191  0  3.961423  0
C  C59  1  0.87154806  0.36246749  0.10116664  1  0  -0.062582  0  3.737901  0  0  -0.040773  0  3.975627  0  0  -0.0486  0  3.99839  0  0  -0.013625  -0.036297  0  3.961501  0
C  C60  1  0.16160624  0.61623494  0.02441113  1  0  -0.066366  0  3.675072  0  0  -0.101122  0  3.923781  0  0  -0.099543  0  3.942089  0  0  -0.070228  -0.102724  0  3.912355  0
C  C61  1  0.83840766  0.38376905  0.97558778  1  0  -0.066269  0  3.674869  0  0  -0.100904  0  3.923573  0  0  -0.099352  0  3.941858  0  0  -0.070131  -0.102495  0  3.912153  0
C  C62  1  0.06778538  0.67874227  0.09687432  1  0  -0.08139  0  3.690016  0  0  -0.063862  0  3.927451  0  0  -0.071247  0  3.948516  0  0  -0.005445  -0.058786  0  3.912812  0
C  C63  1  0.93223068  0.32126161  0.90312699  1  0  -0.081843  0  3.690288  0  0  -0.064296  0  3.927743  0  0  -0.071681  0  3.948815  0  0  -0.005644  -0.059217  0  3.913101  0
C  C64  1  0.10378036  0.64960710  0.23339182  1  0  0.677767  0  3.915605  0  0  0.631494  0  4.209192  0  0  0.664849  0  4.205268  0  0  0.208504  0.608427  0  4.214982  0
C  C65  1  0.89623335  0.35039899  0.76660796  1  0  0.67828  0  3.915216  0  0  0.631969  0  4.208819  0  0  0.665327  0  4.204891  0  0  0.208722  0.608898  0  4.214622  0
C  C66  1  0.22529632  0.57389609  0.81528236  1  0  0.665499  0  3.907339  0  0  0.618706  0  4.202759  0  0  0.651905  0  4.197608  0  0  0.215777  0.59626  0  4.206707  0
C  C67  1  0.77471024  0.42610360  0.18471768  1  0  0.665442  0  3.907138  0  0  0.61866  0  4.202614  0  0  0.651839  0  4.197461  0  0  0.215765  0.596226  0  4.206556  0
N  N68  1  0.58927797  0.90276202  0.17358653  1  0  -0.243526  0  3.465477  0  0  -0.176991  0  3.68954  0  0  -0.191206  0  3.701944  0  0  -0.342275  -0.167485  0  3.681399  0
N  N69  1  0.41072633  0.09723886  0.82641064  1  0  -0.243601  0  3.465346  0  0  -0.177013  0  3.689452  0  0  -0.191229  0  3.70185  0  0  -0.342238  -0.167491  0  3.681318  0
O  O70  1  0.39213617  0.75299872  0.39891803  1  0  -0.714577  0  2.030171  0  0  -0.663326  0  2.270848  0  0  -0.692203  0  2.26106  0  0  -0.366556  -0.645798  0  2.277196  0
O  O71  1  0.60785731  0.24699987  0.60108344  1  0  -0.714502  0  2.029977  0  0  -0.663279  0  2.270666  0  0  -0.692153  0  2.260886  0  0  -0.366544  -0.645757  0  2.277017  0
O  O72  1  0.16832639  0.86902430  0.36812105  1  0  -0.65045  0  1.970287  0  0  -0.605107  0  2.205121  0  0  -0.632813  0  2.197033  0  0  -0.358066  -0.588643  0  2.210609  0
O  O73  1  0.83166745  0.13097155  0.63186911  1  0  -0.650423  0  1.97048  0  0  -0.605076  0  2.205302  0  0  -0.632778  0  2.197215  0  0  -0.358088  -0.588615  0  2.210783  0
O  O74  1  0.06488015  0.28897821  0.44794988  1  0  -0.705791  0  2.042496  0  0  -0.657677  0  2.296285  0  0  -0.687879  0  2.28551  0  0  -0.372744  -0.640765  0  2.30274  0
O  O75  1  0.93511041  0.71103039  0.55204226  1  0  -0.705666  0  2.042701  0  0  -0.657588  0  2.296534  0  0  -0.687787  0  2.285751  0  0  -0.372706  -0.640668  0  2.302984  0
O  O76  1  0.25493881  0.38719073  0.46633594  1  0  -0.713778  0  2.049777  0  0  -0.661866  0  2.304052  0  0  -0.693108  0  2.293237  0  0  -0.3968  -0.643826  0  2.310189  0
O  O77  1  0.74505636  0.61280022  0.53366954  1  0  -0.713822  0  2.049815  0  0  -0.661941  0  2.304106  0  0  -0.693182  0  2.293294  0  0  -0.396878  -0.643904  0  2.310237  0
O  O78  1  0.00365254  0.60008491  0.33875838  1  0  -0.832667  0  2.118916  0  0  -0.776069  0  2.381795  0  0  -0.812942  0  2.3707  0  0  -0.419246  -0.757406  0  2.38859  0
O  O79  1  0.99635450  0.39992228  0.66124097  1  0  -0.832768  0  2.118806  0  0  -0.776186  0  2.381785  0  0  -0.813038  0  2.370628  0  0  -0.419232  -0.757519  0  2.388583  0
O  O80  1  0.22865470  0.67600692  0.24198449  1  0  -0.656353  0  1.921173  0  0  -0.613969  0  2.142568  0  0  -0.64049  0  2.133036  0  0  -0.353791  -0.59794  0  2.147698  0
O  O81  1  0.77135785  0.32398619  0.75801939  1  0  -0.656572  0  1.921088  0  0  -0.614174  0  2.142489  0  0  -0.640693  0  2.13295  0  0  -0.353919  -0.598148  0  2.147625  0
O  O82  1  0.19509606  0.63022396  0.69102149  1  0  -0.755202  0  2.05164  0  0  -0.700121  0  2.312197  0  0  -0.732754  0  2.300535  0  0  -0.435495  -0.681777  0  2.318357  0
O  O83  1  0.80490693  0.36977890  0.30897944  1  0  -0.755236  0  2.051688  0  0  -0.70015  0  2.31226  0  0  -0.732766  0  2.300583  0  0  -0.435535  -0.681813  0  2.31841  0
O  O84  1  0.32706986  0.47657074  0.86595216  1  0  -0.620722  0  1.878917  0  0  -0.573562  0  2.087337  0  0  -0.597051  0  2.078144  0  0  -0.321551  -0.556462  0  2.092791  0
O  O85  1  0.67293243  0.52342803  0.13404443  1  0  -0.620697  0  1.878732  0  0  -0.573521  0  2.08714  0  0  -0.597013  0  2.077957  0  0  -0.321494  -0.55642  0  2.092587  0
O  O86  1  0.38264082  0.44056800  0.63714504  1  0  -0.926504  0  1.887899  0  0  -0.876127  0  2.085482  0  0  -0.900466  0  2.049248  0  0  -0.640565  -0.863089  0  2.109312  0
O  O87  1  0.61735883  0.55943613  0.36285135  1  0  -0.926475  0  1.887878  0  0  -0.876113  0  2.085435  0  0  -0.900445  0  2.049203  0  0  -0.640556  -0.863089  0  2.109248  0
