# generated using pymatgen
data_CrH2(C3O2)2
_symmetry_space_group_name_H-M   'P 1'
_cell_length_a   18.83263828
_cell_length_b   18.83266747
_cell_length_c   18.83267009
_cell_angle_alpha   59.99999456
_cell_angle_beta   60.00000128
_cell_angle_gamma   60.00001329
_symmetry_Int_Tables_number   1
_chemical_formula_structural   CrH2(C3O2)2
_chemical_formula_sum   'Cr12 H24 C72 O48'
_cell_volume   4723.02161923
_cell_formula_units_Z   12
loop_
 _symmetry_equiv_pos_site_id
 _symmetry_equiv_pos_as_xyz
  1  'x, y, z'
loop_
 _atom_site_type_symbol
 _atom_site_label
 _atom_site_symmetry_multiplicity
 _atom_site_fract_x
 _atom_site_fract_y
 _atom_site_fract_z
 _atom_site_occupancy
 _atom_site_pbe_bader_charge
 _atom_site_pbe_bader_spin_density
 _atom_site_pbe_cm5_charge
 _atom_site_pbe_ddec_charge
 _atom_site_pbe_ddec_spin_density
 _atom_site_pbe_ddec_sum_bond_order
 _atom_site_pbe_magmom
Cr  Cr0  1  0.45074117  0.99999924  0.54925796  1  1.336624  0  0.788562  0.92464  0  3.285768  0
Cr  Cr1  1  0.00000054  0.54926492  0.99999898  1  1.294006  0  0.788725  0.924639  0  3.285797  0
Cr  Cr2  1  0.54925012  0.99999945  0.45074891  1  1.260722  0  0.788013  0.923533  0  3.287006  0
Cr  Cr3  1  0.00000034  0.45075089  0.99999859  1  1.283333  0  0.787834  0.923284  0  3.287085  0
Cr  Cr4  1  0.00000066  0.99999987  0.54924773  1  1.283089  0  0.78827  0.923889  0  3.286808  0
Cr  Cr5  1  0.45073777  0.54926207  0.99999911  1  1.336684  0  0.788643  0.924673  0  3.285593  0
Cr  Cr6  1  0.45074831  0.99999961  0.99999811  1  1.283757  0  0.788439  0.924156  0  3.286513  0
Cr  Cr7  1  0.54925000  0.45074952  0.99999888  1  1.260637  0  0.787901  0.923446  0  3.286818  0
Cr  Cr8  1  0.54925745  0.99999993  0.99999880  1  1.293542  0  0.788138  0.924022  0  3.28592  0
Cr  Cr9  1  0.00000095  0.99999918  0.45074068  1  1.294014  0  0.788279  0.924404  0  3.2855  0
Cr  Cr10  1  0.00000088  0.45073271  0.54926534  1  1.33647  0  0.788484  0.924466  0  3.286107  0
Cr  Cr11  1  0.00000102  0.54924039  0.45075752  1  1.261071  0  0.788024  0.923115  0  3.287646  0
H  H12  1  0.50502858  0.73395708  0.73395510  1  0.13272  0  0.118616  0.132827  0  0.981765  0
H  H13  1  0.02705951  0.73395849  0.73395369  1  0.138688  0  0.11858  0.132763  0  0.981833  0
H  H14  1  0.73395726  0.02705803  0.50502533  1  0.16708  0  0.118564  0.132723  0  0.981833  0
H  H15  1  0.73395895  0.50502595  0.02705643  1  0.129876  0  0.118599  0.132793  0  0.981674  0
H  H16  1  0.97294256  0.49497138  0.26604404  1  0.167153  0  0.118562  0.132727  0  0.981952  0
H  H17  1  0.26604218  0.26604263  0.97293989  1  0.138614  0  0.118629  0.132843  0  0.981711  0
H  H18  1  0.26604237  0.97294187  0.49497105  1  0.145367  0  0.118613  0.132822  0  0.981742  0
H  H19  1  0.26604482  0.49497172  0.97293998  1  0.167187  0  0.118594  0.132753  0  0.981848  0
H  H20  1  0.26604464  0.26604126  0.49497158  1  0.132867  0  0.118607  0.132802  0  0.98181  0
H  H21  1  0.49497251  0.97294187  0.26604182  1  0.129793  0  0.118588  0.132744  0  0.982029  0
H  H22  1  0.50502829  0.73395741  0.02705606  1  0.129878  0  0.118566  0.13274  0  0.981812  0
H  H23  1  0.50502737  0.02705829  0.73395665  1  0.151226  0  0.118598  0.132794  0  0.981733  0
H  H24  1  0.49497465  0.26604218  0.26604091  1  0.132877  0  0.118589  0.132763  0  0.981918  0
H  H25  1  0.49497367  0.26604164  0.97294014  1  0.130364  0  0.1186  0.132776  0  0.981991  0
H  H26  1  0.02705904  0.73395503  0.50502519  1  0.167055  0  0.118575  0.132742  0  0.98184  0
H  H27  1  0.73395779  0.50502629  0.73395691  1  0.132861  0  0.118606  0.132754  0  0.981932  0
H  H28  1  0.73395851  0.02705801  0.73395523  1  0.138462  0  0.1186  0.132774  0  0.981911  0
H  H29  1  0.02705930  0.50502651  0.73395797  1  0.129863  0  0.118595  0.132779  0  0.981798  0
H  H30  1  0.73395723  0.73395705  0.02705626  1  0.137719  0  0.118551  0.132729  0  0.982038  0
H  H31  1  0.73395904  0.73395632  0.50502566  1  0.132876  0  0.118592  0.132754  0  0.981944  0
H  H32  1  0.26604285  0.49497250  0.26604216  1  0.133013  0  0.118568  0.132758  0  0.981808  0
H  H33  1  0.26604407  0.97294165  0.26603973  1  0.138008  0  0.118587  0.132809  0  0.981741  0
H  H34  1  0.97294313  0.26603998  0.49497093  1  0.129851  0  0.118549  0.132715  0  0.981868  0
H  H35  1  0.97294301  0.26604324  0.26603861  1  0.138403  0  0.118604  0.13283  0  0.981696  0
C  C36  1  0.57064638  0.83508116  0.57064901  1  1.469486  0  0.212175  0.55295  0  4.141666  0
C  C37  1  0.02362205  0.57065740  0.83508107  1  1.485523  0  0.21209  0.552799  0  4.141636  0
C  C38  1  0.57064537  0.02362076  0.57065058  1  1.463372  0  0.212093  0.552793  0  4.141742  0
C  C39  1  0.83508242  0.57065974  0.02361928  1  1.485816  0  0.212104  0.552858  0  4.141552  0
C  C40  1  0.97638017  0.42936208  0.16491719  1  1.475418  0  0.212125  0.552899  0  4.141488  0
C  C41  1  0.16491945  0.42936045  0.97637732  1  1.475348  0  0.212066  0.552766  0  4.141742  0
C  C42  1  0.16491923  0.97637881  0.42934625  1  1.486436  0  0.212087  0.55279  0  4.141861  0
C  C43  1  0.42934735  0.42935790  0.97637647  1  1.46345  0  0.212126  0.552837  0  4.141767  0
C  C44  1  0.42934978  0.16491738  0.42935415  1  1.469501  0  0.212168  0.552944  0  4.141501  0
C  C45  1  0.42935025  0.97637832  0.42935258  1  1.463353  0  0.212153  0.552882  0  4.141733  0
C  C46  1  0.57064177  0.57065591  0.02361976  1  1.46341  0  0.212084  0.552753  0  4.14194  0
C  C47  1  0.57065404  0.02362176  0.83508072  1  1.486302  0  0.212145  0.552878  0  4.141756  0
C  C48  1  0.42934561  0.42935900  0.16491674  1  1.468472  0  0.212131  0.552816  0  4.141746  0
C  C49  1  0.42935874  0.16491737  0.97637617  1  1.486583  0  0.21211  0.552836  0  4.14186  0
C  C50  1  0.02362277  0.83508160  0.57064384  1  1.475657  0  0.212102  0.552797  0  4.141819  0
C  C51  1  0.57064215  0.57065346  0.83508090  1  1.468389  0  0.212097  0.552806  0  4.141848  0
C  C52  1  0.83508274  0.02362131  0.57064497  1  1.475653  0  0.212148  0.552792  0  4.141735  0
C  C53  1  0.02362130  0.57063564  0.57065922  1  1.463713  0  0.212124  0.552794  0  4.141662  0
C  C54  1  0.57065330  0.83508326  0.02361942  1  1.486434  0  0.212192  0.552989  0  4.141616  0
C  C55  1  0.83508355  0.57063491  0.57065900  1  1.468355  0  0.212135  0.552771  0  4.141565  0
C  C56  1  0.16491827  0.42933957  0.42936255  1  1.468426  0  0.212137  0.552852  0  4.141705  0
C  C57  1  0.42935897  0.97637878  0.16491530  1  1.475726  0  0.212143  0.552825  0  4.141642  0
C  C58  1  0.97638043  0.42933875  0.42936315  1  1.463595  0  0.212129  0.552808  0  4.141668  0
C  C59  1  0.97637965  0.16491684  0.42934860  1  1.486026  0  0.21209  0.552721  0  4.141895  0
C  C60  1  0.61422618  0.74297224  0.61423110  1  -0.017298  0  -0.013388  -0.035093  0  4.007027  0
C  C61  1  0.02857038  0.61422907  0.74297075  1  -0.11179  0  -0.013349  -0.034967  0  4.007123  0
C  C62  1  0.61422512  0.02857069  0.61422915  1  -0.014334  0  -0.013267  -0.034915  0  4.006798  0
C  C63  1  0.74297335  0.61422040  0.02856881  1  -0.113084  0  -0.013239  -0.034975  0  4.007053  0
C  C64  1  0.97143050  0.38576784  0.25702475  1  -0.101632  0  -0.013301  -0.03505  0  4.006906  0
C  C65  1  0.25702703  0.38576856  0.97142799  1  -0.101149  0  -0.013345  -0.03502  0  4.006939  0
C  C66  1  0.25702580  0.97142940  0.38576976  1  -0.112425  0  -0.013336  -0.035027  0  4.006707  0
C  C67  1  0.38576815  0.38577141  0.97142870  1  -0.014336  0  -0.013411  -0.03506  0  4.007444  0
C  C68  1  0.38577198  0.25702726  0.38577169  1  -0.017357  0  -0.01334  -0.034948  0  4.007149  0
C  C69  1  0.38576479  0.97142905  0.38577516  1  -0.01457  0  -0.013379  -0.035147  0  4.007193  0
C  C70  1  0.61422970  0.61422565  0.02856904  1  -0.014071  0  -0.013277  -0.034962  0  4.006766  0
C  C71  1  0.61422647  0.02857086  0.74297021  1  -0.112034  0  -0.013414  -0.035063  0  4.007122  0
C  C72  1  0.38577025  0.38577202  0.25702803  1  -0.016258  0  -0.013352  -0.034929  0  4.007052  0
C  C73  1  0.38576569  0.25702683  0.97142729  1  -0.112775  0  -0.013254  -0.034939  0  4.006859  0
C  C74  1  0.02857159  0.74297039  0.61422500  1  -0.101838  0  -0.013342  -0.034995  0  4.007165  0
C  C75  1  0.61422384  0.61423191  0.74297310  1  -0.016677  0  -0.01335  -0.034964  0  4.007023  0
C  C76  1  0.74297081  0.02857066  0.61422426  1  -0.102445  0  -0.013343  -0.034938  0  4.007036  0
C  C77  1  0.02857192  0.61422435  0.61423070  1  -0.014753  0  -0.01332  -0.034892  0  4.006862  0
C  C78  1  0.61422756  0.74296988  0.02856890  1  -0.11301  0  -0.013405  -0.035162  0  4.007472  0
C  C79  1  0.74296925  0.61422747  0.61423293  1  -0.016189  0  -0.013397  -0.034992  0  4.00721  0
C  C80  1  0.25702866  0.38576859  0.38577355  1  -0.016605  0  -0.013422  -0.035024  0  4.00723  0
C  C81  1  0.38576692  0.97142918  0.25702771  1  -0.101517  0  -0.013393  -0.035002  0  4.007161  0
C  C82  1  0.97143026  0.38576642  0.38577159  1  -0.014149  0  -0.013442  -0.03513  0  4.007424  0
C  C83  1  0.97142981  0.25702597  0.38576405  1  -0.112629  0  -0.013221  -0.03491  0  4.006781  0
C  C84  1  0.57123325  0.70008875  0.70008665  1  0.015143  0  -0.058181  -0.078439  0  3.871958  0
C  C85  1  0.02859141  0.70009344  0.70008650  1  0.120996  0  -0.058201  -0.078474  0  3.871484  0
C  C86  1  0.70009190  0.02858756  0.57122900  1  -0.010466  0  -0.058149  -0.078402  0  3.871507  0
C  C87  1  0.70009197  0.57123507  0.02858670  1  0.026354  0  -0.058198  -0.078416  0  3.872096  0
C  C88  1  0.97141294  0.42877225  0.29991139  1  -0.011545  0  -0.05812  -0.078271  0  3.871157  0
C  C89  1  0.29991305  0.29991233  0.97140881  1  0.12169  0  -0.058214  -0.078483  0  3.87225  0
C  C90  1  0.29991415  0.97141133  0.42876456  1  0.010415  0  -0.058192  -0.078383  0  3.871706  0
C  C91  1  0.29991415  0.42877025  0.97141011  1  -0.012055  0  -0.058129  -0.078287  0  3.87135  0
C  C92  1  0.29991349  0.29990794  0.42876892  1  0.015011  0  -0.058171  -0.07847  0  3.87186  0
C  C93  1  0.42877765  0.97141028  0.29990486  1  0.026072  0  -0.058085  -0.078299  0  3.870779  0
C  C94  1  0.57123191  0.70009543  0.02858694  1  0.026434  0  -0.058103  -0.078258  0  3.871545  0
C  C95  1  0.57123278  0.02858979  0.70008965  1  0.004328  0  -0.058177  -0.078417  0  3.871802  0
C  C96  1  0.42877302  0.29990930  0.29990752  1  0.014965  0  -0.058167  -0.078517  0  3.871721  0
C  C97  1  0.42877549  0.29990906  0.97141009  1  0.025415  0  -0.058185  -0.078487  0  3.871173  0
C  C98  1  0.02859103  0.70008786  0.57122825  1  -0.011105  0  -0.05814  -0.07838  0  3.871448  0
C  C99  1  0.70009119  0.57122840  0.70009179  1  0.014994  0  -0.058138  -0.078386  0  3.871517  0
C  C100  1  0.70009410  0.02859070  0.70008786  1  0.121288  0  -0.058159  -0.078454  0  3.871124  0
C  C101  1  0.02859130  0.57123013  0.70009220  1  0.026043  0  -0.058139  -0.078438  0  3.871828  0
C  C102  1  0.70009244  0.70009449  0.02858844  1  0.12226  0  -0.058177  -0.078395  0  3.871082  0
C  C103  1  0.70009494  0.70008908  0.57122673  1  0.015022  0  -0.058122  -0.078363  0  3.871439  0
C  C104  1  0.29990900  0.42876994  0.29991143  1  0.014908  0  -0.058147  -0.078416  0  3.871622  0
C  C105  1  0.29991658  0.97141175  0.29990336  1  0.121766  0  -0.058142  -0.078462  0  3.871965  0
C  C106  1  0.97141036  0.29990955  0.42877144  1  0.025705  0  -0.058145  -0.078344  0  3.87124  0
C  C107  1  0.97141127  0.29991482  0.29990822  1  0.121963  0  -0.058215  -0.078486  0  3.872165  0
O  O108  1  0.49299626  0.87522433  0.61171967  1  -1.124093  0  -0.326686  -0.517195  0  2.335716  0
O  O109  1  0.02005989  0.61172719  0.87522351  1  -1.116559  0  -0.326654  -0.517121  0  2.335714  0
O  O110  1  0.61170916  0.02005675  0.49300336  1  -1.11689  0  -0.326699  -0.517088  0  2.336049  0
O  O111  1  0.87523114  0.49300890  0.02005440  1  -1.119751  0  -0.326652  -0.517046  0  2.33598  0
O  O112  1  0.97994246  0.50701049  0.12477420  1  -1.119845  0  -0.326709  -0.517183  0  2.335712  0
O  O113  1  0.12477088  0.38829657  0.97994095  1  -1.116815  0  -0.326626  -0.516978  0  2.336068  0
O  O114  1  0.12477299  0.97994280  0.50699420  1  -1.119882  0  -0.326666  -0.517096  0  2.336045  0
O  O115  1  0.38827512  0.50700917  0.97993966  1  -1.116995  0  -0.326691  -0.517182  0  2.335733  0
O  O116  1  0.38827987  0.12477359  0.50700399  1  -1.124119  0  -0.326666  -0.517188  0  2.33564  0
O  O117  1  0.50699596  0.97994199  0.38829010  1  -1.116802  0  -0.326707  -0.517084  0  2.336119  0
O  O118  1  0.49299312  0.61172451  0.02005615  1  -1.117042  0  -0.326683  -0.517149  0  2.335805  0
O  O119  1  0.49300407  0.02005702  0.87522634  1  -1.119906  0  -0.326668  -0.517123  0  2.335992  0
O  O120  1  0.50699290  0.38829440  0.12476902  1  -1.124018  0  -0.326668  -0.517048  0  2.336114  0
O  O121  1  0.50700344  0.12477301  0.97994100  1  -1.120003  0  -0.326724  -0.517136  0  2.336033  0
O  O122  1  0.02005775  0.87522684  0.49299397  1  -1.119977  0  -0.326705  -0.517207  0  2.335703  0
O  O123  1  0.61170499  0.49300763  0.87522838  1  -1.123985  0  -0.326643  -0.517033  0  2.336181  0
O  O124  1  0.87522843  0.02005773  0.61170970  1  -1.116933  0  -0.326659  -0.517048  0  2.336058  0
O  O125  1  0.02005926  0.49298430  0.61173161  1  -1.117254  0  -0.326601  -0.517035  0  2.33562  0
O  O126  1  0.61171944  0.87522747  0.02005658  1  -1.117144  0  -0.326693  -0.517161  0  2.335852  0
O  O127  1  0.87523276  0.61169843  0.49301144  1  -1.12413  0  -0.326731  -0.517028  0  2.336145  0
O  O128  1  0.12476865  0.50698638  0.38830087  1  -1.12386  0  -0.326712  -0.517031  0  2.336293  0
O  O129  1  0.38828911  0.97994212  0.12476977  1  -1.116915  0  -0.326713  -0.517179  0  2.335896  0
O  O130  1  0.97994203  0.38826617  0.50701577  1  -1.117212  0  -0.326609  -0.517047  0  2.335689  0
O  O131  1  0.97994273  0.12477190  0.38827845  1  -1.116652  0  -0.326712  -0.517186  0  2.335632  0
O  O132  1  0.50699705  0.12477031  0.38829022  1  -1.124205  0  -0.326708  -0.517113  0  2.335985  0
O  O133  1  0.97994412  0.38829621  0.12476840  1  -1.116847  0  -0.326649  -0.517049  0  2.335902  0
O  O134  1  0.38827785  0.97994220  0.50700462  1  -1.116738  0  -0.32666  -0.517152  0  2.335677  0
O  O135  1  0.12477601  0.50701020  0.97994062  1  -1.119831  0  -0.326655  -0.517115  0  2.3357  0
O  O136  1  0.02005658  0.49300900  0.87522983  1  -1.119735  0  -0.326671  -0.517041  0  2.336072  0
O  O137  1  0.87522582  0.61172695  0.02005749  1  -1.116658  0  -0.326707  -0.517165  0  2.335705  0
O  O138  1  0.87522764  0.02005704  0.49299344  1  -1.119938  0  -0.3267  -0.517184  0  2.335638  0
O  O139  1  0.61170673  0.49300800  0.02005461  1  -1.116647  0  -0.326652  -0.517035  0  2.336072  0
O  O140  1  0.61170913  0.87522843  0.49300285  1  -1.124214  0  -0.326694  -0.517109  0  2.336025  0
O  O141  1  0.49299524  0.02005692  0.61172088  1  -1.116941  0  -0.326688  -0.517185  0  2.335706  0
O  O142  1  0.50699441  0.38829409  0.97994077  1  -1.116727  0  -0.326664  -0.517053  0  2.33613  0
O  O143  1  0.50700482  0.97994258  0.12477083  1  -1.120139  0  -0.326675  -0.517073  0  2.335913  0
O  O144  1  0.49299126  0.61172508  0.87522389  1  -1.124231  0  -0.326689  -0.517184  0  2.335718  0
O  O145  1  0.49300275  0.87522921  0.02005429  1  -1.119746  0  -0.326699  -0.51719  0  2.335962  0
O  O146  1  0.97994446  0.12477140  0.50699367  1  -1.119936  0  -0.326635  -0.516995  0  2.336177  0
O  O147  1  0.38827500  0.50700874  0.12477376  1  -1.124296  0  -0.326679  -0.517177  0  2.335732  0
O  O148  1  0.12477382  0.97994160  0.38827942  1  -1.116822  0  -0.326649  -0.51713  0  2.335745  0
O  O149  1  0.97994489  0.50698613  0.38830011  1  -1.116551  0  -0.326694  -0.517003  0  2.336189  0
O  O150  1  0.38828923  0.12477191  0.97994038  1  -1.116894  0  -0.326641  -0.517095  0  2.335912  0
O  O151  1  0.12477711  0.38826711  0.50701426  1  -1.124433  0  -0.326606  -0.517062  0  2.335639  0
O  O152  1  0.87522510  0.49298322  0.61173168  1  -1.124341  0  -0.326596  -0.517011  0  2.335617  0
O  O153  1  0.61171943  0.02005819  0.87522574  1  -1.116801  0  -0.32668  -0.517131  0  2.335849  0
O  O154  1  0.02005675  0.61169783  0.49301281  1  -1.116576  0  -0.326734  -0.517047  0  2.336215  0
O  O155  1  0.02005917  0.87522709  0.61170940  1  -1.116845  0  -0.32662  -0.51703  0  2.336092  0
