# generated using pymatgen
data_CoPH10C3NO8
_symmetry_space_group_name_H-M   'P 1'
_cell_length_a   5.35960672
_cell_length_b   7.79497407
_cell_length_c   9.84226666
_cell_angle_alpha   90.00175433
_cell_angle_beta   90.00006728
_cell_angle_gamma   97.75599184
_symmetry_Int_Tables_number   1
_chemical_formula_structural   CoPH10C3NO8
_chemical_formula_sum   'Co2 P2 H20 C6 N2 O16'
_cell_volume   407.42851708
_cell_formula_units_Z   2
loop_
 _symmetry_equiv_pos_site_id
 _symmetry_equiv_pos_as_xyz
  1  'x, y, z'
loop_
 _atom_site_type_symbol
 _atom_site_label
 _atom_site_symmetry_multiplicity
 _atom_site_fract_x
 _atom_site_fract_y
 _atom_site_fract_z
 _atom_site_occupancy
 _atom_site_hle17_ddec_charge
 _atom_site_hle17_ddec_spin_density
 _atom_site_hle17_ddec_sum_bond_order
 _atom_site_hle17_magmom
 _atom_site_hse06_10hf_ddec_charge
 _atom_site_hse06_10hf_ddec_spin_density
 _atom_site_hse06_10hf_ddec_sum_bond_order
 _atom_site_hse06_10hf_magmom
 _atom_site_hse06_ddec_charge
 _atom_site_hse06_ddec_spin_density
 _atom_site_hse06_ddec_sum_bond_order
 _atom_site_hse06_magmom
 _atom_site_pbe_cm5_charge
 _atom_site_pbe_ddec_charge
 _atom_site_pbe_ddec_spin_density
 _atom_site_pbe_ddec_sum_bond_order
 _atom_site_pbe_magmom
Co  Co0  1  0.18583444  0.51837042  0.06591106  1  1.227187  -2.867135  1.76313  -2.628  1.199668  -2.862739  2.146726  -2.689  1.268073  -2.903704  2.079409  -2.753  0.651253  1.14145  -2.818053  2.197966  -2.624
Co  Co1  1  0.81416247  0.48162166  0.56589800  1  1.227329  2.867126  1.762985  2.628  1.199808  2.86272  2.146498  2.689  1.268263  2.90369  2.079184  2.753  0.651261  1.14158  2.818058  2.197724  2.624
P  P2  1  0.68407196  0.37900079  0.24501764  1  1.716934  -0.002951  4.852771  -0.005  1.540838  -0.003546  5.371967  -0.006  1.603111  -0.002922  5.318728  -0.005  0.427747  1.495112  -0.004191  5.408912  -0.006
P  P3  1  0.31588222  0.62101054  0.74501581  1  1.716827  0.002951  4.853134  0.005  1.540931  0.003542  5.371961  0.006  1.603189  0.002927  5.318609  0.005  0.427733  1.495153  0.004191  5.409099  0.006
H  H4  1  0.71510738  0.53889916  0.00831378  1  0.437281  0.000355  0.851537  0.0  0.408204  9.9e-05  0.923266  -0.001  0.418467  0.000199  0.908417  -0.001  0.304644  0.400657  1e-06  0.932548  -0.001
H  H5  1  0.28484130  0.46104261  0.50832059  1  0.437228  -0.000356  0.851605  0.0  0.408287  -0.0001  0.923143  0.001  0.418554  -0.000199  0.908284  0.001  0.304735  0.400727  -1e-06  0.932412  0.001
H  H6  1  0.89083592  0.56797340  0.87194324  1  0.439478  0.000237  0.864793  0.001  0.409644  -6.3e-05  0.927177  0.0  0.421215  -3.3e-05  0.910479  0.0  0.30015  0.401093  -0.000109  0.939468  0.0
H  H7  1  0.10910607  0.43197874  0.37194739  1  0.439325  -0.000238  0.86501  -0.001  0.409477  6.3e-05  0.927413  0.0  0.421046  3.3e-05  0.910717  0.0  0.300108  0.400918  0.000108  0.939713  0.0
H  H8  1  0.27647265  0.24059325  0.92759794  1  0.422022  0.000121  0.880984  0.001  0.389172  -7e-05  0.949744  0.0  0.400682  2.7e-05  0.933091  0.0  0.290589  0.380789  -0.000179  0.961874  0.0
H  H9  1  0.72351964  0.75938577  0.42754653  1  0.422043  -0.00012  0.880977  -0.001  0.389215  7e-05  0.949695  0.0  0.400747  -2.7e-05  0.933002  0.0  0.290605  0.38082  0.000179  0.96184  0.0
H  H10  1  0.98467626  0.26677168  0.90386438  1  0.427739  0.000249  0.833983  0.001  0.396617  -0.000113  0.916178  0.0  0.407561  -8e-06  0.902905  0.0  0.306727  0.388353  -0.000197  0.92608  0.0
H  H11  1  0.01530913  0.73319287  0.40381033  1  0.427852  -0.000249  0.833853  -0.001  0.396688  0.000113  0.916128  0.0  0.407634  8e-06  0.902845  0.0  0.306695  0.388406  0.000197  0.926062  0.0
H  H12  1  0.62622015  0.02131784  0.98674582  1  0.347641  3.9e-05  0.860649  0.0  0.323087  5.1e-05  0.927298  0.0  0.331274  3.2e-05  0.920745  0.0  0.315564  0.317378  5.9e-05  0.931808  0.0
H  H13  1  0.37367817  0.97865850  0.48677790  1  0.347456  -3.9e-05  0.860618  0.0  0.322792  -5.1e-05  0.927538  0.0  0.330981  -3.1e-05  0.920982  0.0  0.315375  0.317082  -5.9e-05  0.932039  0.0
H  H14  1  0.54157967  0.80231550  0.97695492  1  0.353153  0.000365  0.882064  0.0  0.326669  0.000331  0.951877  0.0  0.336074  0.000322  0.944086  0.0  0.310985  0.319914  0.000341  0.957495  0.0
H  H15  1  0.45853861  0.19764209  0.47698996  1  0.353283  -0.000366  0.88184  0.0  0.32683  -0.000331  0.951664  0.0  0.336258  -0.000322  0.943846  0.0  0.311014  0.320078  -0.000341  0.957261  0.0
H  H16  1  0.84291900  0.88294778  0.97608682  1  0.335268  -2.7e-05  0.826603  0.0  0.322379  -5e-05  0.877211  0.0  0.329028  -9e-06  0.872208  0.0  0.329758  0.317574  -9.3e-05  0.88103  0.0
H  H17  1  0.15713441  0.11717548  0.47611457  1  0.335382  2.7e-05  0.826284  0.0  0.322551  5e-05  0.876869  0.0  0.329211  9e-06  0.871846  0.0  0.329823  0.317733  9.3e-05  0.880691  0.0
H  H18  1  0.81760175  0.05056682  0.33809566  1  0.060326  0.000123  0.934046  0.0  0.07185  0.000179  1.002587  0.0  0.07356  0.000101  1.000165  0.0  0.105297  0.070486  0.000265  1.004533  0.0
H  H19  1  0.18244255  0.94949191  0.83814591  1  0.060635  -0.000123  0.93389  0.0  0.072149  -0.00018  1.00241  0.0  0.073872  -0.000102  0.999977  0.0  0.105369  0.070779  -0.000265  1.004396  0.0
H  H20  1  0.99313638  0.10490842  0.18416421  1  0.084661  9.5e-05  0.92549  0.0  0.095505  0.000109  0.990432  0.0  0.097609  0.00012  0.988274  0.0  0.1086  0.093871  9.6e-05  0.992145  0.0
H  H21  1  0.00686190  0.89512102  0.68421942  1  0.084748  -9.5e-05  0.925526  0.0  0.095478  -0.000109  0.990495  0.0  0.097588  -0.00012  0.988351  0.0  0.108683  0.093859  -9.6e-05  0.992191  0.0
H  H22  1  0.82480097  0.79318142  0.18848940  1  0.103443  7.8e-05  0.93427  0.0  0.111216  7.9e-05  0.997104  0.0  0.114029  0.000118  0.995385  0.0  0.129355  0.10907  3e-05  0.998591  0.0
H  H23  1  0.17523534  0.20685218  0.68852334  1  0.103708  -7.8e-05  0.934141  0.0  0.111372  -7.9e-05  0.996999  0.0  0.114181  -0.000118  0.995284  0.0  0.129403  0.109222  -3e-05  0.998477  0.0
C  C24  1  0.80537842  0.06172067  0.22680310  1  0.088769  5.3e-05  3.612468  0.0  0.021912  5.2e-05  3.885909  0.0  0.030189  5.1e-05  3.889047  0.0  -0.062736  0.016253  4e-05  3.883859  0.0
C  C25  1  0.19465464  0.93827396  0.72685255  1  0.088263  -5.3e-05  3.61318  0.0  0.021538  -5.2e-05  3.886304  0.0  0.029764  -4.9e-05  3.889511  0.0  -0.062772  0.015856  -4e-05  3.884285  0.0
C  C26  1  0.69437896  0.88771622  0.16879392  1  0.013332  0.000307  3.537653  0.0  -0.012746  0.000169  3.7846  0.0  -0.014255  0.000185  3.794398  0.0  0.00582  -0.011651  0.000132  3.778103  0.0
C  C27  1  0.30559719  0.11227987  0.66883359  1  0.012694  -0.000307  3.538002  0.0  -0.013076  -0.00017  3.784615  0.0  -0.014577  -0.000187  3.794427  0.0  0.005579  -0.011977  -0.000133  3.778104  0.0
C  C28  1  0.43828456  0.82200915  0.23382466  1  0.663616  -0.004026  3.864425  -0.005  0.608264  -0.005613  4.181741  -0.007  0.642625  -0.004095  4.172969  -0.006  0.212229  0.584134  -0.007297  4.187477  -0.01
C  C29  1  0.56170121  0.17805326  0.73384403  1  0.66358  0.004026  3.863993  0.005  0.608083  0.005616  4.18156  0.007  0.64245  0.004097  4.172805  0.006  0.212141  0.583956  0.0073  4.187277  0.01
N  N30  1  0.67373693  0.90224772  0.01825689  1  -0.495855  0.000102  3.169973  0.0  -0.447744  5.6e-05  3.373532  0.0  -0.461882  9.3e-05  3.370019  0.0  -0.606091  -0.438094  -1.1e-05  3.376405  0.0
N  N31  1  0.32627129  0.09775814  0.51828854  1  -0.495491  -0.000101  3.169231  0.0  -0.447568  -5.6e-05  3.372854  0.0  -0.461698  -9.3e-05  3.369316  0.0  -0.606017  -0.43795  1.2e-05  3.375754  0.0
O  O32  1  0.87753891  0.59449056  0.97125188  1  -0.858355  -0.033332  2.000609  -0.057  -0.820713  -0.027117  2.2278  -0.042  -0.849479  -0.022402  2.194251  -0.034  -0.580673  -0.798799  -0.030948  2.250461  -0.048
O  O33  1  0.12239940  0.40541746  0.47126068  1  -0.858204  0.033349  2.000831  0.057  -0.820649  0.027132  2.227723  0.042  -0.849443  0.022414  2.194241  0.034  -0.580796  -0.798743  0.030965  2.250341  0.048
O  O34  1  0.51846185  0.47432707  0.15498987  1  -0.901656  -0.020266  2.045672  -0.032  -0.83113  -0.018423  2.328128  -0.024  -0.864472  -0.015802  2.301528  -0.02  -0.370078  -0.805481  -0.020678  2.347041  -0.028
O  O35  1  0.48146854  0.52569273  0.65495601  1  -0.901601  0.020254  2.045354  0.032  -0.831238  0.018418  2.327943  0.024  -0.864586  0.015794  2.301344  0.02  -0.370054  -0.805603  0.020669  2.346814  0.028
O  O36  1  0.11874262  0.26903663  0.97212806  1  -0.822106  -0.028499  1.920249  -0.049  -0.789469  -0.024782  2.143066  -0.038  -0.81343  -0.020393  2.107947  -0.031  -0.563436  -0.770694  -0.028858  2.168166  -0.044
O  O37  1  0.88123343  0.73091935  0.47207314  1  -0.82223  0.028496  1.919892  0.049  -0.789658  0.024782  2.142736  0.038  -0.81362  0.020393  2.107576  0.031  -0.56347  -0.770895  0.028855  2.167858  0.044
O  O38  1  0.96673660  0.44610864  0.22859202  1  -0.914994  -0.038504  2.086847  -0.061  -0.850039  -0.030173  2.37148  -0.042  -0.887106  -0.024323  2.347952  -0.033  -0.373803  -0.819906  -0.035993  2.386136  -0.051
O  O39  1  0.03324638  0.55393141  0.72856283  1  -0.915105  0.038486  2.087164  0.061  -0.850234  0.030168  2.37189  0.042  -0.887266  0.02432  2.348261  0.033  -0.373989  -0.820119  0.035976  2.386566  0.051
O  O40  1  0.63475615  0.18091520  0.18943259  1  -0.525865  0.001683  2.198622  0.003  -0.441082  0.001293  2.449212  0.002  -0.461982  0.000994  2.438335  0.001  -0.227041  -0.426081  0.001519  2.456362  0.002
O  O41  1  0.36530430  0.81911588  0.68946690  1  -0.52569  -0.001681  2.198737  -0.002  -0.440828  -0.00129  2.449049  -0.002  -0.461754  -0.000994  2.438275  -0.001  -0.22698  -0.425824  -0.001518  2.456201  -0.002
O  O42  1  0.61532386  0.37050088  0.39678137  1  -0.917248  0.026189  2.069569  0.04  -0.846856  0.021757  2.346006  0.028  -0.882941  0.017974  2.324542  0.022  -0.375314  -0.818291  0.025571  2.359718  0.034
O  O43  1  0.38469311  0.62942049  0.89676957  1  -0.916822  -0.026178  2.069204  -0.04  -0.84674  -0.021748  2.345925  -0.028  -0.882707  -0.017968  2.324396  -0.022  -0.37515  -0.818134  -0.025568  2.359647  -0.034
O  O44  1  0.24827573  0.78692889  0.15779604  1  -0.638756  -0.012473  2.006448  -0.019  -0.602603  -0.010688  2.270967  -0.013  -0.629538  -0.009103  2.257407  -0.01  -0.323347  -0.582418  -0.012415  2.280031  -0.015
O  O45  1  0.75175872  0.21309239  0.65781824  1  -0.638673  0.012485  2.00582  0.019  -0.602462  0.010691  2.270353  0.013  -0.629413  0.009106  2.256796  0.01  -0.323227  -0.582272  0.012418  2.279388  0.015
O  O46  1  0.43943323  0.80778831  0.36286882  1  -0.646248  -0.00431  1.965073  -0.007  -0.582647  -0.003978  2.18564  -0.007  -0.608531  -0.00299  2.17527  -0.005  -0.316101  -0.564622  -0.00506  2.19283  -0.008
O  O47  1  0.56062350  0.19225389  0.86288980  1  -0.646303  0.00431  1.965261  0.007  -0.582742  0.003978  2.185909  0.007  -0.608556  0.002988  2.175418  0.005  -0.316168  -0.564749  0.005059  2.193124  0.008
