# generated using pymatgen
data_Ag3H13C9S(NO4)2
_symmetry_space_group_name_H-M   'P 1'
_cell_length_a   7.52648107
_cell_length_b   8.33449797
_cell_length_c   13.69757308
_cell_angle_alpha   77.23784322
_cell_angle_beta   75.71895580
_cell_angle_gamma   71.90845895
_symmetry_Int_Tables_number   1
_chemical_formula_structural   Ag3H13C9S(NO4)2
_chemical_formula_sum   'Ag6 H26 C18 S2 N4 O16'
_cell_volume   781.74982962
_cell_formula_units_Z   2
loop_
 _symmetry_equiv_pos_site_id
 _symmetry_equiv_pos_as_xyz
  1  'x, y, z'
loop_
 _atom_site_type_symbol
 _atom_site_label
 _atom_site_symmetry_multiplicity
 _atom_site_fract_x
 _atom_site_fract_y
 _atom_site_fract_z
 _atom_site_occupancy
 _atom_site_hle17_bader_spin_density
 _atom_site_hle17_ddec_charge
 _atom_site_hle17_ddec_spin_density
 _atom_site_hle17_ddec_sum_bond_order
 _atom_site_hle17_magmom
 _atom_site_hse06_10hf_bader_spin_density
 _atom_site_hse06_10hf_ddec_charge
 _atom_site_hse06_10hf_ddec_spin_density
 _atom_site_hse06_10hf_ddec_sum_bond_order
 _atom_site_hse06_10hf_magmom
 _atom_site_hse06_bader_spin_density
 _atom_site_hse06_ddec_charge
 _atom_site_hse06_ddec_spin_density
 _atom_site_hse06_ddec_sum_bond_order
 _atom_site_hse06_magmom
 _atom_site_pbe_bader_spin_density
 _atom_site_pbe_cm5_charge
 _atom_site_pbe_ddec_charge
 _atom_site_pbe_ddec_spin_density
 _atom_site_pbe_ddec_sum_bond_order
 _atom_site_pbe_magmom
Ag  Ag0  1  0.26318006  0.86576007  0.33288389  1  0  0.552044  0  1.462129  0  0  0.43817  0  1.930616  0  0  0.46563  0  1.876066  0  0  0.424376  0.418947  0  1.96823  0
Ag  Ag1  1  0.73682478  0.13424289  0.66711225  1  0  0.552042  0  1.462085  0  0  0.438172  0  1.930552  0  0  0.465635  0  1.875995  0  0  0.424371  0.418939  0  1.96819  0
Ag  Ag2  1  0.50000266  0.99999504  0.99999773  1  0  0.502464  0  1.445271  0  0  0.3726  0  1.948796  0  0  0.41899  0  1.867572  0  0  0.341147  0.339632  0  2.00575  0
Ag  Ag3  1  0.00000279  0.00000084  0.49999858  1  0  0.470663  0  1.554983  0  0  0.341157  0  2.049974  0  0  0.379136  0  1.986912  0  0  0.384402  0.314816  0  2.093561  0
Ag  Ag4  1  0.47060372  0.67406647  0.09425611  1  0  0.550863  0  1.414265  0  0  0.428355  0  1.875555  0  0  0.45956  0  1.81571  0  0  0.431  0.405656  0  1.917492  0
Ag  Ag5  1  0.52939138  0.32593253  0.90574477  1  0  0.550897  0  1.41426  0  0  0.428391  0  1.875568  0  0  0.459595  0  1.815721  0  0  0.431029  0.405691  0  1.917503  0
H  H6  1  0.05586014  0.31367548  0.27656342  1  0  0.094942  0  0.971877  0  0  0.104901  0  1.035536  0  0  0.108938  0  1.031704  0  0  0.104035  0.101829  0  1.038618  0
H  H7  1  0.94414060  0.68632747  0.72343328  1  0  0.094991  0  0.971805  0  0  0.104953  0  1.03546  0  0  0.108994  0  1.031623  0  0  0.104046  0.101881  0  1.038544  0
H  H8  1  0.72591784  0.34817729  0.37620283  1  0  0.114502  0  0.97949  0  0  0.120639  0  1.039745  0  0  0.124716  0  1.037519  0  0  0.102388  0.117701  0  1.041426  0
H  H9  1  0.27408269  0.65182185  0.62379364  1  0  0.114601  0  0.979446  0  0  0.120731  0  1.039687  0  0  0.124808  0  1.037464  0  0  0.102437  0.117792  0  1.041367  0
H  H10  1  0.62830189  0.47416333  0.53451489  1  0  0.100315  0  0.985654  0  0  0.110312  0  1.048779  0  0  0.113561  0  1.046514  0  0  0.10255  0.107926  0  1.05059  0
H  H11  1  0.37170198  0.52582940  0.46548266  1  0  0.100288  0  0.98565  0  0  0.11031  0  1.048748  0  0  0.113558  0  1.046484  0  0  0.102551  0.107923  0  1.050559  0
H  H12  1  0.66743181  0.93752992  0.24161448  1  0  0.103132  0  0.909884  0  0  0.124165  0  0.96109  0  0  0.124814  0  0.961342  0  0  0.116303  0.123632  0  0.961046  0
H  H13  1  0.33256799  0.06247164  0.75838617  1  0  0.103151  0  0.909889  0  0  0.124194  0  0.961072  0  0  0.124844  0  0.96132  0  0  0.116299  0.123659  0  0.961026  0
H  H14  1  0.72300507  0.72186457  0.30068069  1  0  0.099629  0  0.924704  0  0  0.119864  0  0.979922  0  0  0.119581  0  0.982155  0  0  0.112575  0.120033  0  0.978426  0
H  H15  1  0.27699782  0.27813581  0.69931676  1  0  0.099666  0  0.924705  0  0  0.119884  0  0.979925  0  0  0.1196  0  0.982159  0  0  0.112599  0.120054  0  0.978427  0
H  H16  1  0.08279313  0.54788748  0.15107242  1  0  0.094505  0  0.948204  0  0  0.110609  0  1.010657  0  0  0.110903  0  1.011571  0  0  0.108636  0.110351  0  1.010124  0
H  H17  1  0.91719560  0.45211892  0.84893644  1  0  0.094441  0  0.948105  0  0  0.110571  0  1.010559  0  0  0.110866  0  1.011485  0  0  0.108627  0.110313  0  1.010026  0
H  H18  1  0.14917383  0.57455853  0.01716151  1  0  0.100218  0  0.951861  0  0  0.117952  0  1.010668  0  0  0.119715  0  1.009579  0  0  0.108935  0.116662  0  1.011496  0
H  H19  1  0.85082192  0.42543390  0.98284594  1  0  0.100197  0  0.951943  0  0  0.117937  0  1.010764  0  0  0.119701  0  1.009684  0  0  0.108938  0.116647  0  1.011592  0
H  H20  1  0.15143902  0.86935921  0.02753333  1  0  0.296842  0  0.908949  0  0  0.287172  0  0.963375  0  0  0.293478  0  0.959454  0  0  0.289644  0.282656  0  0.966218  0
H  H21  1  0.84855334  0.13063976  0.97246866  1  0  0.296844  0  0.908902  0  0  0.287171  0  0.963332  0  0  0.293477  0  0.959409  0  0  0.289653  0.282655  0  0.966177  0
H  H22  1  0.10782560  0.82044788  0.15261381  1  0  0.297348  0  0.932635  0  0  0.286665  0  0.986345  0  0  0.293533  0  0.982618  0  0  0.285037  0.28177  0  0.989005  0
H  H23  1  0.89217206  0.17955620  0.84738755  1  0  0.297307  0  0.932714  0  0  0.286633  0  0.986396  0  0  0.293498  0  0.982676  0  0  0.285034  0.281738  0  0.989056  0
H  H24  1  0.46693667  0.01400307  0.39888002  1  0  0.302436  0  0.925011  0  0  0.287673  0  0.988019  0  0  0.294292  0  0.983619  0  0  0.288281  0.282965  0  0.991127  0
H  H25  1  0.53306529  0.98599592  0.60112139  1  0  0.302461  0  0.925016  0  0  0.287661  0  0.988069  0  0  0.294282  0  0.983663  0  0  0.288278  0.282948  0  0.991192  0
H  H26  1  0.51279417  0.81617138  0.45690049  1  0  0.296937  0  0.898837  0  0  0.289699  0  0.951198  0  0  0.294379  0  0.949613  0  0  0.29415  0.286371  0  0.95232  0
H  H27  1  0.48720953  0.18382640  0.54309864  1  0  0.296937  0  0.89886  0  0  0.289639  0  0.951275  0  0  0.294318  0  0.949691  0  0  0.294135  0.286312  0  0.952397  0
H  H28  1  0.32414660  0.18425582  0.17896893  1  0  0.428988  0  0.877089  0  0  0.39805  0  0.941173  0  0  0.408562  0  0.925804  0  0  0.28669  0.39062  0  0.952008  0
H  H29  1  0.67585767  0.81574457  0.82102834  1  0  0.428981  0  0.8771  0  0  0.398038  0  0.941195  0  0  0.408549  0  0.925827  0  0  0.28667  0.390607  0  0.952032  0
H  H30  1  0.18140395  0.13669139  0.12895388  1  0  0.420967  0  0.829893  0  0  0.402253  0  0.8821  0  0  0.410672  0  0.873697  0  0  0.308843  0.396266  0  0.888078  0
H  H31  1  0.81859975  0.86330636  0.87104598  1  0  0.420941  0  0.829882  0  0  0.402228  0  0.882091  0  0  0.410647  0  0.873686  0  0  0.308837  0.396241  0  0.888066  0
C  C32  1  0.14528208  0.42007974  0.37880924  1  0  -0.152515  0  3.693774  0  0  -0.135106  0  3.945471  0  0  -0.140542  0  3.965866  0  0  -0.018248  -0.1318  0  3.932061  0
C  C33  1  0.85471573  0.57991934  0.62118908  1  0  -0.152312  0  3.693669  0  0  -0.13493  0  3.945328  0  0  -0.140366  0  3.965721  0  0  -0.018193  -0.131625  0  3.931914  0
C  C34  1  0.01456806  0.36943887  0.34620332  1  0  -0.07047  0  3.780289  0  0  -0.098737  0  4.040205  0  0  -0.097005  0  4.055929  0  0  -0.091153  -0.099894  0  4.030032  0
C  C35  1  0.98543621  0.63056149  0.65379468  1  0  -0.070551  0  3.780223  0  0  -0.098838  0  4.040144  0  0  -0.097108  0  4.055868  0  0  -0.091164  -0.099993  0  4.029967  0
C  C36  1  0.82748937  0.38850920  0.40296181  1  0  -0.064179  0  3.763004  0  0  -0.075458  0  4.021056  0  0  -0.077035  0  4.037287  0  0  -0.09578  -0.074538  0  4.010404  0
C  C37  1  0.17250958  0.61149507  0.59703351  1  0  -0.064333  0  3.763149  0  0  -0.075587  0  4.021202  0  0  -0.077165  0  4.037433  0  0  -0.095832  -0.074665  0  4.010545  0
C  C38  1  0.77327523  0.45843943  0.49160481  1  0  -0.125843  0  3.747719  0  0  -0.152148  0  4.010072  0  0  -0.151915  0  4.025487  0  0  -0.097499  -0.152444  0  4.000068  0
C  C39  1  0.22672317  0.54155325  0.50839422  1  0  -0.1259  0  3.747727  0  0  -0.152204  0  4.01015  0  0  -0.151968  0  4.025562  0  0  -0.097623  -0.1525  0  4.000144  0
C  C40  1  0.90414443  0.50985499  0.52866245  1  0  0.066377  0  3.733011  0  0  0.074963  0  3.959864  0  0  0.075456  0  3.983797  0  0  -0.001611  0.074594  0  3.943906  0
C  C41  1  0.09585572  0.49013642  0.47133650  1  0  0.066672  0  3.732802  0  0  0.075088  0  3.959819  0  0  0.07558  0  3.983751  0  0  -0.0015  0.074718  0  3.943865  0
C  C42  1  0.68228898  0.85423763  0.31513352  1  0  -0.076766  0  3.643028  0  0  -0.133881  0  3.894154  0  0  -0.134687  0  3.905353  0  0  -0.073259  -0.133379  0  3.886351  0
C  C43  1  0.31771297  0.14576139  0.68486642  1  0  -0.076921  0  3.643078  0  0  -0.133999  0  3.894131  0  0  -0.134802  0  3.905326  0  0  -0.073294  -0.133494  0  3.886319  0
C  C44  1  0.84502553  0.88233668  0.35133120  1  0  0.664938  0  3.844214  0  0  0.614712  0  4.132505  0  0  0.648873  0  4.130194  0  0  0.211531  0.591487  0  4.133154  0
C  C45  1  0.15497444  0.11766876  0.64866748  1  0  0.665155  0  3.844131  0  0  0.614948  0  4.13239  0  0  0.649108  0  4.130074  0  0  0.211644  0.591724  0  4.133035  0
C  C46  1  0.86766453  0.71999623  0.07069171  1  0  0.653543  0  3.876405  0  0  0.606868  0  4.168606  0  0  0.640714  0  4.165965  0  0  0.204911  0.583786  0  4.169506  0
C  C47  1  0.13233255  0.28000527  0.92931078  1  0  0.653734  0  3.876176  0  0  0.607034  0  4.168458  0  0  0.640888  0  4.16581  0  0  0.204988  0.583953  0  4.169358  0
C  C48  1  0.07556838  0.64342267  0.08198547  1  0  -0.084713  0  3.650889  0  0  -0.14179  0  3.899309  0  0  -0.142557  0  3.910182  0  0  -0.081922  -0.141274  0  3.891711  0
C  C49  1  0.92442189  0.35657869  0.91802162  1  0  -0.084605  0  3.650646  0  0  -0.1418  0  3.899337  0  0  -0.142586  0  3.910237  0  0  -0.081913  -0.141283  0  3.89174  0
S  S50  1  0.38298075  0.38485897  0.30622133  1  0  1.301706  0  5.620536  0  0  1.203288  0  6.131663  0  0  1.250304  0  6.110771  0  0  0.508639  1.170932  0  6.14486  0
S  S51  1  0.61702257  0.61514004  0.69377916  1  0  1.301637  0  5.620612  0  0  1.203167  0  6.131783  0  0  1.250185  0  6.110893  0  0  0.50859  1.170814  0  6.144972  0
N  N52  1  0.17267697  0.76938172  0.08634183  1  0  -0.586631  0  3.221673  0  0  -0.514079  0  3.478689  0  0  -0.537876  0  3.48029  0  0  -0.643493  -0.497152  0  3.477019  0
N  N53  1  0.82731696  0.23062106  0.91366020  1  0  -0.586616  0  3.221741  0  0  -0.514028  0  3.478796  0  0  -0.537816  0  3.480401  0  0  -0.64352  -0.497103  0  3.477121  0
N  N54  1  0.49924944  0.88946241  0.38695252  1  0  -0.583702  0  3.202624  0  0  -0.51792  0  3.464854  0  0  -0.540004  0  3.466416  0  0  -0.642327  -0.502273  0  3.463213  0
N  N55  1  0.50075661  0.11053664  0.61304687  1  0  -0.583677  0  3.202565  0  0  -0.517805  0  3.4648  0  0  -0.539889  0  3.466366  0  0  -0.642301  -0.50216  0  3.463154  0
O  O56  1  0.43819089  0.54482146  0.29006762  1  0  -0.679299  0  2.044186  0  0  -0.619029  0  2.330473  0  0  -0.642496  0  2.312782  0  0  -0.349573  -0.602334  0  2.342054  0
O  O57  1  0.56181066  0.45517885  0.70993222  1  0  -0.679278  0  2.044199  0  0  -0.619023  0  2.330542  0  0  -0.642491  0  2.312852  0  0  -0.349571  -0.602319  0  2.342103  0
O  O58  1  0.49841228  0.24406782  0.36905202  1  0  -0.645689  0  1.968283  0  0  -0.586574  0  2.203356  0  0  -0.608035  0  2.191672  0  0  -0.327972  -0.571432  0  2.210918  0
O  O59  1  0.50158633  0.75592866  0.63094796  1  0  -0.645758  0  1.968313  0  0  -0.586556  0  2.203339  0  0  -0.608019  0  2.191657  0  0  -0.327993  -0.57142  0  2.210908  0
O  O60  1  0.37797549  0.34146911  0.20814488  1  0  -0.693035  0  2.000959  0  0  -0.634511  0  2.255853  0  0  -0.655693  0  2.237564  0  0  -0.344949  -0.619491  0  2.267949  0
O  O61  1  0.62202687  0.65852860  0.79185663  1  0  -0.693023  0  2.000921  0  0  -0.634503  0  2.255849  0  0  -0.655684  0  2.23756  0  0  -0.344925  -0.619483  0  2.267941  0
O  O62  1  0.80873097  0.92336383  0.43920189  1  0  -0.574194  0  2.14979  0  0  -0.486003  0  2.416812  0  0  -0.520403  0  2.40999  0  0  -0.314321  -0.462353  0  2.420776  0
O  O63  1  0.19127606  0.07663649  0.56079720  1  0  -0.574184  0  2.149747  0  0  -0.486025  0  2.416782  0  0  -0.520426  0  2.40996  0  0  -0.31434  -0.462376  0  2.420745  0
O  O64  1  0.00502772  0.86105979  0.28954404  1  0  -0.621165  0  2.120082  0  0  -0.537728  0  2.376556  0  0  -0.57045  0  2.368067  0  0  -0.326066  -0.514792  0  2.381516  0
O  O65  1  0.99497459  0.13894696  0.71045344  1  0  -0.621313  0  2.120034  0  0  -0.537901  0  2.376526  0  0  -0.570621  0  2.368033  0  0  -0.326151  -0.514969  0  2.3815  0
O  O66  1  0.81147774  0.87876858  0.03890279  1  0  -0.63541  0  2.039637  0  0  -0.560005  0  2.283012  0  0  -0.591686  0  2.272246  0  0  -0.325226  -0.537987  0  2.289783  0
O  O67  1  0.18851345  0.12123421  0.96109888  1  0  -0.635545  0  2.03968  0  0  -0.560107  0  2.283066  0  0  -0.59179  0  2.272295  0  0  -0.325288  -0.53809  0  2.289838  0
O  O68  1  0.76969903  0.61179687  0.09224632  1  0  -0.606626  0  2.098864  0  0  -0.524573  0  2.360734  0  0  -0.557567  0  2.350346  0  0  -0.332273  -0.501101  0  2.366865  0
O  O69  1  0.23029764  0.38820595  0.90775461  1  0  -0.606737  0  2.098854  0  0  -0.524671  0  2.360747  0  0  -0.557664  0  2.350349  0  0  -0.332298  -0.5012  0  2.366881  0
O  O70  1  0.29075392  0.08716919  0.16246533  1  0  -0.826678  0  1.923264  0  0  -0.765666  0  2.151027  0  0  -0.788815  0  2.11697  0  0  -0.585625  -0.749178  0  2.174603  0
O  O71  1  0.70925035  0.91283117  0.83753268  1  0  -0.826635  0  1.923256  0  0  -0.765632  0  2.151029  0  0  -0.78878  0  2.116975  0  0  -0.585594  -0.74914  0  2.1746  0
