# generated using pymatgen
data_ErH9C9NO11
_symmetry_space_group_name_H-M   'P 1'
_cell_length_a   7.34652265
_cell_length_b   9.25813941
_cell_length_c   11.48624703
_cell_angle_alpha   73.39018015
_cell_angle_beta   70.58335340
_cell_angle_gamma   80.04360272
_symmetry_Int_Tables_number   1
_chemical_formula_structural   ErH9C9NO11
_chemical_formula_sum   'Er2 H18 C18 N2 O22'
_cell_volume   703.43646357
_cell_formula_units_Z   2
loop_
 _symmetry_equiv_pos_site_id
 _symmetry_equiv_pos_as_xyz
  1  'x, y, z'
loop_
 _atom_site_type_symbol
 _atom_site_label
 _atom_site_symmetry_multiplicity
 _atom_site_fract_x
 _atom_site_fract_y
 _atom_site_fract_z
 _atom_site_occupancy
 _atom_site_hle17_bader_spin_density
 _atom_site_hle17_ddec_charge
 _atom_site_hle17_ddec_spin_density
 _atom_site_hle17_ddec_sum_bond_order
 _atom_site_hle17_magmom
 _atom_site_hse06_10hf_bader_spin_density
 _atom_site_hse06_10hf_ddec_charge
 _atom_site_hse06_10hf_ddec_spin_density
 _atom_site_hse06_10hf_ddec_sum_bond_order
 _atom_site_hse06_10hf_magmom
 _atom_site_hse06_bader_spin_density
 _atom_site_hse06_ddec_charge
 _atom_site_hse06_ddec_spin_density
 _atom_site_hse06_ddec_sum_bond_order
 _atom_site_hse06_magmom
 _atom_site_pbe_bader_spin_density
 _atom_site_pbe_cm5_charge
 _atom_site_pbe_ddec_charge
 _atom_site_pbe_ddec_spin_density
 _atom_site_pbe_ddec_sum_bond_order
 _atom_site_pbe_magmom
Er  Er0  1  0.10697902  0.05282192  0.21954432  1  0  2.239278  0  1.617237  0  0  2.089657  0  2.100299  0  0  2.224852  0  1.895165  0  0  1.498102  2.054664  0  2.13079  0
Er  Er1  1  0.89303456  0.94717848  0.78045858  1  0  2.239365  0  1.616773  0  0  2.089736  0  2.099784  0  0  2.224917  0  1.894665  0  0  1.498015  2.054743  0  2.130248  0
H  H2  1  0.82017457  0.09771676  0.45974075  1  0  0.453893  0  0.840742  0  0  0.423192  0  0.903028  0  0  0.434783  0  0.886411  0  0  0.302537  0.415247  0  0.914556  0
H  H3  1  0.17987263  0.90228280  0.54023624  1  0  0.453966  0  0.840637  0  0  0.423266  0  0.90293  0  0  0.43486  0  0.886307  0  0  0.302566  0.415326  0  0.914452  0
H  H4  1  0.68545717  0.10098655  0.37259426  1  0  0.455513  0  0.836662  0  0  0.421339  0  0.904472  0  0  0.433114  0  0.887407  0  0  0.301206  0.413256  0  0.916288  0
H  H5  1  0.31455131  0.89900939  0.62740199  1  0  0.455403  0  0.836844  0  0  0.421233  0  0.904649  0  0  0.433005  0  0.88759  0  0  0.301188  0.413148  0  0.916472  0
H  H6  1  0.48007989  0.05627641  0.22775796  1  0  0.436472  0  0.863822  0  0  0.401564  0  0.934228  0  0  0.413453  0  0.916891  0  0  0.300196  0.393135  0  0.94669  0
H  H7  1  0.51991902  0.94371617  0.77223231  1  0  0.436468  0  0.863831  0  0  0.401578  0  0.934178  0  0  0.413462  0  0.916853  0  0  0.30028  0.393143  0  0.946645  0
H  H8  1  0.54710915  0.01448367  0.09222409  1  0  0.467607  0  0.815461  0  0  0.438962  0  0.871996  0  0  0.451303  0  0.854015  0  0  0.312038  0.430852  0  0.883777  0
H  H9  1  0.45290717  0.98550662  0.90777355  1  0  0.46769  0  0.815344  0  0  0.439047  0  0.871878  0  0  0.451388  0  0.853897  0  0  0.312098  0.430942  0  0.883646  0
H  H10  1  0.21187835  0.51569774  0.27904803  1  0  0.118338  0  0.921598  0  0  0.127938  0  0.980318  0  0  0.132775  0  0.975406  0  0  0.115748  0.124326  0  0.98382  0
H  H11  1  0.78813082  0.48431626  0.72094924  1  0  0.118369  0  0.921591  0  0  0.127944  0  0.98034  0  0  0.132775  0  0.975434  0  0  0.115751  0.124331  0  0.983839  0
H  H12  1  0.36985470  0.19662971  0.59452320  1  0  0.141752  0  0.919739  0  0  0.146142  0  0.985514  0  0  0.151067  0  0.980818  0  0  0.12749  0.142157  0  0.989705  0
H  H13  1  0.63013768  0.80336725  0.40548224  1  0  0.141697  0  0.91972  0  0  0.146097  0  0.985508  0  0  0.151023  0  0.980801  0  0  0.12749  0.142117  0  0.989695  0
H  H14  1  0.20886797  0.66528779  0.60136573  1  0  0.124034  0  0.9774  0  0  0.125726  0  1.052215  0  0  0.131127  0  1.046128  0  0  0.118876  0.121506  0  1.056891  0
H  H15  1  0.79113998  0.33469901  0.39864138  1  0  0.124036  0  0.977321  0  0  0.125694  0  1.052164  0  0  0.131073  0  1.046141  0  0  0.118865  0.121474  0  1.056839  0
H  H16  1  0.10420829  0.35721378  0.15958458  1  0  0.439303  0  0.82695  0  0  0.416985  0  0.884458  0  0  0.426341  0  0.871055  0  0  0.320983  0.409983  0  0.894887  0
H  H17  1  0.89576351  0.64278891  0.84040640  1  0  0.439095  0  0.827039  0  0  0.416789  0  0.884685  0  0  0.426146  0  0.871282  0  0  0.320869  0.409783  0  0.89512  0
H  H18  1  0.92161317  0.35954158  0.12043735  1  0  0.458381  0  0.811162  0  0  0.437061  0  0.855924  0  0  0.446361  0  0.842545  0  0  0.326839  0.430688  0  0.865317  0
H  H19  1  0.07838311  0.64045112  0.87953776  1  0  0.458385  0  0.811156  0  0  0.437063  0  0.855932  0  0  0.446361  0  0.842553  0  0  0.326836  0.430685  0  0.865333  0
C  C20  1  0.15723590  0.76512236  0.36335373  1  0  0.648757  0  3.922636  0  0  0.600043  0  4.216076  0  0  0.632105  0  4.22092  0  0  0.199481  0.577616  0  4.218993  0
C  C21  1  0.84273516  0.23487108  0.63666124  1  0  0.648836  0  3.922416  0  0  0.600009  0  4.21598  0  0  0.632087  0  4.220793  0  0  0.199461  0.577582  0  4.21889  0
C  C22  1  0.20884510  0.60764138  0.43096363  1  0  -0.054253  0  3.739467  0  0  -0.028797  0  3.977236  0  0  -0.038952  0  4.00075  0  0  -0.011669  -0.022245  0  3.960447  0
C  C23  1  0.79114806  0.39236124  0.56904037  1  0  -0.05412  0  3.739159  0  0  -0.028582  0  3.976884  0  0  -0.038736  0  4.000388  0  0  -0.011638  -0.022037  0  3.960098  0
C  C24  1  0.23463641  0.48978433  0.37201677  1  0  -0.031693  0  3.644814  0  0  -0.076314  0  3.902143  0  0  -0.071421  0  3.9177  0  0  -0.060765  -0.078346  0  3.890207  0
C  C25  1  0.76535596  0.51022508  0.62798588  1  0  -0.031655  0  3.644809  0  0  -0.076287  0  3.902116  0  0  -0.071389  0  3.917677  0  0  -0.060742  -0.078311  0  3.890169  0
C  C26  1  0.29278398  0.34184869  0.42934874  1  0  -0.054748  0  3.712659  0  0  -0.031889  0  3.958044  0  0  -0.041045  0  3.978801  0  0  -0.006194  -0.025966  0  3.94271  0
C  C27  1  0.70720728  0.65815849  0.57065027  1  0  -0.05495  0  3.712714  0  0  -0.032054  0  3.958055  0  0  -0.041225  0  3.978817  0  0  -0.006205  -0.026122  0  3.942721  0
C  C28  1  0.32298574  0.31038658  0.54828117  1  0  -0.068193  0  3.63627  0  0  -0.109159  0  3.898625  0  0  -0.104141  0  3.912921  0  0  -0.055637  -0.112122  0  3.889134  0
C  C29  1  0.67700020  0.68960475  0.45171990  1  0  -0.067955  0  3.636074  0  0  -0.108938  0  3.898454  0  0  -0.103905  0  3.912738  0  0  -0.055623  -0.111906  0  3.888965  0
C  C30  1  0.28761038  0.42866617  0.60815400  1  0  0.0584  0  3.705443  0  0  0.053903  0  3.965471  0  0  0.048488  0  3.989069  0  0  0.075697  0.057188  0  3.949466  0
C  C31  1  0.71239913  0.57133435  0.39183403  1  0  0.058142  0  3.705576  0  0  0.053641  0  3.965635  0  0  0.048223  0  3.989222  0  0  0.075673  0.056925  0  3.949635  0
C  C32  1  0.23245151  0.57655239  0.55183731  1  0  -0.08628  0  3.681468  0  0  -0.125258  0  3.93926  0  0  -0.121068  0  3.955331  0  0  -0.066423  -0.127036  0  3.927691  0
C  C33  1  0.76757225  0.42344810  0.44815825  1  0  -0.086291  0  3.681505  0  0  -0.125269  0  3.939377  0  0  -0.121092  0  3.955458  0  0  -0.066439  -0.127045  0  3.927804  0
C  C34  1  0.31727689  0.21848769  0.36252982  1  0  0.704658  0  3.844804  0  0  0.650851  0  4.139149  0  0  0.686355  0  4.131958  0  0  0.234301  0.627532  0  4.143654  0
C  C35  1  0.68271870  0.78152070  0.63746020  1  0  0.704747  0  3.844809  0  0  0.650942  0  4.139146  0  0  0.686468  0  4.131932  0  0  0.234288  0.627598  0  4.14368  0
C  C36  1  0.10766933  0.99019638  0.96227999  1  0  0.571811  0  3.909658  0  0  0.525902  0  4.203562  0  0  0.556032  0  4.203058  0  0  0.22654  0.505262  0  4.209278  0
C  C37  1  0.89234622  0.00982081  0.03774224  1  0  0.572617  0  3.90868  0  0  0.526772  0  4.20247  0  0  0.5569  0  4.201951  0  0  0.226864  0.506132  0  4.208188  0
N  N38  1  0.31695633  0.39761826  0.73391866  1  0  0.501895  0  3.89944  0  0  0.529246  0  4.199268  0  0  0.549498  0  4.208761  0  0  0.060521  0.51571  0  4.192532  0
N  N39  1  0.68303627  0.60237761  0.26608088  1  0  0.502121  0  3.899532  0  0  0.529506  0  4.199311  0  0  0.549767  0  4.208784  0  0  0.060518  0.515972  0  4.192576  0
O  O40  1  0.16355631  0.87794785  0.40565144  1  0  -0.696994  0  2.032375  0  0  -0.636864  0  2.268083  0  0  -0.672457  0  2.259729  0  0  -0.362369  -0.618868  0  2.273106  0
O  O41  1  0.83646223  0.12204691  0.59435344  1  0  -0.697003  0  2.032557  0  0  -0.636808  0  2.268292  0  0  -0.672396  0  2.259921  0  0  -0.362321  -0.618807  0  2.273307  0
O  O42  1  0.11041825  0.78734286  0.26198689  1  0  -0.68734  0  1.948925  0  0  -0.646977  0  2.184488  0  0  -0.682663  0  2.176712  0  0  -0.380523  -0.629616  0  2.188871  0
O  O43  1  0.88953311  0.21265721  0.73804111  1  0  -0.687523  0  1.948741  0  0  -0.647121  0  2.184331  0  0  -0.682818  0  2.176543  0  0  -0.380611  -0.629765  0  2.188726  0
O  O44  1  0.18601024  0.22318315  0.31047401  1  0  -0.752514  0  2.027171  0  0  -0.694355  0  2.279805  0  0  -0.733964  0  2.267032  0  0  -0.390318  -0.674361  0  2.285479  0
O  O45  1  0.81396695  0.77682056  0.68953131  1  0  -0.752496  0  2.027169  0  0  -0.694328  0  2.279765  0  0  -0.733941  0  2.266982  0  0  -0.390207  -0.674326  0  2.285442  0
O  O46  1  0.46029643  0.12035412  0.36063531  1  0  -0.607423  0  1.979759  0  0  -0.543563  0  2.191827  0  0  -0.568156  0  2.18  0  0  -0.286356  -0.525678  0  2.198757  0
O  O47  1  0.53971640  0.87966916  0.63933474  1  0  -0.607428  0  1.979667  0  0  -0.543611  0  2.19175  0  0  -0.568213  0  2.179916  0  0  -0.286426  -0.525705  0  2.198676  0
O  O48  1  0.37827340  0.26854848  0.77998323  1  0  -0.311381  0  1.773847  0  0  -0.292672  0  1.979594  0  0  -0.302224  0  1.97535  0  0  -0.09329  -0.286  0  1.982499  0
O  O49  1  0.62164574  0.73143233  0.22004531  1  0  -0.311402  0  1.77394  0  0  -0.292757  0  1.979749  0  0  -0.302333  0  1.975521  0  0  -0.093234  -0.286083  0  1.982651  0
O  O50  1  0.28303817  0.50481854  0.78593754  1  0  -0.397922  0  1.760283  0  0  -0.380729  0  1.966791  0  0  -0.393506  0  1.960683  0  0  -0.142685  -0.371971  0  1.971011  0
O  O51  1  0.71701471  0.49519345  0.21404071  1  0  -0.397996  0  1.76022  0  0  -0.380808  0  1.966694  0  0  -0.393571  0  1.960575  0  0  -0.142712  -0.372049  0  1.970912  0
O  O52  1  0.82181856  0.08642668  0.37554728  1  0  -0.952014  0  1.853764  0  0  -0.902638  0  2.068253  0  0  -0.935953  0  2.026669  0  0  -0.661953  -0.888299  0  2.092976  0
O  O53  1  0.17819820  0.91356144  0.62443944  1  0  -0.952102  0  1.853766  0  0  -0.90275  0  2.06822  0  0  -0.936068  0  2.026635  0  0  -0.661994  -0.88837  0  2.092854  0
O  O54  1  0.43256530  0.04196337  0.16046591  1  0  -0.950748  0  1.898877  0  0  -0.900904  0  2.105295  0  0  -0.933785  0  2.060945  0  0  -0.676453  -0.886689  0  2.129966  0
O  O55  1  0.56743442  0.95803489  0.83952118  1  0  -0.950807  0  1.898699  0  0  -0.900938  0  2.105129  0  0  -0.933813  0  2.060767  0  0  -0.676567  -0.886721  0  2.129807  0
O  O56  1  0.05410304  0.31243103  0.10990278  1  0  -0.875141  0  1.812973  0  0  -0.83386  0  1.978877  0  0  -0.862172  0  1.9409  0  0  -0.615876  -0.822135  0  2.000087  0
O  O57  1  0.94588571  0.68754902  0.89009675  1  0  -0.874937  0  1.812906  0  0  -0.833659  0  1.978912  0  0  -0.861968  0  1.940934  0  0  -0.615746  -0.821936  0  2.00012  0
O  O58  1  0.22783697  0.01154314  0.01247516  1  0  -0.648624  0  2.085124  0  0  -0.590333  0  2.318584  0  0  -0.626664  0  2.306814  0  0  -0.345121  -0.57255  0  2.324314  0
O  O59  1  0.77218877  0.98846048  0.98755150  1  0  -0.648966  0  2.084923  0  0  -0.590661  0  2.318328  0  0  -0.626972  0  2.306534  0  0  -0.345223  -0.572872  0  2.324062  0
O  O60  1  0.14743013  0.95489426  0.85779464  1  0  -0.644912  0  2.040551  0  0  -0.594335  0  2.282505  0  0  -0.62961  0  2.271359  0  0  -0.364929  -0.57741  0  2.287773  0
O  O61  1  0.85257935  0.04512515  0.14223095  1  0  -0.645216  0  2.040123  0  0  -0.59461  0  2.281993  0  0  -0.629885  0  2.27084  0  0  -0.365071  -0.577676  0  2.287265  0
