# generated using pymatgen
data_K2H52PtC44S4(NO3)4
_symmetry_space_group_name_H-M   'P 1'
_cell_length_a   8.98300075
_cell_length_b   12.51970232
_cell_length_c   12.94763261
_cell_angle_alpha   115.39494849
_cell_angle_beta   104.09395583
_cell_angle_gamma   96.10021386
_symmetry_Int_Tables_number   1
_chemical_formula_structural   K2H52PtC44S4(NO3)4
_chemical_formula_sum   'K2 H52 Pt1 C44 S4 N4 O12'
_cell_volume   1238.40845262
_cell_formula_units_Z   1
loop_
 _symmetry_equiv_pos_site_id
 _symmetry_equiv_pos_as_xyz
  1  'x, y, z'
loop_
 _atom_site_type_symbol
 _atom_site_label
 _atom_site_symmetry_multiplicity
 _atom_site_fract_x
 _atom_site_fract_y
 _atom_site_fract_z
 _atom_site_occupancy
 _atom_site_hle17_bader_spin_density
 _atom_site_hle17_ddec_charge
 _atom_site_hle17_ddec_spin_density
 _atom_site_hle17_ddec_sum_bond_order
 _atom_site_hle17_magmom
 _atom_site_hse06_10hf_bader_spin_density
 _atom_site_hse06_10hf_ddec_charge
 _atom_site_hse06_10hf_ddec_spin_density
 _atom_site_hse06_10hf_ddec_sum_bond_order
 _atom_site_hse06_10hf_magmom
 _atom_site_hse06_bader_spin_density
 _atom_site_hse06_ddec_charge
 _atom_site_hse06_ddec_spin_density
 _atom_site_hse06_ddec_sum_bond_order
 _atom_site_hse06_magmom
 _atom_site_pbe_bader_spin_density
 _atom_site_pbe_cm5_charge
 _atom_site_pbe_ddec_charge
 _atom_site_pbe_ddec_spin_density
 _atom_site_pbe_ddec_sum_bond_order
 _atom_site_pbe_magmom
K  K0  1  0.50810448  0.32135730  0.88274750  1  0  0.900511  0  0.541043  0  0  0.826122  0  0.747353  0  0  0.844581  0  0.724326  0  0  0.89061  0.812625  0  0.763568  0
K  K1  1  0.49188723  0.67864376  0.11724974  1  0  0.900507  0  0.541046  0  0  0.826109  0  0.747345  0  0  0.84456  0  0.724336  0  0  0.890611  0.812616  0  0.763556  0
H  H2  1  0.91128633  0.05540186  0.66123932  1  0  0.109245  0  0.978387  0  0  0.117193  0  1.048138  0  0  0.11981  0  1.0475  0  0  0.10002  0.115336  0  1.048628  0
H  H3  1  0.08871769  0.94459460  0.33875745  1  0  0.109207  0  0.978379  0  0  0.117211  0  1.04806  0  0  0.119832  0  1.047418  0  0  0.100028  0.115353  0  1.04855  0
H  H4  1  0.64030814  0.02757031  0.53594974  1  0  0.09087  0  0.965061  0  0  0.103826  0  1.025553  0  0  0.106398  0  1.024127  0  0  0.100168  0.101953  0  1.026672  0
H  H5  1  0.35969525  0.97242797  0.46405076  1  0  0.090822  0  0.965097  0  0  0.103758  0  1.025611  0  0  0.106358  0  1.02415  0  0  0.100138  0.101885  0  1.026728  0
H  H6  1  0.45640428  0.07419969  0.39172777  1  0  0.078378  0  0.976721  0  0  0.089407  0  1.040503  0  0  0.091911  0  1.039535  0  0  0.091802  0.087511  0  1.04143  0
H  H7  1  0.54359882  0.92580497  0.60827684  1  0  0.078433  0  0.976643  0  0  0.089439  0  1.040458  0  0  0.091955  0  1.039477  0  0  0.091825  0.087557  0  1.04137  0
H  H8  1  0.55965607  0.20974741  0.31853041  1  0  0.083577  0  0.974817  0  0  0.093528  0  1.040052  0  0  0.096133  0  1.039124  0  0  0.094217  0.091611  0  1.040846  0
H  H9  1  0.44034848  0.79025451  0.68147179  1  0  0.08358  0  0.974786  0  0  0.093562  0  1.040001  0  0  0.096144  0  1.0391  0  0  0.09423  0.091643  0  1.040799  0
H  H10  1  0.85190182  0.28571151  0.37456825  1  0  0.084044  0  0.965911  0  0  0.095442  0  1.026733  0  0  0.098831  0  1.024566  0  0  0.093074  0.092928  0  1.028488  0
H  H11  1  0.14810360  0.71428220  0.62542917  1  0  0.084096  0  0.965897  0  0  0.095465  0  1.026744  0  0  0.098826  0  1.024611  0  0  0.093101  0.09296  0  1.028487  0
H  H12  1  0.12356678  0.29005866  0.47707385  1  0  0.116765  0  0.979114  0  0  0.125662  0  1.04481  0  0  0.128545  0  1.043646  0  0  0.102386  0.123636  0  1.045657  0
H  H13  1  0.87643665  0.70993598  0.52292283  1  0  0.116738  0  0.979144  0  0  0.12564  0  1.044831  0  0  0.128522  0  1.043672  0  0  0.102398  0.123614  0  1.045679  0
H  H14  1  0.35394653  0.40334207  0.60291698  1  0  0.062608  0  0.925262  0  0  0.078788  0  0.985601  0  0  0.079052  0  0.984671  0  0  0.107806  0.078495  0  0.986429  0
H  H15  1  0.64605001  0.59665624  0.39708152  1  0  0.0626  0  0.925251  0  0  0.078781  0  0.985597  0  0  0.079044  0  0.984668  0  0  0.107808  0.078488  0  0.986426  0
H  H16  1  0.38671443  0.27006334  0.49389778  1  0  0.076914  0  0.935222  0  0  0.089499  0  1.001026  0  0  0.088945  0  1.001589  0  0  0.107314  0.089871  0  1.00065  0
H  H17  1  0.61328558  0.72993496  0.50609980  1  0  0.076875  0  0.935221  0  0  0.089475  0  1.001018  0  0  0.088921  0  1.001579  0  0  0.107311  0.089847  0  1.000642  0
H  H18  1  0.63876083  0.29633904  0.65371107  1  0  0.057866  0  0.94616  0  0  0.069945  0  1.013122  0  0  0.069865  0  1.01421  0  0  0.10229  0.06993  0  1.012477  0
H  H19  1  0.36124124  0.70366198  0.34628568  1  0  0.057838  0  0.946194  0  0  0.069876  0  1.013206  0  0  0.069793  0  1.014298  0  0  0.102262  0.069874  0  1.012549  0
H  H20  1  0.63884298  0.41716834  0.61425625  1  0  0.07022  0  0.913879  0  0  0.085263  0  0.973275  0  0  0.085091  0  0.973619  0  0  0.104987  0.08532  0  0.973131  0
H  H21  1  0.36115594  0.58283360  0.38574032  1  0  0.07021  0  0.913823  0  0  0.08525  0  0.973226  0  0  0.085079  0  0.973568  0  0  0.105008  0.085308  0  0.973082  0
H  H22  1  0.83944109  0.53763059  0.80677058  1  0  0.055791  0  0.943412  0  0  0.071777  0  1.007855  0  0  0.071235  0  1.008985  0  0  0.098024  0.072051  0  1.007214  0
H  H23  1  0.16055722  0.46236954  0.19322668  1  0  0.055835  0  0.94339  0  0  0.071807  0  1.007841  0  0  0.071264  0  1.008972  0  0  0.098028  0.072079  0  1.00721  0
H  H24  1  0.81943232  0.42420858  0.85523637  1  0  0.045201  0  0.96079  0  0  0.055278  0  1.039916  0  0  0.056199  0  1.038369  0  0  0.096759  0.054515  0  1.04118  0
H  H25  1  0.18056457  0.57579064  0.14475949  1  0  0.045209  0  0.960762  0  0  0.055301  0  1.039834  0  0  0.056221  0  1.038288  0  0  0.096751  0.054539  0  1.041099  0
H  H26  1  0.91855198  0.64975729  0.02261613  1  0  0.060485  0  0.943331  0  0  0.071856  0  1.01631  0  0  0.071466  0  1.01698  0  0  0.10048  0.072032  0  1.015975  0
H  H27  1  0.08144428  0.35024011  0.97738118  1  0  0.06059  0  0.943285  0  0  0.071909  0  1.016278  0  0  0.071526  0  1.016953  0  0  0.100487  0.072085  0  1.015942  0
H  H28  1  0.72772889  0.66880124  0.96647756  1  0  0.081418  0  0.955493  0  0  0.090645  0  1.02309  0  0  0.092238  0  1.021574  0  0  0.111339  0.08936  0  1.024348  0
H  H29  1  0.27227027  0.33119798  0.03351948  1  0  0.081457  0  0.955503  0  0  0.090673  0  1.023081  0  0  0.092273  0  1.021571  0  0  0.111347  0.089389  0  1.024336  0
H  H30  1  0.94468447  0.61180504  0.18443049  1  0  0.058003  0  0.929631  0  0  0.072852  0  0.994279  0  0  0.072342  0  0.995461  0  0  0.103391  0.073119  0  0.993595  0
H  H31  1  0.05530835  0.38819602  0.81556848  1  0  0.058021  0  0.929604  0  0  0.072861  0  0.99427  0  0  0.072355  0  0.995456  0  0  0.103386  0.073129  0  0.993586  0
H  H32  1  0.90114929  0.46026504  0.06147603  1  0  0.055629  0  0.938759  0  0  0.070812  0  1.006445  0  0  0.070873  0  1.006488  0  0  0.10364  0.07064  0  1.00658  0
H  H33  1  0.09884433  0.53973511  0.93852503  1  0  0.055713  0  0.938768  0  0  0.070872  0  1.006457  0  0  0.070937  0  1.006503  0  0  0.103678  0.0707  0  1.006592  0
H  H34  1  0.87501647  0.47033901  0.25413073  1  0  0.052784  0  0.911213  0  0  0.069866  0  0.971455  0  0  0.069817  0  0.971193  0  0  0.099815  0.069816  0  0.971736  0
H  H35  1  0.12497633  0.52966570  0.74587129  1  0  0.052796  0  0.911211  0  0  0.069869  0  0.971472  0  0  0.069821  0  0.971209  0  0  0.099839  0.069817  0  0.97175  0
H  H36  1  0.71352319  0.54050949  0.23833896  1  0  0.053939  0  0.964564  0  0  0.062398  0  1.040197  0  0  0.063379  0  1.03946  0  0  0.103857  0.061577  0  1.040903  0
H  H37  1  0.28646677  0.45948976  0.76165798  1  0  0.053867  0  0.964555  0  0  0.062375  0  1.040193  0  0  0.063357  0  1.039456  0  0  0.103843  0.061548  0  1.040905  0
H  H38  1  0.52583923  0.35270400  0.20314577  1  0  0.069143  0  0.92008  0  0  0.08027  0  0.985944  0  0  0.081845  0  0.984148  0  0  0.104587  0.079018  0  0.987395  0
H  H39  1  0.47415559  0.64729614  0.79685319  1  0  0.069205  0  0.920059  0  0  0.080289  0  0.985951  0  0  0.081866  0  0.984155  0  0  0.104592  0.079036  0  0.987405  0
H  H40  1  0.70153444  0.29898979  0.23077698  1  0  0.045496  0  0.954595  0  0  0.060393  0  1.023459  0  0  0.059634  0  1.024292  0  0  0.097471  0.060885  0  1.022916  0
H  H41  1  0.29846148  0.70101035  0.76922448  1  0  0.04553  0  0.954587  0  0  0.060431  0  1.023422  0  0  0.059676  0  1.02425  0  0  0.097481  0.060923  0  1.022879  0
H  H42  1  0.60454186  0.12740345  0.02269347  1  0  0.04921  0  0.943702  0  0  0.060452  0  1.016123  0  0  0.060649  0  1.016161  0  0  0.094721  0.060147  0  1.016341  0
H  H43  1  0.39545490  0.87259578  0.97730854  1  0  0.049201  0  0.943701  0  0  0.060428  0  1.016145  0  0  0.060627  0  1.016182  0  0  0.094714  0.060123  0  1.016362  0
H  H44  1  0.47383780  0.12391528  0.10702420  1  0  0.044163  0  0.959342  0  0  0.054868  0  1.035445  0  0  0.054587  0  1.036246  0  0  0.091441  0.054955  0  1.035014  0
H  H45  1  0.52615843  0.87608577  0.89297692  1  0  0.044215  0  0.959289  0  0  0.054927  0  1.035389  0  0  0.054645  0  1.036192  0  0  0.091461  0.055013  0  1.03496  0
H  H46  1  0.26956071  0.00017257  0.91133606  1  0  0.044221  0  0.974219  0  0  0.047255  0  1.06387  0  0  0.048468  0  1.061632  0  0  0.085292  0.046226  0  1.065644  0
H  H47  1  0.73043488  0.99982665  0.08866652  1  0  0.044127  0  0.974311  0  0  0.047163  0  1.064009  0  0  0.048377  0  1.061768  0  0  0.085267  0.046127  0  1.065781  0
H  H48  1  0.39596639  0.01920750  0.82914454  1  0  0.054916  0  0.94244  0  0  0.066951  0  1.010514  0  0  0.067105  0  1.011178  0  0  0.099111  0.066757  0  1.010192  0
H  H49  1  0.60403377  0.98078806  0.17085734  1  0  0.054861  0  0.942538  0  0  0.066906  0  1.010638  0  0  0.067055  0  1.011317  0  0  0.099064  0.066706  0  1.010313  0
H  H50  1  0.10322941  0.97916952  0.72614504  1  0  0.066769  0  0.944595  0  0  0.078803  0  1.010788  0  0  0.077752  0  1.012779  0  0  0.103368  0.079511  0  1.009471  0
H  H51  1  0.89676937  0.02082513  0.27385391  1  0  0.066695  0  0.944602  0  0  0.078718  0  1.010822  0  0  0.077673  0  1.012814  0  0  0.103342  0.079427  0  1.009507  0
H  H52  1  0.10084662  0.12048905  0.84561606  1  0  0.061462  0  0.94411  0  0  0.06814  0  1.021495  0  0  0.068548  0  1.020396  0  0  0.098197  0.067767  0  1.022376  0
H  H53  1  0.89915169  0.87950743  0.15437892  1  0  0.061413  0  0.944135  0  0  0.068129  0  1.021471  0  0  0.068537  0  1.020386  0  0  0.098181  0.067754  0  1.022355  0
Pt  Pt54  1  0.00000257  0.00000455  0.00000388  1  0  0.075686  0  3.406416  0  0  0.076731  0  4.022634  0  0  0.087522  0  3.994108  0  0  0.385721  0.071023  0  4.041362  0
C  C55  1  0.11940716  0.15088333  0.65505982  1  0  0.184219  0  3.802381  0  0  0.173345  0  4.064652  0  0  0.181933  0  4.080095  0  0  0.076311  0.167264  0  4.054326  0
C  C56  1  0.88059685  0.84910947  0.34493544  1  0  0.184253  0  3.802285  0  0  0.17331  0  4.064683  0  0  0.181911  0  4.080104  0  0  0.076344  0.167225  0  4.054358  0
C  C57  1  0.95859358  0.10777416  0.62267647  1  0  -0.237239  0  3.75928  0  0  -0.26895  0  4.017911  0  0  -0.27397  0  4.038927  0  0  -0.112051  -0.265447  0  4.003793  0
C  C58  1  0.04141096  0.89222046  0.37732195  1  0  -0.237195  0  3.759005  0  0  -0.268874  0  4.017696  0  0  -0.273901  0  4.038708  0  0  -0.112042  -0.26537  0  4.003576  0
C  C59  1  0.85125644  0.13040474  0.53816053  1  0  0.068051  0  3.805854  0  0  0.083948  0  4.034556  0  0  0.084031  0  4.058299  0  0  -0.013537  0.083822  0  4.018582  0
C  C60  1  0.14874984  0.86959171  0.46183818  1  0  0.06811  0  3.805799  0  0  0.083857  0  4.034699  0  0  0.083939  0  4.058454  0  0  -0.013596  0.083734  0  4.018725  0
C  C61  1  0.68567216  0.08422721  0.50055453  1  0  -0.100838  0  3.720817  0  0  -0.124201  0  3.974643  0  0  -0.123969  0  3.991333  0  0  -0.089939  -0.124328  0  3.963437  0
C  C62  1  0.31433096  0.91577016  0.49944477  1  0  -0.100798  0  3.720944  0  0  -0.124103  0  3.974791  0  0  -0.123884  0  3.991461  0  0  -0.089881  -0.124233  0  3.963592  0
C  C63  1  0.58370390  0.11047215  0.42085633  1  0  -0.080165  0  3.796929  0  0  -0.099348  0  4.059529  0  0  -0.100488  0  4.078688  0  0  -0.09951  -0.098521  0  4.046605  0
C  C64  1  0.41630178  0.88952977  0.57914684  1  0  -0.08021  0  3.796872  0  0  -0.099382  0  4.05947  0  0  -0.100525  0  4.078623  0  0  -0.099525  -0.098567  0  4.04655  0
C  C65  1  0.64285570  0.18607251  0.37726182  1  0  -0.088663  0  3.814205  0  0  -0.102227  0  4.065808  0  0  -0.103385  0  4.086656  0  0  -0.103185  -0.101366  0  4.051694  0
C  C66  1  0.35714657  0.81392577  0.62273770  1  0  -0.088702  0  3.814195  0  0  -0.102295  0  4.065813  0  0  -0.103435  0  4.086663  0  0  -0.103235  -0.101435  0  4.051704  0
C  C67  1  0.80408683  0.22937048  0.40956777  1  0  -0.127952  0  3.763832  0  0  -0.1431  0  4.004634  0  0  -0.145433  0  4.024589  0  0  -0.098702  -0.141477  0  3.991193  0
C  C68  1  0.19591831  0.77062597  0.59043074  1  0  -0.127916  0  3.763899  0  0  -0.143046  0  4.004719  0  0  -0.145354  0  4.02467  0  0  -0.098658  -0.141428  0  3.991276  0
C  C69  1  0.91196503  0.20118920  0.48852838  1  0  0.066375  0  3.821486  0  0  0.083464  0  4.045644  0  0  0.083784  0  4.069982  0  0  -0.016358  0.083222  0  4.029187  0
C  C70  1  0.08803785  0.79880361  0.51146591  1  0  0.066261  0  3.821532  0  0  0.083413  0  4.045676  0  0  0.083734  0  4.070009  0  0  -0.016391  0.083168  0  4.029225  0
C  C71  1  0.07833356  0.24115406  0.51960017  1  0  -0.256959  0  3.764175  0  0  -0.28551  0  4.018054  0  0  -0.290543  0  4.037738  0  0  -0.116396  -0.282016  0  4.004773  0
C  C72  1  0.92166842  0.75883966  0.48039665  1  0  -0.25691  0  3.764033  0  0  -0.285483  0  4.017935  0  0  -0.290512  0  4.037607  0  0  -0.116396  -0.281988  0  4.004655  0
C  C73  1  0.18044517  0.21747592  0.60119741  1  0  0.184047  0  3.810978  0  0  0.172497  0  4.075589  0  0  0.181158  0  4.090919  0  0  0.075041  0.166407  0  4.065318  0
C  C74  1  0.81955855  0.78251963  0.39879970  1  0  0.183985  0  3.810794  0  0  0.172432  0  4.075419  0  0  0.181099  0  4.090743  0  0  0.074979  0.166344  0  4.065149  0
C  C75  1  0.40938538  0.32638436  0.59112823  1  0  0.063513  0  3.619206  0  0  0.001111  0  3.888934  0  0  0.008939  0  3.893161  0  0  -0.066745  -0.004185  0  3.885941  0
C  C76  1  0.59061638  0.67361575  0.40886886  1  0  0.063554  0  3.619161  0  0  0.001107  0  3.888934  0  0  0.008942  0  3.89316  0  0  -0.066746  -0.004192  0  3.885947  0
C  C77  1  0.58422206  0.37238371  0.65773880  1  0  0.047032  0  3.66531  0  0  -0.010387  0  3.933917  0  0  -0.00445  0  3.940678  0  0  -0.079657  -0.014406  0  3.929265  0
C  C78  1  0.41577884  0.62761732  0.34225852  1  0  0.047154  0  3.665146  0  0  -0.010235  0  3.933784  0  0  -0.004296  0  3.940542  0  0  -0.079619  -0.014262  0  3.92913  0
C  C79  1  0.77312829  0.50101305  0.85073886  1  0  0.034801  0  3.688995  0  0  -0.02699  0  3.96305  0  0  -0.020607  0  3.969297  0  0  -0.089307  -0.031263  0  3.95871  0
C  C80  1  0.22686973  0.49898616  0.14925797  1  0  0.034773  0  3.688974  0  0  -0.026986  0  3.962969  0  0  -0.020601  0  3.969234  0  0  -0.089292  -0.031261  0  3.958627  0
C  C81  1  0.79274569  0.60201162  0.97498902  1  0  0.036695  0  3.645  0  0  -0.020126  0  3.916124  0  0  -0.01407  0  3.921538  0  0  -0.083182  -0.024149  0  3.912381  0
C  C82  1  0.20725090  0.39798669  0.02500718  1  0  0.03646  0  3.64511  0  0  -0.020325  0  3.916257  0  0  -0.014265  0  3.92163  0  0  -0.08323  -0.02435  0  3.912517  0
C  C83  1  0.84998754  0.52910170  0.11971617  1  0  0.054939  0  3.665385  0  0  -0.003884  0  3.9369  0  0  0.002534  0  3.942945  0  0  -0.076366  -0.00821  0  3.932785  0
C  C84  1  0.15000981  0.47089934  0.88028592  1  0  0.05476  0  3.66553  0  0  -0.004017  0  3.937007  0  0  0.002378  0  3.943081  0  0  -0.076389  -0.008342  0  3.932883  0
C  C85  1  0.77845183  0.47851172  0.18813656  1  0  0.058124  0  3.683108  0  0  -0.002825  0  3.960354  0  0  0.003524  0  3.96589  0  0  -0.0744  -0.007063  0  3.956485  0
C  C86  1  0.22154327  0.52148934  0.81186359  1  0  0.058212  0  3.682976  0  0  -0.002803  0  3.960258  0  0  0.003548  0  3.9658  0  0  -0.074413  -0.007035  0  3.95638  0
C  C87  1  0.60700970  0.30281936  0.16066444  1  0  0.058027  0  3.662869  0  0  -0.00198  0  3.934953  0  0  0.004284  0  3.940624  0  0  -0.074879  -0.006186  0  3.931014  0
C  C88  1  0.39298852  0.69718077  0.83933667  1  0  0.05787  0  3.662976  0  0  -0.002063  0  3.934988  0  0  0.004196  0  3.940667  0  0  -0.074912  -0.006268  0  3.931046  0
C  C89  1  0.52147543  0.17431391  0.06532624  1  0  0.061366  0  3.661104  0  0  0.003212  0  3.927971  0  0  0.009349  0  3.934746  0  0  -0.078077  -0.000842  0  3.923233  0
C  C90  1  0.47852164  0.82568622  0.93467543  1  0  0.06136  0  3.661234  0  0  0.003186  0  3.928084  0  0  0.009319  0  3.934861  0  0  -0.078085  -0.000866  0  3.923349  0
C  C91  1  0.31477993  0.06025494  0.87785160  1  0  0.051353  0  3.676017  0  0  -0.009602  0  3.949048  0  0  -0.00325  0  3.954154  0  0  -0.083178  -0.013839  0  3.945566  0
C  C92  1  0.68521856  0.93974245  0.12214920  1  0  0.051548  0  3.676092  0  0  -0.009483  0  3.949197  0  0  -0.003131  0  3.954306  0  0  -0.083123  -0.01369  0  3.945666  0
C  C93  1  0.17472995  0.07090871  0.79457508  1  0  0.057803  0  3.632165  0  0  -0.001299  0  3.899606  0  0  0.006418  0  3.904666  0  0  -0.073  -0.006492  0  3.896017  0
C  C94  1  0.82527030  0.92908685  0.20542296  1  0  0.057938  0  3.632058  0  0  -0.001137  0  3.899496  0  0  0.006553  0  3.904594  0  0  -0.072928  -0.006341  0  3.895903  0
C  C95  1  0.77855508  0.11405687  0.84972728  1  0  0.240106  0  3.942696  0  0  0.23756  0  4.246135  0  0  0.25368  0  4.259506  0  0  0.136457  0.226454  0  4.237124  0
C  C96  1  0.22144918  0.88595144  0.15027904  1  0  0.240265  0  3.942871  0  0  0.237706  0  4.24633  0  0  0.253822  0  4.259696  0  0  0.136556  0.226601  0  4.237322  0
C  C97  1  0.14248062  0.27054729  0.23671957  1  0  0.224249  0  3.941407  0  0  0.2243  0  4.240478  0  0  0.23975  0  4.254738  0  0  0.122155  0.213689  0  4.230845  0
C  C98  1  0.85751797  0.72946105  0.76328343  1  0  0.224392  0  3.941766  0  0  0.224447  0  4.240815  0  0  0.239892  0  4.25507  0  0  0.122327  0.213837  0  4.231185  0
S  S99  1  0.79172164  0.97796026  0.83758626  1  0  -0.179039  0  2.565109  0  0  -0.168221  0  2.958574  0  0  -0.180106  0  2.949436  0  0  -0.119033  -0.160144  0  2.964717  0
S  S100  1  0.20828056  0.02205262  0.16242544  1  0  -0.179135  0  2.565067  0  0  -0.16832  0  2.958534  0  0  -0.180207  0  2.949399  0  0  -0.119042  -0.160243  0  2.964676  0
S  S101  1  0.98620509  0.20111220  0.11182436  1  0  -0.180988  0  2.550861  0  0  -0.173645  0  2.943522  0  0  -0.184215  0  2.934388  0  0  -0.129388  -0.166557  0  2.949749  0
S  S102  1  0.01379762  0.79889885  0.88818899  1  0  -0.181146  0  2.55084  0  0  -0.173809  0  2.943488  0  0  -0.184373  0  2.934349  0  0  -0.129474  -0.166722  0  2.949717  0
N  N103  1  0.76108864  0.20590429  0.84900541  1  0  -0.48277  0  2.618072  0  0  -0.458706  0  2.855355  0  0  -0.470247  0  2.864144  0  0  -0.411824  -0.450823  0  2.849626  0
N  N104  1  0.23890860  0.79411043  0.15099689  1  0  -0.482838  0  2.618388  0  0  -0.458765  0  2.855674  0  0  -0.470301  0  2.864459  0  0  -0.41191  -0.450885  0  2.849949  0
N  N105  1  0.25090452  0.32665281  0.32644325  1  0  -0.444286  0  2.568244  0  0  -0.421068  0  2.780119  0  0  -0.43237  0  2.790221  0  0  -0.346825  -0.413367  0  2.77342  0
N  N106  1  0.74910625  0.67336185  0.67357225  1  0  -0.44427  0  2.568767  0  0  -0.421069  0  2.780651  0  0  -0.432366  0  2.790748  0  0  -0.346916  -0.413369  0  2.773954  0
O  O107  1  0.23121560  0.13547780  0.73699093  1  0  -0.29702  0  2.365271  0  0  -0.224757  0  2.60056  0  0  -0.242954  0  2.604791  0  0  -0.229269  -0.211855  0  2.597277  0
O  O108  1  0.76878809  0.86451409  0.26300544  1  0  -0.297001  0  2.365239  0  0  -0.224762  0  2.600577  0  0  -0.242952  0  2.604806  0  0  -0.229254  -0.211854  0  2.597294  0
O  O109  1  0.34186297  0.25560024  0.63950196  1  0  -0.307631  0  2.362879  0  0  -0.238346  0  2.605351  0  0  -0.255724  0  2.607865  0  0  -0.228472  -0.22596  0  2.603156  0
O  O110  1  0.65814018  0.74439713  0.36049580  1  0  -0.307694  0  2.362888  0  0  -0.238322  0  2.60531  0  0  -0.255719  0  2.607834  0  0  -0.228454  -0.225938  0  2.603117  0
O  O111  1  0.60850546  0.45841932  0.78106494  1  0  -0.337324  0  2.261262  0  0  -0.268051  0  2.515841  0  0  -0.283711  0  2.517248  0  0  -0.291032  -0.256948  0  2.514526  0
O  O112  1  0.39149199  0.54158172  0.21893254  1  0  -0.337345  0  2.261225  0  0  -0.268093  0  2.515809  0  0  -0.283754  0  2.517212  0  0  -0.291052  -0.25699  0  2.5145  0
O  O113  1  0.73093855  0.55901985  0.04718847  1  0  -0.361891  0  2.240497  0  0  -0.292914  0  2.493251  0  0  -0.308223  0  2.493294  0  0  -0.315383  -0.282077  0  2.492883  0
O  O114  1  0.26905745  0.44098028  0.95280915  1  0  -0.361754  0  2.240614  0  0  -0.29279  0  2.49333  0  0  -0.308087  0  2.493392  0  0  -0.315371  -0.281954  0  2.492961  0
O  O115  1  0.67494612  0.36233340  0.10456681  1  0  -0.343905  0  2.327491  0  0  -0.271562  0  2.58547  0  0  -0.287698  0  2.588063  0  0  -0.304678  -0.260126  0  2.583302  0
O  O116  1  0.32505068  0.63766582  0.89543289  1  0  -0.343868  0  2.327499  0  0  -0.271531  0  2.585465  0  0  -0.287663  0  2.588057  0  0  -0.30467  -0.260097  0  2.583293  0
O  O117  1  0.39524354  0.17854653  0.97637637  1  0  -0.331516  0  2.291431  0  0  -0.257361  0  2.540222  0  0  -0.273022  0  2.541594  0  0  -0.284626  -0.246281  0  2.538931  0
O  O118  1  0.60475443  0.82145268  0.02362277  1  0  -0.331581  0  2.29147  0  0  -0.257383  0  2.540301  0  0  -0.273029  0  2.541666  0  0  -0.284642  -0.246312  0  2.539003  0
