# generated using pymatgen
data_ZnH7C10N3O5
_symmetry_space_group_name_H-M   'P 1'
_cell_length_a   7.64219667
_cell_length_b   7.64217813
_cell_length_c   9.85721360
_cell_angle_alpha   70.23520141
_cell_angle_beta   70.23500193
_cell_angle_gamma   84.69733519
_symmetry_Int_Tables_number   1
_chemical_formula_structural   ZnH7C10N3O5
_chemical_formula_sum   'Zn2 H14 C20 N6 O10'
_cell_volume   509.70260708
_cell_formula_units_Z   2
loop_
 _symmetry_equiv_pos_site_id
 _symmetry_equiv_pos_as_xyz
  1  'x, y, z'
loop_
 _atom_site_type_symbol
 _atom_site_label
 _atom_site_symmetry_multiplicity
 _atom_site_fract_x
 _atom_site_fract_y
 _atom_site_fract_z
 _atom_site_occupancy
 _atom_site_hle17_bader_spin_density
 _atom_site_hle17_ddec_charge
 _atom_site_hle17_ddec_spin_density
 _atom_site_hle17_ddec_sum_bond_order
 _atom_site_hle17_magmom
 _atom_site_hse06_10hf_bader_spin_density
 _atom_site_hse06_10hf_ddec_charge
 _atom_site_hse06_10hf_ddec_spin_density
 _atom_site_hse06_10hf_ddec_sum_bond_order
 _atom_site_hse06_10hf_magmom
 _atom_site_hse06_bader_spin_density
 _atom_site_hse06_ddec_charge
 _atom_site_hse06_ddec_spin_density
 _atom_site_hse06_ddec_sum_bond_order
 _atom_site_hse06_magmom
 _atom_site_pbe_bader_spin_density
 _atom_site_pbe_cm5_charge
 _atom_site_pbe_ddec_charge
 _atom_site_pbe_ddec_spin_density
 _atom_site_pbe_ddec_sum_bond_order
 _atom_site_pbe_magmom
Zn  Zn0  1  0.39163034  0.25346997  0.77741974  1  0  1.13322  0  1.735332  0  0  0.955235  0  2.206497  0  0  1.004836  0  2.144979  0  0  0.706998  0.919505  0  2.250081  0
Zn  Zn1  1  0.25346516  0.39163579  0.27741830  1  0  1.133197  0  1.735367  0  0  0.955204  0  2.206527  0  0  1.004807  0  2.145012  0  0  0.706959  0.919476  0  2.250108  0
H  H2  1  0.45091089  0.73343774  0.62054321  1  0  0.113785  0  0.955217  0  0  0.120598  0  1.024542  0  0  0.124185  0  1.021665  0  0  0.108508  0.117812  0  1.027139  0
H  H3  1  0.73343654  0.45091684  0.12053904  1  0  0.113787  0  0.955154  0  0  0.120563  0  1.024525  0  0  0.124149  0  1.021648  0  0  0.108513  0.117783  0  1.027124  0
H  H4  1  0.65505507  0.76906301  0.14878508  1  0  0.11886  0  0.967275  0  0  0.125914  0  1.035046  0  0  0.129244  0  1.032821  0  0  0.11052  0.123096  0  1.03773  0
H  H5  1  0.76906166  0.65506240  0.64878079  1  0  0.118867  0  0.967211  0  0  0.125904  0  1.035009  0  0  0.129235  0  1.032784  0  0  0.110499  0.123086  0  1.037681  0
H  H6  1  0.81183726  0.19346530  0.28859538  1  0  0.126639  0  0.955615  0  0  0.131635  0  1.025797  0  0  0.136092  0  1.021995  0  0  0.112867  0.12843  0  1.028575  0
H  H7  1  0.19347377  0.81182763  0.78859002  1  0  0.12664  0  0.955647  0  0  0.131669  0  1.025792  0  0  0.136123  0  1.021997  0  0  0.112891  0.128467  0  1.028563  0
H  H8  1  0.08865287  0.16371980  0.10552251  1  0  0.110795  0  0.983027  0  0  0.112115  0  1.057618  0  0  0.115972  0  1.052366  0  0  0.144857  0.108911  0  1.062174  0
H  H9  1  0.16372199  0.08865130  0.60552170  1  0  0.110843  0  0.982973  0  0  0.11216  0  1.05755  0  0  0.116011  0  1.052317  0  0  0.144864  0.108957  0  1.062102  0
H  H10  1  0.72309518  0.05792393  0.90008835  1  0  0.130135  0  0.943085  0  0  0.138846  0  1.00368  0  0  0.141985  0  1.000369  0  0  0.1451  0.136504  0  1.006015  0
H  H11  1  0.05791951  0.72310143  0.40008336  1  0  0.130088  0  0.943163  0  0  0.138837  0  1.003718  0  0  0.141976  0  1.000406  0  0  0.145077  0.136495  0  1.006053  0
H  H12  1  0.36957535  0.03422234  0.08274935  1  0  0.406554  0  0.882279  0  0  0.368108  0  0.975314  0  0  0.378113  0  0.960727  0  0  0.291105  0.360736  0  0.986187  0
H  H13  1  0.03422216  0.36958492  0.58274489  1  0  0.406528  0  0.88228  0  0  0.368085  0  0.975346  0  0  0.378086  0  0.960754  0  0  0.291107  0.360709  0  0.986233  0
H  H14  1  0.35304481  0.90712935  0.99383921  1  0  0.443962  0  0.84602  0  0  0.415421  0  0.905157  0  0  0.425616  0  0.890296  0  0  0.29793  0.40825  0  0.915637  0
H  H15  1  0.90713041  0.35304750  0.49383791  1  0  0.443919  0  0.846082  0  0  0.415372  0  0.90523  0  0  0.425566  0  0.890371  0  0  0.29793  0.408202  0  0.915707  0
C  C16  1  0.53384461  0.80704003  0.50322578  1  0  -0.074269  0  3.683139  0  0  -0.114605  0  3.937012  0  0  -0.111787  0  3.955104  0  0  -0.076667  -0.116196  0  3.925413  0
C  C17  1  0.80703880  0.53384543  0.00322296  1  0  -0.074206  0  3.68297  0  0  -0.114498  0  3.936833  0  0  -0.111682  0  3.95493  0  0  -0.076675  -0.116101  0  3.925262  0
C  C18  1  0.54622547  0.73185488  0.38919032  1  0  -0.05294  0  3.730456  0  0  -0.025012  0  3.96317  0  0  -0.033935  0  3.986038  0  0  -0.014585  -0.019518  0  3.948093  0
C  C19  1  0.73185455  0.54622949  0.88918448  1  0  -0.052994  0  3.730643  0  0  -0.025053  0  3.963315  0  0  -0.033974  0  3.986184  0  0  -0.014569  -0.019564  0  3.948243  0
C  C20  1  0.65052250  0.82581431  0.23721623  1  0  -0.116527  0  3.665197  0  0  -0.153102  0  3.914932  0  0  -0.151812  0  3.931846  0  0  -0.075409  -0.153984  0  3.904634  0
C  C21  1  0.82581566  0.65052519  0.73721336  1  0  -0.116455  0  3.665282  0  0  -0.15305  0  3.914992  0  0  -0.151763  0  3.93191  0  0  -0.075386  -0.153929  0  3.904687  0
C  C22  1  0.74636494  0.98945394  0.20284501  1  0  0.183224  0  3.761714  0  0  0.178601  0  4.013162  0  0  0.181937  0  4.035142  0  0  0.096565  0.176542  0  3.998204  0
C  C23  1  0.98945921  0.74636466  0.70284078  1  0  0.183025  0  3.761929  0  0  0.17846  0  4.013292  0  0  0.181799  0  4.03527  0  0  0.096464  0.1764  0  3.998327  0
C  C24  1  0.73734022  0.06446290  0.31578227  1  0  -0.134377  0  3.679758  0  0  -0.172215  0  3.93735  0  0  -0.172146  0  3.955052  0  0  -0.075789  -0.17211  0  3.925265  0
C  C25  1  0.06446689  0.73733266  0.81577863  1  0  -0.134382  0  3.67994  0  0  -0.172246  0  3.937469  0  0  -0.172177  0  3.955167  0  0  -0.075792  -0.172144  0  3.925384  0
C  C26  1  0.62746387  0.97501273  0.46595568  1  0  -0.05139  0  3.754891  0  0  -0.02671  0  3.99456  0  0  -0.035077  0  4.017342  0  0  -0.014779  -0.021198  0  3.979467  0
C  C27  1  0.97501772  0.62745839  0.96595067  1  0  -0.0514  0  3.754966  0  0  -0.026747  0  3.994689  0  0  -0.035114  0  4.017469  0  0  -0.0148  -0.021237  0  3.979609  0
C  C28  1  0.03125566  0.16094443  0.01964714  1  0  0.189741  0  3.641789  0  0  0.123384  0  3.911866  0  0  0.138278  0  3.921974  0  0  0.171999  0.113252  0  3.905874  0
C  C29  1  0.16094648  0.03125504  0.51964502  1  0  0.189621  0  3.641887  0  0  0.123306  0  3.911913  0  0  0.138197  0  3.922021  0  0  0.171994  0.113165  0  3.905921  0
C  C30  1  0.84608031  0.10343488  0.91225455  1  0  0.168061  0  3.579379  0  0  0.105745  0  3.85556  0  0  0.117011  0  3.867714  0  0  0.163843  0.098958  0  3.84682  0
C  C31  1  0.10343252  0.84608350  0.41224994  1  0  0.168052  0  3.579158  0  0  0.10568  0  3.855364  0  0  0.116945  0  3.867517  0  0  0.163821  0.098893  0  3.846627  0
C  C32  1  0.43809955  0.55722811  0.42454065  1  0  0.671665  0  3.879347  0  0  0.619949  0  4.168559  0  0  0.655113  0  4.160905  0  0  0.217547  0.595918  0  4.172832  0
C  C33  1  0.55722542  0.43810624  0.92453281  1  0  0.671477  0  3.879686  0  0  0.619781  0  4.168871  0  0  0.65494  0  4.161227  0  0  0.217486  0.59575  0  4.173143  0
C  C34  1  0.60225869  0.07623329  0.57778591  1  0  0.656025  0  3.906858  0  0  0.606149  0  4.196317  0  0  0.640129  0  4.189813  0  0  0.206769  0.582886  0  4.200239  0
C  C35  1  0.07623577  0.60224844  0.07778318  1  0  0.656177  0  3.906826  0  0  0.60624  0  4.196373  0  0  0.640221  0  4.189863  0  0  0.206711  0.582974  0  4.200303  0
N  N36  1  0.86417153  0.08132556  0.05134692  1  0  -0.111821  0  3.555644  0  0  -0.02196  0  3.770742  0  0  -0.038946  0  3.79505  0  0  -0.21022  -0.010511  0  3.753846  0
N  N37  1  0.08132902  0.86417319  0.55134324  1  0  -0.111662  0  3.555574  0  0  -0.021817  0  3.770633  0  0  -0.038804  0  3.794946  0  0  -0.210146  -0.010362  0  3.753727  0
N  N38  1  0.11127794  0.22631477  0.87077601  1  0  -0.285137  0  3.236505  0  0  -0.21748  0  3.539749  0  0  -0.235287  0  3.55209  0  0  -0.248312  -0.20562  0  3.531694  0
N  N39  1  0.22631425  0.11128260  0.37077328  1  0  -0.285123  0  3.236498  0  0  -0.21749  0  3.53973  0  0  -0.235296  0  3.55207  0  0  -0.248298  -0.205622  0  3.531672  0
N  N40  1  0.99459097  0.19214592  0.80155299  1  0  -0.223098  0  2.979412  0  0  -0.188436  0  3.256007  0  0  -0.197884  0  3.271377  0  0  -0.20735  -0.182097  0  3.24627  0
N  N41  1  0.19214224  0.99459629  0.30155131  1  0  -0.223055  0  2.979306  0  0  -0.188379  0  3.255895  0  0  -0.197823  0  3.271273  0  0  -0.207344  -0.182054  0  3.246164  0
O  O42  1  0.35685249  0.45909876  0.56014249  1  0  -0.632687  0  2.006621  0  0  -0.574233  0  2.267131  0  0  -0.59912  0  2.253961  0  0  -0.31477  -0.556511  0  2.275899  0
O  O43  1  0.45909571  0.35685584  0.06013468  1  0  -0.632522  0  2.006563  0  0  -0.574126  0  2.2671  0  0  -0.599008  0  2.253936  0  0  -0.314733  -0.556405  0  2.275869  0
O  O44  1  0.43376403  0.52775367  0.30429712  1  0  -0.655072  0  2.101158  0  0  -0.579535  0  2.386755  0  0  -0.608886  0  2.368788  0  0  -0.322846  -0.558828  0  2.399227  0
O  O45  1  0.52775462  0.43377441  0.80428743  1  0  -0.65501  0  2.101306  0  0  -0.579469  0  2.386904  0  0  -0.608817  0  2.368936  0  0  -0.322828  -0.558758  0  2.399369  0
O  O46  1  0.44027967  0.05481808  0.68127063  1  0  -0.649745  0  2.053005  0  0  -0.570942  0  2.314848  0  0  -0.602382  0  2.302439  0  0  -0.321085  -0.548041  0  2.322581  0
O  O47  1  0.05480986  0.44026930  0.18126947  1  0  -0.649794  0  2.053093  0  0  -0.570909  0  2.314859  0  0  -0.602353  0  2.302455  0  0  -0.320962  -0.548006  0  2.3226  0
O  O48  1  0.72924694  0.18109358  0.56269792  1  0  -0.628999  0  1.944062  0  0  -0.576059  0  2.16578  0  0  -0.599669  0  2.155673  0  0  -0.31926  -0.559636  0  2.172536  0
O  O49  1  0.18110663  0.72922971  0.06269125  1  0  -0.629118  0  1.944053  0  0  -0.576142  0  2.165759  0  0  -0.599758  0  2.155662  0  0  -0.319271  -0.559716  0  2.17252  0
O  O50  1  0.42413603  0.01612060  0.98242837  1  0  -0.836604  0  1.898492  0  0  -0.781415  0  2.107993  0  0  -0.801581  0  2.075189  0  0  -0.57353  -0.766537  0  2.131334  0
O  O51  1  0.01612061  0.42414204  0.48242494  1  0  -0.836499  0  1.898543  0  0  -0.781332  0  2.108043  0  0  -0.801487  0  2.075267  0  0  -0.573519  -0.766471  0  2.131383  0
