# generated using pymatgen
data_CuPH13C19N2O5
_symmetry_space_group_name_H-M   'P 1'
_cell_length_a   9.53252859
_cell_length_b   10.61964107
_cell_length_c   10.34152769
_cell_angle_alpha   100.46953238
_cell_angle_beta   103.03790974
_cell_angle_gamma   114.78616498
_symmetry_Int_Tables_number   1
_chemical_formula_structural   CuPH13C19N2O5
_chemical_formula_sum   'Cu2 P2 H26 C38 N4 O10'
_cell_volume   879.61463664
_cell_formula_units_Z   2
loop_
 _symmetry_equiv_pos_site_id
 _symmetry_equiv_pos_as_xyz
  1  'x, y, z'
loop_
 _atom_site_type_symbol
 _atom_site_label
 _atom_site_symmetry_multiplicity
 _atom_site_fract_x
 _atom_site_fract_y
 _atom_site_fract_z
 _atom_site_occupancy
 _atom_site_hle17_ddec_charge
 _atom_site_hle17_ddec_spin_density
 _atom_site_hle17_ddec_sum_bond_order
 _atom_site_hle17_magmom
 _atom_site_hse06_10hf_ddec_charge
 _atom_site_hse06_10hf_ddec_spin_density
 _atom_site_hse06_10hf_ddec_sum_bond_order
 _atom_site_hse06_10hf_magmom
 _atom_site_hse06_ddec_charge
 _atom_site_hse06_ddec_spin_density
 _atom_site_hse06_ddec_sum_bond_order
 _atom_site_hse06_magmom
 _atom_site_pbe_cm5_charge
 _atom_site_pbe_ddec_charge
 _atom_site_pbe_ddec_spin_density
 _atom_site_pbe_ddec_sum_bond_order
 _atom_site_pbe_magmom
Cu  Cu0  1  0.07473156  0.11013209  0.66584182  1  0.92115  0.743949  1.763189  0.523  0.901955  0.821318  2.151023  0.638  0.987363  0.893011  2.08489  0.719  0.765361  0.849053  0.768542  2.197827  0.583
Cu  Cu1  1  0.92526954  0.88986717  0.33415491  1  0.9211  -0.743961  1.763217  -0.523  0.901864  -0.821313  2.151099  -0.638  0.987273  -0.893004  2.084944  -0.719  0.765349  0.84896  -0.768542  2.197914  -0.583
P  P2  1  0.26915597  0.92559925  0.50450622  1  1.449576  -0.00401  4.829252  -0.002  1.297614  -0.004765  5.332944  -0.003  1.350581  -0.00362  5.292959  -0.002  0.35255  1.259344  -0.005506  5.361192  -0.003
P  P3  1  0.73084178  0.07439778  0.49549132  1  1.449618  0.004011  4.82941  0.002  1.297622  0.00476  5.333137  0.003  1.350596  0.003619  5.293135  0.002  0.352535  1.25934  0.005506  5.361374  0.003
H  H4  1  0.73053364  0.83082032  0.58628098  1  0.096336  0.001308  0.931578  0.002  0.10503  0.001092  0.992933  0.002  0.107488  0.000799  0.989257  0.001  0.12775  0.102953  0.00134  0.995625  0.002
H  H5  1  0.26947139  0.16918224  0.41371432  1  0.096297  -0.001315  0.931649  -0.002  0.10499  -0.001092  0.992989  -0.002  0.10746  -0.000798  0.9893  -0.001  0.127714  0.102901  -0.00134  0.995692  -0.002
H  H6  1  0.66383768  0.38684203  0.02678961  1  0.119228  0.000554  0.949948  0.001  0.128897  0.000532  1.007078  0.001  0.132177  0.000385  1.006393  0.0  0.110246  0.126339  0.000659  1.007887  0.001
H  H7  1  0.33617537  0.61315960  0.97321405  1  0.119233  -0.000553  0.950008  -0.001  0.128898  -0.000532  1.007127  -0.001  0.132177  -0.000385  1.006443  0.0  0.110244  0.126341  -0.000659  1.007936  -0.001
H  H8  1  0.81306095  0.64257803  0.91612015  1  0.113844  0.000257  0.916326  0.0  0.129191  1.8e-05  0.965873  0.0  0.132055  0.0  0.963833  0.0  0.118628  0.127175  3.9e-05  0.967363  0.0
H  H9  1  0.18693370  0.35742545  0.08387884  1  0.113833  -0.000256  0.916394  0.0  0.129178  -1.8e-05  0.965936  0.0  0.132041  -0.0  0.963899  0.0  0.118645  0.127162  -3.9e-05  0.967428  0.0
H  H10  1  0.10081826  0.77573384  0.10170494  1  0.132844  0.000323  0.935365  0.0  0.142239  0.00026  0.995364  0.0  0.145658  0.000171  0.993387  0.0  0.115192  0.139523  0.00032  0.997368  0.0
H  H11  1  0.89917519  0.22426746  0.89829822  1  0.132814  -0.000322  0.935413  0.0  0.14225  -0.000259  0.995349  0.0  0.145614  -0.000171  0.993441  0.0  0.11519  0.139532  -0.00032  0.997354  0.0
H  H12  1  0.60076962  0.20474164  0.15691716  1  0.098535  0.000353  0.973579  0.001  0.108092  4.1e-05  1.037897  0.0  0.109287  8e-06  1.039192  0.0  0.106154  0.10686  6.1e-05  1.037554  0.0
H  H13  1  0.39923194  0.79525871  0.84308761  1  0.098538  -0.000359  0.973566  -0.001  0.108076  -4e-05  1.03791  0.0  0.109278  -8e-06  1.03918  0.0  0.106165  0.106846  -6.1e-05  1.037569  0.0
H  H14  1  0.38548282  0.97565542  0.18404462  1  0.120205  0.000347  0.958956  0.001  0.130321  0.000214  1.017754  0.0  0.133192  0.000123  1.016659  0.0  0.110396  0.128266  0.000334  1.018391  0.0
H  H15  1  0.61451222  0.02434482  0.81595967  1  0.120172  -0.000349  0.95897  -0.001  0.130296  -0.000214  1.017762  0.0  0.133165  -0.000123  1.01667  0.0  0.110401  0.128244  -0.000334  1.0184  0.0
H  H16  1  0.62399395  0.63519456  0.69755771  1  0.099686  0.000488  0.96035  0.0  0.111947  0.000477  1.017112  0.0  0.114515  0.000356  1.017375  0.0  0.107759  0.10995  0.000567  1.017062  0.001
H  H17  1  0.37599959  0.36480456  0.30243445  1  0.099676  -0.000487  0.960414  0.0  0.111934  -0.000477  1.017175  0.0  0.114505  -0.000356  1.017435  0.0  0.107775  0.109939  -0.000567  1.017125  -0.001
H  H18  1  0.43912100  0.34818330  0.81366200  1  0.087611  0.001379  0.922951  0.002  0.099091  0.001132  0.978043  0.002  0.101234  0.000809  0.975689  0.001  0.123467  0.097135  0.001443  0.980219  0.002
H  H19  1  0.56089031  0.65181288  0.18633836  1  0.087589  -0.001373  0.922989  -0.002  0.099087  -0.001132  0.978074  -0.002  0.101219  -0.000809  0.975734  -0.001  0.123473  0.097132  -0.001443  0.980251  -0.002
H  H20  1  0.53319832  0.07357919  0.62878037  1  0.430013  -0.000318  0.887818  -0.001  0.396858  -0.000296  0.955017  -0.001  0.408923  -0.000208  0.937846  -0.001  0.296729  0.387928  -0.000372  0.967592  -0.001
H  H21  1  0.46679659  0.92641455  0.37121982  1  0.429988  0.000317  0.887881  0.001  0.396852  0.000296  0.955046  0.001  0.408918  0.000208  0.937875  0.001  0.296745  0.387923  0.000372  0.967619  0.001
H  H22  1  0.05367692  0.77038612  0.64539266  1  0.090587  9.3e-05  0.994675  0.0  0.098479  4.3e-05  1.060488  0.0  0.100548  2.3e-05  1.061125  0.0  0.099419  0.097027  8.3e-05  1.059792  0.0
H  H23  1  0.94633228  0.22961652  0.35461614  1  0.090565  -0.000101  0.994664  0.0  0.098472  -4.4e-05  1.060466  0.0  0.100541  -2.3e-05  1.061103  0.0  0.099435  0.097018  -8.3e-05  1.059766  0.0
H  H24  1  0.40207399  0.72220781  0.46881755  1  0.096791  -4e-06  0.948299  0.0  0.109198  1.7e-05  1.004906  0.0  0.112386  9e-06  1.003267  0.0  0.104383  0.106603  2.4e-05  1.006599  0.0
H  H25  1  0.59791016  0.27778358  0.53116728  1  0.096746  2e-06  0.948288  0.0  0.109164  -1.7e-05  1.00489  0.0  0.112344  -9e-06  1.00327  0.0  0.10435  0.10657  -2.4e-05  1.006583  0.0
H  H26  1  0.02254819  0.56054329  0.73689423  1  0.098055  -5.4e-05  0.947115  0.0  0.107994  -3.1e-05  1.006847  0.0  0.11116  -2.4e-05  1.005599  0.0  0.101969  0.105759  -3.5e-05  1.007848  0.0
H  H27  1  0.97746924  0.43946491  0.26312220  1  0.097993  5.4e-05  0.947217  0.0  0.107991  3.1e-05  1.006881  0.0  0.111158  2.4e-05  1.005629  0.0  0.101968  0.105755  3.5e-05  1.007882  0.0
H  H28  1  0.35353110  0.50097498  0.54469477  1  0.086007  0.000418  0.961116  0.0  0.09787  0.000374  1.022319  0.0  0.101254  0.000243  1.020202  0.0  0.097047  0.095116  0.000456  1.024337  0.0
H  H29  1  0.64645419  0.49901860  0.45529167  1  0.086066  -0.000419  0.961  0.0  0.097848  -0.000374  1.022296  0.0  0.101222  -0.000242  1.020191  0.0  0.097028  0.095115  -0.000456  1.024296  0.0
C  C30  1  0.06584090  0.94508519  0.85169088  1  0.113738  -0.000564  3.785105  -0.001  0.107823  0.000847  4.02797  0.0  0.113066  0.000166  4.050334  -0.001  0.113828  0.104452  0.00136  4.01288  0.001
C  C31  1  0.93415861  0.05491729  0.14830899  1  0.113695  0.000556  3.785534  0.001  0.107934  -0.000849  4.028211  0.0  0.113177  -0.000163  4.050579  0.001  0.113892  0.104568  -0.00136  4.013114  -0.001
C  C32  1  0.23006956  0.06272952  0.90222872  1  0.128083  -0.002027  3.779009  -0.003  0.121169  0.000652  4.021773  0.0  0.126096  -0.000297  4.044938  -0.001  0.114513  0.118362  0.001372  4.005543  0.001
C  C33  1  0.76993430  0.93727303  0.09777211  1  0.128016  0.002031  3.779197  0.003  0.121039  -0.000648  4.021927  0.0  0.125965  0.000295  4.045093  0.001  0.114444  0.118233  -0.001372  4.005692  -0.001
C  C34  1  0.80851995  0.83103782  0.68111497  1  0.176539  -0.006698  3.639325  -0.008  0.144574  -0.001192  3.899937  -0.002  0.157652  -0.001952  3.913798  -0.003  0.071821  0.136033  -0.000666  3.889893  -0.002
C  C35  1  0.19148639  0.16897126  0.31887792  1  0.176455  0.006711  3.639235  0.008  0.144483  0.001194  3.899908  0.002  0.157554  0.001956  3.913765  0.003  0.071821  0.135957  0.000665  3.889867  0.002
C  C36  1  0.01914231  0.83913781  0.92157475  1  0.033122  0.003726  3.775846  0.004  0.049277  0.00194  4.008941  0.002  0.046735  0.001623  4.032807  0.002  0.003257  0.050866  0.002218  3.993693  0.002
C  C37  1  0.98085110  0.16086131  0.07842609  1  0.033195  -0.003729  3.775999  -0.004  0.049302  -0.00194  4.00904  -0.002  0.046761  -0.001628  4.032894  -0.002  0.00327  0.050891  -0.002219  3.993775  -0.002
C  C38  1  0.34690858  0.07262126  0.02093437  1  0.022922  0.006117  3.795476  0.007  0.040283  0.002774  4.024011  0.003  0.037165  0.002335  4.047823  0.003  -0.000482  0.042321  0.00312  4.008344  0.004
C  C39  1  0.65309134  0.92737798  0.97906888  1  0.022863  -0.006115  3.79539  -0.007  0.040272  -0.002776  4.02387  -0.003  0.037154  -0.002333  4.047683  -0.003  -0.000507  0.042308  -0.003119  4.008207  -0.004
C  C40  1  0.54156981  0.29291206  0.99318312  1  -0.118306  0.01047  3.698922  0.011  -0.128201  0.004569  3.945676  0.005  -0.136682  0.0041  3.966141  0.005  -0.076207  -0.123075  0.00491  3.932228  0.006
C  C41  1  0.45843725  0.70708838  0.00681804  1  -0.118367  -0.010466  3.698886  -0.011  -0.128239  -0.004571  3.945641  -0.005  -0.136721  -0.004099  3.966103  -0.005  -0.076309  -0.123114  -0.004911  3.932199  -0.006
C  C42  1  0.85497862  0.72509761  0.86403886  1  -0.033538  -0.00724  3.654603  -0.007  -0.056546  -0.002679  3.897993  -0.003  -0.051697  -0.002762  3.91317  -0.003  -0.053789  -0.060895  -0.00268  3.888053  -0.002
C  C43  1  0.14501763  0.27490264  0.13595603  1  -0.033442  0.007228  3.654643  0.007  -0.056452  0.002677  3.898037  0.003  -0.0516  0.002767  3.913213  0.003  -0.053747  -0.060805  0.002681  3.888093  0.002
C  C44  1  0.13844113  0.85337122  0.04404522  1  -0.088251  0.001827  3.671392  0.002  -0.114097  0.000792  3.927789  0.001  -0.118231  0.000754  3.950492  0.001  -0.077017  -0.112308  0.000871  3.913591  0.001
C  C45  1  0.86155441  0.14662794  0.95595996  1  -0.088312  -0.001824  3.671481  -0.002  -0.114166  -0.00079  3.927856  -0.001  -0.118256  -0.000749  3.950578  -0.001  -0.07703  -0.112372  -0.000871  3.913651  -0.001
C  C46  1  0.50661041  0.19227531  0.06559463  1  -0.0336  -0.01015  3.669959  -0.009  -0.059043  -0.003444  3.9163  -0.003  -0.054898  -0.0036  3.934939  -0.004  -0.058333  -0.062041  -0.003357  3.904115  -0.003
C  C47  1  0.49338743  0.80772606  0.93440565  1  -0.033563  0.010157  3.669726  0.009  -0.05901  0.003444  3.916057  0.003  -0.054863  0.0036  3.934704  0.004  -0.058312  -0.062009  0.003358  3.90388  0.003
C  C48  1  0.29630103  0.96507164  0.09044993  1  -0.081489  0.000463  3.698948  0.0  -0.103207  0.000602  3.950632  0.001  -0.106052  0.000424  3.973792  0.0  -0.076304  -0.101202  0.000749  3.93536  0.001
C  C49  1  0.70369012  0.03492529  0.90955291  1  -0.081394  -0.00046  3.698786  0.0  -0.103154  -0.000604  3.950479  -0.001  -0.105996  -0.00043  3.973619  0.0  -0.076303  -0.101155  -0.000748  3.93521  -0.001
C  C50  1  0.75119937  0.72117419  0.74389573  1  -0.121881  0.007543  3.728251  0.008  -0.134675  0.003651  3.980954  0.004  -0.142665  0.003236  4.001407  0.004  -0.080549  -0.128174  0.004012  3.965864  0.005
C  C51  1  0.24879708  0.27883039  0.25609418  1  -0.121841  -0.007535  3.728557  -0.008  -0.134629  -0.003648  3.981259  -0.004  -0.14262  -0.00324  4.001712  -0.004  -0.080568  -0.128132  -0.004011  3.96616  -0.005
C  C52  1  0.41743727  0.27346931  0.87546555  1  0.168551  -0.00924  3.662831  -0.01  0.137967  -0.001565  3.920086  -0.003  0.150614  -0.002587  3.934743  -0.004  0.066006  0.129505  -0.000878  3.911249  -0.002
C  C53  1  0.58257081  0.72652899  0.12453641  1  0.168605  0.009228  3.662948  0.01  0.137967  0.001568  3.920251  0.003  0.150624  0.002584  3.934909  0.004  0.066068  0.129504  0.000878  3.911415  0.002
C  C54  1  0.23476365  0.76425531  0.55723183  1  -0.23066  -0.001422  3.745998  -0.001  -0.192433  -0.00054  3.98743  -0.001  -0.201425  -0.000528  4.008766  -0.001  -0.024187  -0.186124  -0.000659  3.973417  -0.001
C  C55  1  0.76522752  0.23573945  0.44276482  1  -0.23067  0.001444  3.74597  0.001  -0.192423  0.00055  3.987384  0.001  -0.201415  0.000522  4.008718  0.001  -0.024191  -0.18611  0.000659  3.973358  0.001
C  C56  1  0.12578845  0.71606239  0.63039354  1  -0.049106  0.001597  3.755711  0.002  -0.07207  0.000498  4.006176  0.001  -0.072128  0.000417  4.027482  0.001  -0.087538  -0.071885  0.000607  3.991524  0.001
C  C57  1  0.87421039  0.28393684  0.36960850  1  -0.048967  -0.001593  3.755768  -0.002  -0.071958  -0.000498  4.006237  -0.001  -0.072012  -0.000416  4.02754  -0.001  -0.087497  -0.071769  -0.000607  3.991569  -0.001
C  C58  1  0.31942259  0.68745251  0.52821185  1  -0.052565  0.000766  3.752034  0.001  -0.073167  3e-06  3.997802  0.0  -0.074449  0.000124  4.019904  0.0  -0.08722  -0.072212  2.7e-05  3.982694  0.0
C  C59  1  0.68057353  0.31254558  0.47178842  1  -0.052575  -0.000772  3.752017  -0.001  -0.073187  -6e-06  3.997757  0.0  -0.074466  -0.000123  4.019869  0.0  -0.087225  -0.072236  -2.8e-05  3.982656  0.0
C  C60  1  0.18999602  0.52139152  0.64980329  1  -0.056291  0.010513  3.761404  0.011  -0.028788  0.00537  3.983075  0.006  -0.034532  0.00373  4.004335  0.004  -0.019059  -0.025059  0.006604  3.968721  0.007
C  C61  1  0.81000944  0.47861214  0.35020197  1  -0.056346  -0.010538  3.761369  -0.011  -0.028848  -0.005368  3.983054  -0.006  -0.034591  -0.003733  4.004309  -0.004  -0.019079  -0.025123  -0.006605  3.968711  -0.007
C  C62  1  0.10603244  0.59784921  0.67895583  1  -0.069334  -0.000274  3.724201  0.0  -0.090974  0.000421  3.970611  0.001  -0.092688  8.3e-05  3.991292  0.0  -0.081726  -0.090028  0.000629  3.956752  0.001
C  C63  1  0.89397245  0.40215336  0.32104911  1  -0.069431  0.000293  3.724399  0.0  -0.091111  -0.000422  3.970827  -0.001  -0.092828  -8.1e-05  3.991515  0.0  -0.081779  -0.090162  -0.000629  3.956961  -0.001
C  C64  1  0.29453879  0.56547171  0.57202091  1  -0.087415  -0.001274  3.751562  -0.002  -0.109596  8e-05  4.001279  0.0  -0.110306  -8e-05  4.021376  0.0  -0.088406  -0.108882  9.8e-05  3.987302  0.0
C  C65  1  0.70545953  0.43452859  0.42798218  1  -0.087378  0.001282  3.751407  0.002  -0.109494  -8e-05  4.001133  0.0  -0.110197  8.2e-05  4.021232  0.0  -0.08836  -0.108799  -9.8e-05  3.987156  0.0
C  C66  1  0.15838306  0.38972087  0.69731149  1  0.610076  -0.004713  3.940298  -0.009  0.569343  -9.7e-05  4.247383  -0.003  0.605252  -0.000592  4.242602  -0.003  0.191401  0.545034  0.000405  4.249522  -0.003
C  C67  1  0.84162292  0.61028171  0.30269369  1  0.610185  0.004721  3.940162  0.009  0.569419  9.9e-05  4.247294  0.003  0.605328  0.000594  4.242512  0.003  0.191427  0.545111  -0.000405  4.249436  0.003
N  N68  1  0.26612333  0.16161434  0.83189774  1  -0.31521  0.087218  3.340132  0.107  -0.277575  0.060994  3.64174  0.08  -0.307706  0.050303  3.661289  0.07  -0.337806  -0.259915  0.06678  3.630545  0.085
N  N69  1  0.73388476  0.83838395  0.16810326  1  -0.315142  -0.087223  3.340109  -0.107  -0.27747  -0.060997  3.641714  -0.08  -0.307606  -0.050302  3.66126  -0.07  -0.337763  -0.259803  -0.066779  3.630514  -0.085
N  N70  1  0.96156341  0.94083064  0.73495953  1  -0.331031  0.066299  3.317788  0.081  -0.290457  0.048717  3.616631  0.064  -0.319064  0.041272  3.635303  0.057  -0.337667  -0.272266  0.053604  3.605094  0.068
N  N71  1  0.03843667  0.05917076  0.26503640  1  -0.330917  -0.066296  3.317535  -0.081  -0.290419  -0.048723  3.616402  -0.064  -0.319027  -0.041281  3.635076  -0.057  -0.337692  -0.272243  -0.05361  3.604862  -0.068
O  O72  1  0.12146536  0.95236975  0.49723854  1  -0.827321  -0.060149  2.099705  -0.075  -0.78229  -0.040562  2.430515  -0.054  -0.820833  -0.032441  2.40683  -0.045  -0.384034  -0.755355  -0.045648  2.447986  -0.059
O  O73  1  0.87853143  0.04763160  0.50275860  1  -0.827369  0.060143  2.099757  0.075  -0.782304  0.040562  2.43054  0.054  -0.820846  0.032442  2.406856  0.045  -0.384043  -0.755398  0.045649  2.448077  0.059
O  O74  1  0.41662703  0.05843921  0.63023810  1  -0.763919  -0.003774  2.008644  -0.005  -0.696488  -0.002826  2.238182  -0.004  -0.719595  -0.001982  2.214764  -0.003  -0.394184  -0.679223  -0.0034  2.254409  -0.004
O  O75  1  0.58336847  0.94155562  0.36976048  1  -0.763919  0.003773  2.008635  0.005  -0.696488  0.002826  2.238156  0.004  -0.719598  0.001984  2.214744  0.003  -0.394206  -0.679219  0.0034  2.254379  0.004
O  O76  1  0.30973565  0.90844356  0.37110365  1  -0.8296  0.001271  1.972535  0.001  -0.756476  0.000914  2.215775  0.001  -0.782388  0.000722  2.197036  0.001  -0.369251  -0.736856  0.001165  2.228351  0.001
O  O77  1  0.69026322  0.09155350  0.62889220  1  -0.829644  -0.001273  1.972525  -0.001  -0.75652  -0.000916  2.21581  -0.001  -0.782431  -0.000718  2.197066  -0.001  -0.369246  -0.736898  -0.001165  2.228384  -0.001
O  O78  1  0.18790457  0.29458010  0.62642999  1  -0.587003  0.122244  2.009038  0.157  -0.575222  0.068893  2.296542  0.098  -0.621544  0.051277  2.293122  0.077  -0.332087  -0.543526  0.080818  2.298184  0.11
O  O79  1  0.81209376  0.70541803  0.37356787  1  -0.587047  -0.122242  2.009091  -0.157  -0.575208  -0.06889  2.296544  -0.098  -0.621524  -0.051277  2.293114  -0.077  -0.332076  -0.543513  -0.080815  2.298195  -0.11
O  O80  1  0.10351136  0.37521612  0.79594022  1  -0.61692  0.001055  1.895748  0.003  -0.593858  -0.00019  2.128358  0.001  -0.61747  -0.001029  2.11758  0.0  -0.332004  -0.576511  0.000802  2.135209  0.002
O  O81  1  0.89650666  0.62478884  0.20406609  1  -0.616974  -0.001055  1.895581  -0.003  -0.593906  0.000186  2.128206  -0.001  -0.617522  0.001026  2.11744  0.0  -0.332034  -0.576554  -0.000802  2.13506  -0.002
