# generated using pymatgen
data_CuH4C4SN2Cl
_symmetry_space_group_name_H-M   'P 1'
_cell_length_a   7.36344466
_cell_length_b   7.33891958
_cell_length_c   12.88232503
_cell_angle_alpha   84.19979023
_cell_angle_beta   83.53643217
_cell_angle_gamma   63.35575336
_symmetry_Int_Tables_number   1
_chemical_formula_structural   CuH4C4SN2Cl
_chemical_formula_sum   'Cu4 H16 C16 S4 N8 Cl4'
_cell_volume   617.27262247
_cell_formula_units_Z   4
loop_
 _symmetry_equiv_pos_site_id
 _symmetry_equiv_pos_as_xyz
  1  'x, y, z'
loop_
 _atom_site_type_symbol
 _atom_site_label
 _atom_site_symmetry_multiplicity
 _atom_site_fract_x
 _atom_site_fract_y
 _atom_site_fract_z
 _atom_site_occupancy
 _atom_site_hle17_bader_spin_density
 _atom_site_hle17_ddec_charge
 _atom_site_hle17_ddec_spin_density
 _atom_site_hle17_ddec_sum_bond_order
 _atom_site_hle17_magmom
 _atom_site_hse06_10hf_bader_spin_density
 _atom_site_hse06_10hf_ddec_charge
 _atom_site_hse06_10hf_ddec_spin_density
 _atom_site_hse06_10hf_ddec_sum_bond_order
 _atom_site_hse06_10hf_magmom
 _atom_site_hse06_bader_spin_density
 _atom_site_hse06_ddec_charge
 _atom_site_hse06_ddec_spin_density
 _atom_site_hse06_ddec_sum_bond_order
 _atom_site_hse06_magmom
 _atom_site_pbe_bader_spin_density
 _atom_site_pbe_cm5_charge
 _atom_site_pbe_ddec_charge
 _atom_site_pbe_ddec_spin_density
 _atom_site_pbe_ddec_sum_bond_order
 _atom_site_pbe_magmom
Cu  Cu0  1  0.16110685  0.50557160  0.34211791  1  0  0.360016  0  2.199438  0  0  0.288402  0  2.689664  0  0  0.280637  0  2.653081  0  0  0.369735  0.297758  0  2.710771  0
Cu  Cu1  1  0.83890147  0.49443231  0.65788504  1  0  0.359948  0  2.199495  0  0  0.288358  0  2.689753  0  0  0.280623  0  2.65313  0  0  0.369711  0.297713  0  2.71087  0
Cu  Cu2  1  0.94508957  0.31901152  0.24491979  1  0  0.394286  0  2.018917  0  0  0.300085  0  2.507155  0  0  0.305085  0  2.457441  0  0  0.375092  0.300344  0  2.538258  0
Cu  Cu3  1  0.05491665  0.68099082  0.75508108  1  0  0.394308  0  2.018899  0  0  0.300111  0  2.507121  0  0  0.305111  0  2.457391  0  0  0.375107  0.300371  0  2.538221  0
H  H4  1  0.36153326  0.64725112  0.96886344  1  0  0.098325  0  0.951606  0  0  0.104923  0  1.020109  0  0  0.10797  0  1.016023  0  0  0.116018  0.102416  0  1.023425  0
H  H5  1  0.63842575  0.35275855  0.03113186  1  0  0.09827  0  0.951731  0  0  0.104968  0  1.020135  0  0  0.108025  0  1.016042  0  0  0.115946  0.102457  0  1.023447  0
H  H6  1  0.13106132  0.27942837  0.03827311  1  0  0.086858  0  0.952933  0  0  0.091495  0  1.023815  0  0  0.094746  0  1.018993  0  0  0.104439  0.088873  0  1.027571  0
H  H7  1  0.86894702  0.72057249  0.96173081  1  0  0.086874  0  0.952982  0  0  0.091491  0  1.023892  0  0  0.094741  0  1.019071  0  0  0.104447  0.088869  0  1.027647  0
H  H8  1  0.32262252  0.00523390  0.91055632  1  0  0.135595  0  0.958658  0  0  0.139669  0  1.024566  0  0  0.14348  0  1.024816  0  0  0.100676  0.136939  0  1.024547  0
H  H9  1  0.67735634  0.99477438  0.08944151  1  0  0.135531  0  0.958684  0  0  0.139669  0  1.024505  0  0  0.143481  0  1.024752  0  0  0.100669  0.136926  0  1.024523  0
H  H10  1  0.40234656  0.79168069  0.64568167  1  0  0.084771  0  0.964195  0  0  0.086943  0  1.041172  0  0  0.091982  0  1.033979  0  0  0.102131  0.082873  0  1.046918  0
H  H11  1  0.59766574  0.20831708  0.35431673  1  0  0.084788  0  0.964174  0  0  0.087024  0  1.041102  0  0  0.092064  0  1.033909  0  0  0.102144  0.082953  0  1.046845  0
H  H12  1  0.33798390  0.97002901  0.31584676  1  0  0.099855  0  0.94983  0  0  0.104616  0  1.018951  0  0  0.108933  0  1.013061  0  0  0.118075  0.101204  0  1.02347  0
H  H13  1  0.66203658  0.02996268  0.68415142  1  0  0.099842  0  0.94988  0  0  0.104585  0  1.019026  0  0  0.108901  0  1.013137  0  0  0.118067  0.101175  0  1.023539  0
H  H14  1  0.17896721  0.01935873  0.50468038  1  0  0.131814  0  0.973872  0  0  0.144271  0  1.028601  0  0  0.147486  0  1.029227  0  0  0.099244  0.14178  0  1.028576  0
H  H15  1  0.82104504  0.98063595  0.49531589  1  0  0.131904  0  0.973898  0  0  0.144353  0  1.028556  0  0  0.147595  0  1.02915  0  0  0.099273  0.14184  0  1.028582  0
H  H16  1  0.23873518  0.59284632  0.14004778  1  0  0.289828  0  0.947319  0  0  0.265835  0  1.023273  0  0  0.276102  0  1.014465  0  0  0.27261  0.258415  0  1.029742  0
H  H17  1  0.76124169  0.40716350  0.85995242  1  0  0.28983  0  0.947384  0  0  0.265826  0  1.023341  0  0  0.276101  0  1.014517  0  0  0.27261  0.258403  0  1.029816  0
H  H18  1  0.65351355  0.68396316  0.28449530  1  0  0.288628  0  0.957899  0  0  0.263716  0  1.034152  0  0  0.27459  0  1.025021  0  0  0.267851  0.25585  0  1.040905  0
H  H19  1  0.34650630  0.31602701  0.71550536  1  0  0.288709  0  0.957803  0  0  0.263768  0  1.034097  0  0  0.274643  0  1.02497  0  0  0.267904  0.255902  0  1.040851  0
C  C20  1  0.70885282  0.58472303  0.43978781  1  0  0.411408  0  3.694643  0  0  0.384977  0  3.963303  0  0  0.408459  0  3.972409  0  0  0.230499  0.369241  0  3.957217  0
C  C21  1  0.29116023  0.41526711  0.56021412  1  0  0.411505  0  3.694601  0  0  0.384996  0  3.963295  0  0  0.408482  0  3.972397  0  0  0.230441  0.369261  0  3.957207  0
C  C22  1  0.10388319  0.89277182  0.18289576  1  0  0.408153  0  3.74303  0  0  0.378967  0  4.017718  0  0  0.402461  0  4.028886  0  0  0.230299  0.363543  0  4.009762  0
C  C23  1  0.89610733  0.10723196  0.81710461  1  0  0.408219  0  3.74305  0  0  0.378925  0  4.017879  0  0  0.402423  0  4.029046  0  0  0.230203  0.3635  0  4.009928  0
C  C24  1  0.45241355  0.77186825  0.56267245  1  0  0.197714  0  3.639734  0  0  0.160486  0  3.89613  0  0  0.176305  0  3.904534  0  0  0.05943  0.149286  0  3.892012  0
C  C25  1  0.54759193  0.22812947  0.43732567  1  0  0.197804  0  3.639621  0  0  0.160468  0  3.895944  0  0  0.176284  0  3.904356  0  0  0.059493  0.149274  0  3.891821  0
C  C26  1  0.33036330  0.90014672  0.48494723  1  0  -0.18789  0  3.7057  0  0  -0.200009  0  3.957136  0  0  -0.212615  0  3.977121  0  0  -0.098436  -0.192297  0  3.9455  0
C  C27  1  0.66964354  0.09984489  0.51505117  1  0  -0.188004  0  3.705712  0  0  -0.200081  0  3.957143  0  0  -0.212708  0  3.977111  0  0  -0.098479  -0.192371  0  3.945503  0
C  C28  1  0.41153101  0.87177060  0.38273463  1  0  0.211132  0  3.598783  0  0  0.168083  0  3.853426  0  0  0.185002  0  3.860506  0  0  0.073925  0.155836  0  3.850028  0
C  C29  1  0.58847787  0.12822255  0.61726354  1  0  0.211039  0  3.598785  0  0  0.168012  0  3.853354  0  0  0.184934  0  3.86044  0  0  0.07386  0.15577  0  3.849951  0
C  C30  1  0.28633214  0.77703738  0.01816545  1  0  0.218357  0  3.601733  0  0  0.171199  0  3.858855  0  0  0.18803  0  3.869004  0  0  0.075892  0.159663  0  3.852629  0
C  C31  1  0.71363851  0.22295860  0.98183298  1  0  0.218166  0  3.602191  0  0  0.170948  0  3.859266  0  0  0.187767  0  3.869435  0  0  0.075796  0.159418  0  3.853033  0
C  C32  1  0.26169064  0.97148685  0.98685152  1  0  -0.186561  0  3.685143  0  0  -0.200176  0  3.945984  0  0  -0.214288  0  3.96518  0  0  -0.096269  -0.191461  0  3.934148  0
C  C33  1  0.73829440  0.02851995  0.01314828  1  0  -0.18636  0  3.685093  0  0  -0.200082  0  3.946051  0  0  -0.214192  0  3.965247  0  0  -0.096238  -0.191373  0  3.934215  0
C  C34  1  0.15608927  0.12239713  0.05814857  1  0  0.215789  0  3.632168  0  0  0.175337  0  3.886892  0  0  0.192848  0  3.896413  0  0  0.063742  0.163411  0  3.881282  0
C  C35  1  0.84391154  0.87760214  0.94185445  1  0  0.215778  0  3.631925  0  0  0.175328  0  3.886678  0  0  0.192839  0  3.896198  0  0  0.063725  0.1634  0  3.881071  0
S  S36  1  0.93132328  0.37363959  0.40956637  1  0  -0.395861  0  2.772512  0  0  -0.380911  0  3.266373  0  0  -0.38669  0  3.233223  0  0  -0.221556  -0.377416  0  3.287756  0
S  S37  1  0.06868365  0.62635512  0.59043649  1  0  -0.395998  0  2.77254  0  0  -0.381047  0  3.266436  0  0  -0.386825  0  3.233274  0  0  -0.221602  -0.377552  0  3.287824  0
S  S38  1  0.01136004  0.84085292  0.30275797  1  0  -0.400649  0  2.366024  0  0  -0.395177  0  2.794246  0  0  -0.410154  0  2.779947  0  0  -0.200337  -0.384438  0  2.80232  0
S  S39  1  0.98864011  0.15915094  0.69724558  1  0  -0.400631  0  2.365875  0  0  -0.395141  0  2.794176  0  0  -0.410123  0  2.779873  0  0  -0.200317  -0.384406  0  2.802253  0
N  N40  1  0.63971619  0.62104484  0.54165850  1  0  -0.35049  0  3.240224  0  0  -0.280815  0  3.522676  0  0  -0.296936  0  3.528433  0  0  -0.35074  -0.271233  0  3.519277  0
N  N41  1  0.36029073  0.37895904  0.45834301  1  0  -0.350594  0  3.240158  0  0  -0.280769  0  3.522488  0  0  -0.296882  0  3.528233  0  0  -0.350739  -0.271191  0  3.519091  0
N  N42  1  0.59691962  0.71602009  0.36284831  1  0  -0.30217  0  3.418874  0  0  -0.227942  0  3.633357  0  0  -0.247127  0  3.643881  0  0  -0.351094  -0.215863  0  3.627306  0
N  N43  1  0.40309338  0.28397922  0.63715071  1  0  -0.302146  0  3.418798  0  0  -0.227894  0  3.633265  0  0  -0.24709  0  3.643802  0  0  -0.351044  -0.215814  0  3.627207  0
N  N44  1  0.20722104  0.74331697  0.11345699  1  0  -0.308884  0  3.427364  0  0  -0.234546  0  3.642957  0  0  -0.255423  0  3.654914  0  0  -0.352846  -0.221176  0  3.635345  0
N  N45  1  0.79275236  0.25669127  0.88654046  1  0  -0.308751  0  3.427365  0  0  -0.234363  0  3.642977  0  0  -0.255245  0  3.654936  0  0  -0.352672  -0.220992  0  3.635362  0
N  N46  1  0.07922320  0.08624255  0.15337891  1  0  -0.372567  0  3.317277  0  0  -0.293624  0  3.602436  0  0  -0.31323  0  3.607522  0  0  -0.365652  -0.281897  0  3.599429  0
N  N47  1  0.92078097  0.91375825  0.84662143  1  0  -0.372652  0  3.317243  0  0  -0.293658  0  3.602416  0  0  -0.313265  0  3.6075  0  0  -0.365619  -0.281927  0  3.599407  0
Cl  Cl48  1  0.36477708  0.30283794  0.20460734  1  0  -0.56155  0  1.077562  0  0  -0.508654  0  1.376616  0  0  -0.523086  0  1.351948  0  0  -0.301308  -0.497502  0  1.392545  0
Cl  Cl49  1  0.63522160  0.69716587  0.79539166  1  0  -0.561531  0  1.077574  0  0  -0.508605  0  1.376584  0  0  -0.523061  0  1.351934  0  0  -0.30131  -0.497458  0  1.392514  0
Cl  Cl50  1  0.73312799  0.58377248  0.13902805  1  0  -0.565858  0  1.031778  0  0  -0.507171  0  1.322453  0  0  -0.524601  0  1.299133  0  0  -0.321399  -0.494149  0  1.33773  0
Cl  Cl51  1  0.26687616  0.41622525  0.86097171  1  0  -0.565895  0  1.031825  0  0  -0.507168  0  1.322463  0  0  -0.524589  0  1.299134  0  0  -0.321395  -0.494148  0  1.337737  0
