# generated using pymatgen
data_RbH3C6NO2
_symmetry_space_group_name_H-M   'P 1'
_cell_length_a   7.12993423
_cell_length_b   12.40757060
_cell_length_c   16.53230000
_cell_angle_alpha   90.00000000
_cell_angle_beta   90.00000000
_cell_angle_gamma   90.00000000
_symmetry_Int_Tables_number   1
_chemical_formula_structural   RbH3C6NO2
_chemical_formula_sum   'Rb8 H24 C48 N8 O16'
_cell_volume   1462.53260302
_cell_formula_units_Z   8
loop_
 _symmetry_equiv_pos_site_id
 _symmetry_equiv_pos_as_xyz
  1  'x, y, z'
loop_
 _atom_site_type_symbol
 _atom_site_label
 _atom_site_symmetry_multiplicity
 _atom_site_fract_x
 _atom_site_fract_y
 _atom_site_fract_z
 _atom_site_occupancy
 _atom_site_hle17_bader_spin_density
 _atom_site_hle17_ddec_charge
 _atom_site_hle17_ddec_spin_density
 _atom_site_hle17_ddec_sum_bond_order
 _atom_site_hle17_magmom
 _atom_site_hse06_10hf_bader_spin_density
 _atom_site_hse06_10hf_ddec_charge
 _atom_site_hse06_10hf_ddec_spin_density
 _atom_site_hse06_10hf_ddec_sum_bond_order
 _atom_site_hse06_10hf_magmom
 _atom_site_hse06_bader_spin_density
 _atom_site_hse06_ddec_charge
 _atom_site_hse06_ddec_spin_density
 _atom_site_hse06_ddec_sum_bond_order
 _atom_site_hse06_magmom
 _atom_site_pbe_bader_charge
 _atom_site_pbe_bader_spin_density
 _atom_site_pbe_cm5_charge
 _atom_site_pbe_ddec_charge
 _atom_site_pbe_ddec_spin_density
 _atom_site_pbe_ddec_sum_bond_order
 _atom_site_pbe_magmom
Rb  Rb0  1  0.91966486  0.08880707  0.89169928  1  0  0.929082  0  0.544886  0  0  0.868931  0  0.764292  0  0  0.885073  0  0.741128  0  0.882588  0  0.841365  0.857009  0  0.78068  0
Rb  Rb1  1  0.41965745  0.91119288  0.89170049  1  0  0.929072  0  0.544871  0  0  0.86892  0  0.764263  0  0  0.885062  0  0.741099  0  0.882553  0  0.841348  0.856998  0  0.78065  0
Rb  Rb2  1  0.08034155  0.58880664  0.39169867  1  0  0.929062  0  0.544891  0  0  0.868911  0  0.76429  0  0  0.885054  0  0.741124  0  0.882545  0  0.841328  0.856989  0  0.780678  0
Rb  Rb3  1  0.41966166  0.58880987  0.60830012  1  0  0.929077  0  0.54486  0  0  0.868916  0  0.764276  0  0  0.885059  0  0.74111  0  0.882551  0  0.841349  0.856992  0  0.780664  0
Rb  Rb4  1  0.08033875  0.91119046  0.10830133  1  0  0.929073  0  0.544862  0  0  0.868916  0  0.764269  0  0  0.885059  0  0.741104  0  0.882546  0  0.841349  0.856994  0  0.780656  0
Rb  Rb5  1  0.58033915  0.08880707  0.10830012  1  0  0.929067  0  0.544858  0  0  0.86891  0  0.764259  0  0  0.885053  0  0.741094  0  0.882566  0  0.841323  0.85699  0  0.780647  0
Rb  Rb6  1  0.91966346  0.41119331  0.60830133  1  0  0.929069  0  0.544878  0  0  0.868911  0  0.764295  0  0  0.885053  0  0.741129  0  0.882568  0  0.841341  0.856988  0  0.780684  0
Rb  Rb7  1  0.58034196  0.41119250  0.39169988  1  0  0.92907  0  0.544885  0  0  0.868924  0  0.764277  0  0  0.885066  0  0.741111  0  0.882523  0  0.84135  0.857002  0  0.780666  0
H  H8  1  0.01141385  0.65038357  0.97896119  1  0  0.092255  0  0.940579  0  0  0.105646  0  0.997403  0  0  0.108953  0  0.994967  0  0.088072  0  0.111196  0.103209  0  0.999241  0
H  H9  1  0.51142548  0.34961639  0.97896179  1  0  0.092129  0  0.940542  0  0  0.105518  0  0.997379  0  0  0.108825  0  0.994945  0  0.088166  0  0.111159  0.103083  0  0.999217  0
H  H10  1  0.98857854  0.15038560  0.47896179  1  0  0.092184  0  0.940491  0  0  0.105543  0  0.997354  0  0  0.10885  0  0.99492  0  0.088123  0  0.11116  0.103107  0  0.999192  0
H  H11  1  0.51141425  0.15038077  0.52103881  1  0  0.092201  0  0.940587  0  0  0.105632  0  0.997374  0  0  0.10894  0  0.994936  0  0.088112  0  0.111208  0.103195  0  0.999214  0
H  H12  1  0.98858135  0.34961558  0.02103881  1  0  0.092226  0  0.940493  0  0  0.105564  0  0.997372  0  0  0.108869  0  0.994942  0  0.088153  0  0.111165  0.103128  0  0.99921  0
H  H13  1  0.48858936  0.65038115  0.02104063  1  0  0.092158  0  0.940582  0  0  0.105569  0  0.997387  0  0  0.108877  0  0.994951  0  0.088174  0  0.111182  0.103134  0  0.999224  0
H  H14  1  0.01142086  0.84961918  0.52103942  1  0  0.092228  0  0.940522  0  0  0.105608  0  0.997357  0  0  0.108913  0  0.994924  0  0.088132  0  0.111189  0.103173  0  0.999195  0
H  H15  1  0.48859216  0.84961999  0.47895998  1  0  0.092214  0  0.940568  0  0  0.105623  0  0.997369  0  0  0.108932  0  0.994931  0  0.088098  0  0.111199  0.103188  0  0.999205  0
H  H16  1  0.14064085  0.47244946  0.93020269  1  0  0.090584  0  0.961371  0  0  0.10219  0  1.021098  0  0  0.105028  0  1.020595  0  0.061438  0  0.101756  0.100117  0  1.021652  0
H  H17  1  0.64064406  0.52755452  0.93020088  1  0  0.090611  0  0.96126  0  0  0.102189  0  1.021022  0  0  0.105025  0  1.020523  0  0.061463  0  0.101769  0.100116  0  1.021576  0
H  H18  1  0.85935716  0.97244822  0.43020330  1  0  0.090586  0  0.961289  0  0  0.102182  0  1.021051  0  0  0.105019  0  1.020551  0  0.061417  0  0.101756  0.10012  0  1.021593  0
H  H19  1  0.64063424  0.97244339  0.56979912  1  0  0.090624  0  0.961287  0  0  0.102196  0  1.021051  0  0  0.105031  0  1.020556  0  0.06155  0  0.101789  0.100098  0  1.021633  0
H  H20  1  0.85935716  0.52755130  0.06979973  1  0  0.090567  0  0.96141  0  0  0.102159  0  1.021157  0  0  0.104995  0  1.02066  0  0.061611  0  0.10178  0.100099  0  1.021696  0
H  H21  1  0.35936236  0.47244623  0.06979973  1  0  0.09058  0  0.961398  0  0  0.102157  0  1.021157  0  0  0.104993  0  1.02066  0  0.061602  0  0.101781  0.1001  0  1.021694  0
H  H22  1  0.14064225  0.02755334  0.56979973  1  0  0.090598  0  0.961388  0  0  0.102206  0  1.021109  0  0  0.105043  0  1.02061  0  0.061429  0  0.101777  0.100144  0  1.021651  0
H  H23  1  0.35936096  0.02755415  0.43019967  1  0  0.090548  0  0.961418  0  0  0.102131  0  1.021168  0  0  0.104966  0  1.020672  0  0.061639  0  0.101772  0.100072  0  1.021707  0
H  H24  1  0.22462199  0.45392125  0.78314451  1  0  0.087416  0  0.938157  0  0  0.094185  0  1.00254  0  0  0.097601  0  0.99979  0  0.104813  0  0.120426  0.091592  0  1.004705  0
H  H25  1  0.72462660  0.54608031  0.78314209  1  0  0.087382  0  0.9381  0  0  0.094161  0  1.002485  0  0  0.097561  0  0.999745  0  0.104902  0  0.120391  0.091569  0  1.004649  0
H  H26  1  0.77537461  0.95392083  0.28314451  1  0  0.087377  0  0.938163  0  0  0.09414  0  1.00255  0  0  0.097559  0  0.999786  0  0.104939  0  0.120414  0.091549  0  1.004714  0
H  H27  1  0.72462239  0.95392163  0.71685730  1  0  0.08744  0  0.938119  0  0  0.094214  0  1.002499  0  0  0.097617  0  0.999745  0  0.104768  0  0.120419  0.091622  0  1.004664  0
H  H28  1  0.77537882  0.54607870  0.21685851  1  0  0.087397  0  0.938112  0  0  0.094186  0  1.002491  0  0  0.097592  0  0.999732  0  0.104755  0  0.120421  0.091594  0  1.004655  0
H  H29  1  0.27537421  0.45392206  0.21685670  1  0  0.0874  0  0.938138  0  0  0.094165  0  1.002537  0  0  0.097585  0  0.999773  0  0.104956  0  0.120416  0.091574  0  1.0047  0
H  H30  1  0.22462059  0.04607913  0.71685851  1  0  0.087433  0  0.938136  0  0  0.094186  0  1.002533  0  0  0.097618  0  0.999748  0  0.104798  0  0.120416  0.091594  0  1.004699  0
H  H31  1  0.27537561  0.04607913  0.28314088  1  0  0.087364  0  0.938145  0  0  0.094165  0  1.002514  0  0  0.097554  0  0.999788  0  0.104752  0  0.120409  0.091583  0  1.004668  0
C  C32  1  0.07932752  0.70534195  0.78014311  1  0  0.172638  0  3.734518  0  0  0.164869  0  3.980761  0  0  0.171876  0  3.997701  0  0.561929  0  0.129142  0.160128  0  3.96963  0
C  C33  1  0.57933353  0.29465962  0.78014432  1  0  0.172766  0  3.734194  0  0  0.16496  0  3.980448  0  0  0.171987  0  3.997355  0  0.515612  0  0.129127  0.160221  0  3.969315  0
C  C34  1  0.92066628  0.20533996  0.28014432  1  0  0.172753  0  3.734309  0  0  0.164925  0  3.98062  0  0  0.171952  0  3.997534  0  0.562071  0  0.129098  0.160187  0  3.96948  0
C  C35  1  0.57933213  0.20534076  0.71985205  1  0  0.172527  0  3.7346  0  0  0.164805  0  3.98078  0  0  0.171831  0  3.997689  0  0.562377  0  0.129011  0.160068  0  3.969641  0
C  C36  1  0.92066207  0.29465559  0.21985507  1  0  0.172693  0  3.734303  0  0  0.164916  0  3.980597  0  0  0.171926  0  3.997519  0  0.515888  0  0.129159  0.160177  0  3.969464  0
C  C37  1  0.42066868  0.70534195  0.21985749  1  0  0.172821  0  3.734152  0  0  0.165025  0  3.980404  0  0  0.172039  0  3.997336  0  0.515639  0  0.129228  0.160288  0  3.969266  0
C  C38  1  0.07933173  0.79465758  0.71985689  1  0  0.172764  0  3.734347  0  0  0.164962  0  3.98063  0  0  0.17197  0  3.99757  0  0.515523  0  0.129187  0.160227  0  3.969488  0
C  C39  1  0.42067008  0.79465838  0.28014493  1  0  0.172653  0  3.73447  0  0  0.164894  0  3.980697  0  0  0.171907  0  3.997629  0  0.561946  0  0.129117  0.160155  0  3.969559  0
C  C40  1  0.02109276  0.72207608  0.86052031  1  0  -0.111162  0  3.68307  0  0  -0.090923  0  3.915057  0  0  -0.09841  0  3.93338  0  -0.015202  0  -0.002662  -0.086596  0  3.903334  0
C  C41  1  0.52109737  0.27792790  0.86051971  1  0  -0.111205  0  3.68295  0  0  -0.090924  0  3.914879  0  0  -0.098433  0  3.933229  0  -0.01523  0  -0.002636  -0.086593  0  3.903163  0
C  C42  1  0.97889683  0.22207329  0.36051911  1  0  -0.11126  0  3.683112  0  0  -0.090941  0  3.915007  0  0  -0.098452  0  3.933362  0  -0.015181  0  -0.00262  -0.086608  0  3.903287  0
C  C43  1  0.52109597  0.22207248  0.63947787  1  0  -0.110963  0  3.683128  0  0  -0.090707  0  3.915053  0  0  -0.098216  0  3.933407  0  -0.015368  0  -0.002566  -0.086379  0  3.903335  0
C  C44  1  0.97889683  0.27792145  0.13947848  1  0  -0.110931  0  3.682823  0  0  -0.090707  0  3.914786  0  0  -0.098183  0  3.933087  0  -0.015746  0  -0.00256  -0.086381  0  3.903065  0
C  C45  1  0.47890764  0.72207286  0.13947848  1  0  -0.111231  0  3.682974  0  0  -0.09096  0  3.914976  0  0  -0.098452  0  3.933302  0  -0.015519  0  -0.002711  -0.086633  0  3.903254  0
C  C46  1  0.02109837  0.77792425  0.63947848  1  0  -0.111238  0  3.682752  0  0  -0.091006  0  3.914774  0  0  -0.098488  0  3.933086  0  -0.015367  0  -0.002666  -0.086674  0  3.903057  0
C  C47  1  0.47891045  0.77792505  0.36052092  1  0  -0.111162  0  3.683135  0  0  -0.090896  0  3.915115  0  0  -0.098387  0  3.93344  0  -0.015397  0  -0.002656  -0.086569  0  3.903393  0
C  C48  1  0.93678283  0.82772529  0.88832104  1  0  0.668056  0  4.010453  0  0  0.618459  0  4.316922  0  0  0.652782  0  4.306143  0  1.628888  0  0.17096  0.595128  0  4.323444  0
C  C49  1  0.43678243  0.17227869  0.88831560  1  0  0.668181  0  4.010491  0  0  0.618572  0  4.316962  0  0  0.652899  0  4.306179  0  1.63003  0  0.170991  0.595222  0  4.32352  0
C  C50  1  0.06321797  0.32772330  0.38831802  1  0  0.668291  0  4.010407  0  0  0.618676  0  4.316877  0  0  0.653003  0  4.306095  0  1.628966  0  0.171006  0.595327  0  4.323427  0
C  C51  1  0.43677402  0.32772330  0.61168379  1  0  0.668081  0  4.010557  0  0  0.618446  0  4.317085  0  0  0.652772  0  4.306304  0  1.629062  0  0.170936  0.595104  0  4.323626  0
C  C52  1  0.06321377  0.17227224  0.11168077  1  0  0.668033  0  4.010558  0  0  0.61847  0  4.316971  0  0  0.65279  0  4.306193  0  1.629132  0  0.170956  0.595135  0  4.3235  0
C  C53  1  0.56322399  0.82772287  0.11168561  1  0  0.668191  0  4.010393  0  0  0.618539  0  4.316957  0  0  0.652863  0  4.306176  0  1.628942  0  0.17096  0.595206  0  4.323481  0
C  C54  1  0.93677863  0.67227262  0.61168077  1  0  0.668015  0  4.010575  0  0  0.618434  0  4.317004  0  0  0.652756  0  4.306225  0  1.628872  0  0.170931  0.595082  0  4.323564  0
C  C55  1  0.56322539  0.67227907  0.38831560  1  0  0.668237  0  4.01036  0  0  0.618579  0  4.316936  0  0  0.652903  0  4.306155  0  1.629026  0  0.17098  0.595246  0  4.32346  0
C  C56  1  0.04743242  0.63766472  0.91552355  1  0  -0.044708  0  3.745668  0  0  -0.070419  0  3.992895  0  0  -0.06783  0  4.011394  0  -0.069215  0  -0.069071  -0.071816  0  3.980386  0
C  C57  1  0.54744124  0.36233926  0.91551992  1  0  -0.044516  0  3.745551  0  0  -0.070234  0  3.992787  0  0  -0.06764  0  4.01129  0  -0.069694  0  -0.069006  -0.071634  0  3.980281  0
C  C58  1  0.95255858  0.13766595  0.41552113  1  0  -0.044583  0  3.745495  0  0  -0.070282  0  3.992716  0  0  -0.067688  0  4.011219  0  -0.069816  0  -0.069  -0.071682  0  3.980213  0
C  C59  1  0.54743001  0.13766192  0.58447645  1  0  -0.044643  0  3.745557  0  0  -0.070398  0  3.99279  0  0  -0.067806  0  4.011294  0  -0.069112  0  -0.069046  -0.071795  0  3.980275  0
C  C60  1  0.95255437  0.36233523  0.08447826  1  0  -0.044779  0  3.745517  0  0  -0.07043  0  3.992751  0  0  -0.067845  0  4.011248  0  -0.069665  0  -0.06906  -0.07183  0  3.98025  0
C  C61  1  0.45257079  0.63766230  0.08448068  1  0  -0.044591  0  3.745828  0  0  -0.070315  0  3.993038  0  0  -0.067726  0  4.01154  0  -0.069576  0  -0.069032  -0.071716  0  3.980538  0
C  C62  1  0.04743662  0.86233722  0.58447645  1  0  -0.04464  0  3.745499  0  0  -0.070332  0  3.992735  0  0  -0.067744  0  4.011232  0  -0.069704  0  -0.069082  -0.071733  0  3.980233  0
C  C63  1  0.45256939  0.86233884  0.41552174  1  0  -0.044667  0  3.745599  0  0  -0.070396  0  3.992819  0  0  -0.067806  0  4.011318  0  -0.069019  0  -0.069036  -0.071798  0  3.98032  0
C  C64  1  0.11988470  0.53975353  0.88882793  1  0  -0.128859  0  3.787206  0  0  -0.14255  0  4.042734  0  0  -0.149317  0  4.06566  0  -0.099973  0  -0.090098  -0.138158  0  4.027262  0
C  C65  1  0.61989211  0.46025045  0.88882551  1  0  -0.128918  0  3.787218  0  0  -0.142592  0  4.042741  0  0  -0.149357  0  4.065658  0  -0.099197  0  -0.090136  -0.138199  0  4.027268  0
C  C66  1  0.88010209  0.03975315  0.38882491  1  0  -0.12895  0  3.787086  0  0  -0.142646  0  4.042634  0  0  -0.149413  0  4.065558  0  -0.09943  0  -0.090157  -0.138262  0  4.02716  0
C  C67  1  0.61988791  0.03974992  0.61117449  1  0  -0.128883  0  3.787157  0  0  -0.142555  0  4.042697  0  0  -0.149322  0  4.065618  0  -0.099853  0  -0.090119  -0.13814  0  4.02723  0
C  C68  1  0.88010630  0.46024562  0.11117570  1  0  -0.128915  0  3.78723  0  0  -0.142589  0  4.042758  0  0  -0.149357  0  4.06568  0  -0.099483  0  -0.090208  -0.138208  0  4.027283  0
C  C69  1  0.38011571  0.53975192  0.11117630  1  0  -0.128867  0  3.787352  0  0  -0.142531  0  4.04288  0  0  -0.149299  0  4.065808  0  -0.099399  0  -0.090139  -0.138152  0  4.027404  0
C  C70  1  0.11988890  0.96024761  0.61117328  1  0  -0.128851  0  3.787307  0  0  -0.142549  0  4.042822  0  0  -0.149318  0  4.065753  0  -0.099505  0  -0.090113  -0.138166  0  4.027348  0
C  C71  1  0.38011290  0.96025003  0.38882430  1  0  -0.128822  0  3.787277  0  0  -0.142491  0  4.04282  0  0  -0.149257  0  4.065738  0  -0.099921  0  -0.090149  -0.138112  0  4.027348  0
C  C72  1  0.16812217  0.52933408  0.80732566  1  0  0.10942  0  3.755053  0  0  0.082891  0  4.018506  0  0  0.089411  0  4.03437  0  0.508793  0  0.042036  0.078624  0  4.007828  0
C  C73  1  0.66813099  0.47067070  0.80732384  1  0  0.109472  0  3.755073  0  0  0.08294  0  4.018491  0  0  0.089477  0  4.034364  0  0.508106  0  0.042068  0.078678  0  4.007809  0
C  C74  1  0.83186882  0.02933129  0.30732264  1  0  0.109627  0  3.755303  0  0  0.083117  0  4.018712  0  0  0.089643  0  4.034579  0  0.508472  0  0.042129  0.07885  0  4.008036  0
C  C75  1  0.66812398  0.02933209  0.69267736  1  0  0.109421  0  3.755315  0  0  0.082902  0  4.018718  0  0  0.089442  0  4.034594  0  0.508627  0  0.042066  0.078638  0  4.008029  0
C  C76  1  0.83187023  0.47066829  0.19267676  1  0  0.109612  0  3.75518  0  0  0.083049  0  4.018624  0  0  0.089591  0  4.034499  0  0.508686  0  0.042129  0.078783  0  4.007947  0
C  C77  1  0.33187683  0.52933086  0.19267736  1  0  0.109529  0  3.755317  0  0  0.082986  0  4.018756  0  0  0.089509  0  4.034624  0  0.508391  0  0.042089  0.07872  0  4.00808  0
C  C78  1  0.16812217  0.97066464  0.69267676  1  0  0.109307  0  3.755248  0  0  0.082801  0  4.01867  0  0  0.08932  0  4.034544  0  0.508813  0  0.042028  0.078534  0  4.007996  0
C  C79  1  0.33187683  0.97066786  0.30732264  1  0  0.109586  0  3.755317  0  0  0.083014  0  4.018765  0  0  0.089561  0  4.034637  0  0.508626  0  0.042125  0.078741  0  4.008084  0
N  N80  1  0.15131135  0.61077146  0.75442497  1  0  -0.384068  0  3.135773  0  0  -0.346334  0  3.405212  0  0  -0.358191  0  3.420101  0  -1.203371  0  -0.367402  -0.33829  0  3.395189  0
N  N81  1  0.65132859  0.38923091  0.75442376  1  0  -0.384181  0  3.135662  0  0  -0.346454  0  3.405121  0  0  -0.358317  0  3.419994  0  -1.203419  0  -0.367409  -0.33841  0  3.395094  0
N  N82  1  0.84867683  0.11076947  0.25442800  1  0  -0.384267  0  3.136005  0  0  -0.346536  0  3.405476  0  0  -0.358401  0  3.420357  0  -1.203412  0  -0.367484  -0.338492  0  3.395452  0
N  N83  1  0.65132298  0.11077189  0.74557200  1  0  -0.384166  0  3.135996  0  0  -0.346468  0  3.40543  0  0  -0.358332  0  3.420304  0  -1.203768  0  -0.367447  -0.338424  0  3.395405  0
N  N84  1  0.84867964  0.38922930  0.24557261  1  0  -0.384262  0  3.135943  0  0  -0.346522  0  3.40541  0  0  -0.358386  0  3.42029  0  -1.203728  0  -0.36747  -0.338478  0  3.395385  0
N  N85  1  0.34867923  0.61076985  0.24557321  1  0  -0.384244  0  3.13605  0  0  -0.346498  0  3.4055  0  0  -0.35836  0  3.420388  0  -1.2034  0  -0.367476  -0.338454  0  3.395474  0
N  N86  1  0.15131276  0.88922726  0.74557563  1  0  -0.384051  0  3.135886  0  0  -0.346312  0  3.405316  0  0  -0.358174  0  3.42021  0  -1.20346  0  -0.367423  -0.338269  0  3.395292  0
N  N87  1  0.34867783  0.88922968  0.25442679  1  0  -0.384228  0  3.136011  0  0  -0.346495  0  3.405469  0  0  -0.358353  0  3.420341  0  -1.203399  0  -0.367468  -0.33845  0  3.395445  0
O  O88  1  0.79059635  0.86062375  0.85280028  1  0  -0.7125  0  1.924321  0  0  -0.668514  0  2.159964  0  0  -0.6933  0  2.149404  0  -1.207146  0  -0.45796  -0.65067  0  2.166493  0
O  O89  1  0.29060436  0.13937942  0.85279423  1  0  -0.712505  0  1.924298  0  0  -0.668532  0  2.159965  0  0  -0.693318  0  2.149408  0  -1.207168  0  -0.457945  -0.650676  0  2.166488  0
O  O90  1  0.20940726  0.36061935  0.35280149  1  0  -0.712553  0  1.924268  0  0  -0.668573  0  2.159917  0  0  -0.693357  0  2.149357  0  -1.207095  0  -0.45794  -0.650722  0  2.16645  0
O  O91  1  0.29059735  0.36061773  0.64720880  1  0  -0.712501  0  1.924301  0  0  -0.668536  0  2.160014  0  0  -0.693319  0  2.149454  0  -1.207237  0  -0.457943  -0.650682  0  2.166533  0
O  O92  1  0.20938903  0.13937781  0.14720154  1  0  -0.712424  0  1.924547  0  0  -0.668441  0  2.160164  0  0  -0.693223  0  2.149606  0  -1.20705  0  -0.457878  -0.650598  0  2.166696  0
O  O93  1  0.70940346  0.86061489  0.14721061  1  0  -0.712546  0  1.92422  0  0  -0.668565  0  2.159939  0  0  -0.693351  0  2.14938  0  -1.207139  0  -0.457964  -0.650719  0  2.166462  0
O  O94  1  0.79060056  0.63937658  0.64719730  1  0  -0.712413  0  1.92457  0  0  -0.668433  0  2.160207  0  0  -0.693217  0  2.149649  0  -1.207158  0  -0.457924  -0.65058  0  2.166737  0
O  O95  1  0.70940626  0.63938544  0.35278818  1  0  -0.712593  0  1.924176  0  0  -0.668609  0  2.159879  0  0  -0.693396  0  2.149318  0  -1.20714  0  -0.457987  -0.650763  0  2.166405  0
O  O96  1  0.02231998  0.87424850  0.94612788  1  0  -0.768179  0  1.97571  0  0  -0.718429  0  2.225564  0  0  -0.743678  0  2.213831  0  -1.218459  0  -0.529684  -0.700281  0  2.232894  0
O  O97  1  0.52232880  0.12575548  0.94612244  1  0  -0.76827  0  1.975705  0  0  -0.71853  0  2.225583  0  0  -0.743779  0  2.213845  0  -1.219303  0  -0.529706  -0.700375  0  2.232923  0
O  O98  1  0.97767662  0.37424812  0.44612546  1  0  -0.768306  0  1.975717  0  0  -0.718559  0  2.225579  0  0  -0.743808  0  2.213841  0  -1.21848  0  -0.52974  -0.700405  0  2.232919  0
O  O99  1  0.52230917  0.37425054  0.55387635  1  0  -0.768207  0  1.975687  0  0  -0.718449  0  2.225573  0  0  -0.743697  0  2.213836  0  -1.218317  0  -0.529654  -0.700299  0  2.232909  0
O  O100  1  0.97767382  0.12574742  0.05387212  1  0  -0.768275  0  1.975653  0  0  -0.718539  0  2.225486  0  0  -0.74379  0  2.213753  0  -1.218463  0  -0.529758  -0.700389  0  2.232818  0
O  O101  1  0.47769585  0.87425011  0.05387696  1  0  -0.768227  0  1.975638  0  0  -0.718461  0  2.225521  0  0  -0.74371  0  2.213787  0  -1.218298  0  -0.529647  -0.700312  0  2.232849  0
O  O102  1  0.02232980  0.62575264  0.55387091  1  0  -0.768227  0  1.975722  0  0  -0.718475  0  2.225558  0  0  -0.743728  0  2.213827  0  -1.218373  0  -0.529692  -0.700318  0  2.232898  0
O  O103  1  0.47770286  0.62574941  0.44612365  1  0  -0.768216  0  1.975655  0  0  -0.718449  0  2.225547  0  0  -0.743698  0  2.213812  0  -1.218366  0  -0.529634  -0.700299  0  2.232877  0
