# generated using pymatgen
data_LiH4C6NO2
_symmetry_space_group_name_H-M   'P 1'
_cell_length_a   5.35493402
_cell_length_b   11.01455413
_cell_length_c   14.26637361
_cell_angle_alpha   89.99899901
_cell_angle_beta   90.00089685
_cell_angle_gamma   108.54677860
_symmetry_Int_Tables_number   1
_chemical_formula_structural   LiH4C6NO2
_chemical_formula_sum   'Li4 H16 C24 N4 O8'
_cell_volume   797.76030363
_cell_formula_units_Z   4
loop_
 _symmetry_equiv_pos_site_id
 _symmetry_equiv_pos_as_xyz
  1  'x, y, z'
loop_
 _atom_site_type_symbol
 _atom_site_label
 _atom_site_symmetry_multiplicity
 _atom_site_fract_x
 _atom_site_fract_y
 _atom_site_fract_z
 _atom_site_occupancy
 _atom_site_hle17_bader_spin_density
 _atom_site_hle17_ddec_charge
 _atom_site_hle17_ddec_spin_density
 _atom_site_hle17_ddec_sum_bond_order
 _atom_site_hle17_magmom
 _atom_site_hse06_10hf_bader_spin_density
 _atom_site_hse06_10hf_ddec_charge
 _atom_site_hse06_10hf_ddec_spin_density
 _atom_site_hse06_10hf_ddec_sum_bond_order
 _atom_site_hse06_10hf_magmom
 _atom_site_hse06_bader_spin_density
 _atom_site_hse06_ddec_charge
 _atom_site_hse06_ddec_spin_density
 _atom_site_hse06_ddec_sum_bond_order
 _atom_site_hse06_magmom
 _atom_site_pbe_bader_spin_density
 _atom_site_pbe_cm5_charge
 _atom_site_pbe_ddec_charge
 _atom_site_pbe_ddec_spin_density
 _atom_site_pbe_ddec_sum_bond_order
 _atom_site_pbe_magmom
Li  Li0  1  0.92615095  0.73804594  0.01891735  1  0  0.837949  0  0.440712  0  0  0.784589  0  0.570494  0  0  0.796428  0  0.55043  0  0  0.529972  0.776051  0  0.584896  0
Li  Li1  1  0.07386118  0.26195490  0.51890823  1  0  0.837957  0  0.440694  0  0  0.784582  0  0.570491  0  0  0.796422  0  0.550431  0  0  0.530016  0.776044  0  0.584891  0
Li  Li2  1  0.56748683  0.76061043  0.15305948  1  0  0.838194  0  0.441061  0  0  0.78453  0  0.571306  0  0  0.79636  0  0.551218  0  0  0.530714  0.776005  0  0.585701  0
Li  Li3  1  0.43252779  0.23941700  0.65306833  1  0  0.838233  0  0.441005  0  0  0.78453  0  0.57129  0  0  0.796368  0  0.551195  0  0  0.530722  0.776002  0  0.585682  0
H  H4  1  0.40768126  0.93560040  0.35274698  1  0  0.108729  0  0.952523  0  0  0.117836  0  1.013166  0  0  0.121244  0  1.012142  0  0  0.111776  0.115382  0  1.013976  0
H  H5  1  0.59232656  0.06439747  0.85274932  1  0  0.108771  0  0.952621  0  0  0.117901  0  1.013219  0  0  0.121323  0  1.012177  0  0  0.111732  0.115433  0  1.01404  0
H  H6  1  0.35791929  0.08470734  0.47972584  1  0  0.080443  0  0.925356  0  0  0.088879  0  0.986575  0  0  0.092466  0  0.983511  0  0  0.134301  0.086205  0  0.988952  0
H  H7  1  0.64206097  0.91527592  0.97972848  1  0  0.080405  0  0.925254  0  0  0.08891  0  0.986429  0  0  0.092502  0  0.983357  0  0  0.134317  0.08623  0  0.988813  0
H  H8  1  0.80261863  0.18793392  0.32548273  1  0  0.069409  0  0.937701  0  0  0.077329  0  1.001011  0  0  0.079769  0  0.999765  0  0  0.116714  0.07558  0  1.00188  0
H  H9  1  0.19740522  0.81207813  0.82548465  1  0  0.069439  0  0.93771  0  0  0.077336  0  1.001034  0  0  0.079773  0  0.999789  0  0  0.116754  0.075585  0  1.001899  0
H  H10  1  0.81381252  0.03508452  0.19589723  1  0  0.11871  0  0.945688  0  0  0.127405  0  1.004686  0  0  0.131621  0  1.002294  0  0  0.118723  0.124355  0  1.006554  0
H  H11  1  0.18620341  0.96493551  0.69590407  1  0  0.118774  0  0.945694  0  0  0.127425  0  1.004728  0  0  0.131639  0  1.002341  0  0  0.118735  0.124378  0  1.006603  0
H  H12  1  0.91133706  0.43680987  0.31845932  1  0  0.108514  0  0.952202  0  0  0.117828  0  1.012292  0  0  0.121236  0  1.011272  0  0  0.11174  0.115374  0  1.013096  0
H  H13  1  0.08861389  0.56315785  0.81848207  1  0  0.108338  0  0.952188  0  0  0.117714  0  1.012238  0  0  0.121107  0  1.011227  0  0  0.111689  0.115258  0  1.013045  0
H  H14  1  0.85590489  0.58435474  0.19135650  1  0  0.080651  0  0.926748  0  0  0.089064  0  0.988145  0  0  0.092679  0  0.985015  0  0  0.134799  0.086362  0  0.990568  0
H  H15  1  0.14406967  0.41561336  0.69139345  1  0  0.080459  0  0.92675  0  0  0.089036  0  0.988036  0  0  0.092657  0  0.984894  0  0  0.134728  0.086334  0  0.990461  0
H  H16  1  0.32251539  0.53729058  0.47761359  1  0  0.118823  0  0.945583  0  0  0.127842  0  1.004094  0  0  0.131952  0  1.00184  0  0  0.118817  0.124842  0  1.0059  0
H  H17  1  0.67749382  0.46271521  0.97763995  1  0  0.118745  0  0.94563  0  0  0.1277  0  1.004203  0  0  0.131806  0  1.001949  0  0  0.118718  0.124701  0  1.006007  0
H  H18  1  0.30611128  0.68877229  0.34773790  1  0  0.068977  0  0.938647  0  0  0.076818  0  1.002003  0  0  0.079376  0  1.000627  0  0  0.116568  0.074995  0  1.002955  0
H  H19  1  0.69391695  0.31123945  0.84777478  1  0  0.069046  0  0.938758  0  0  0.076904  0  1.002073  0  0  0.079458  0  1.0007  0  0  0.116635  0.075088  0  1.003016  0
C  C20  1  0.14181452  0.88583304  0.18672811  1  0  0.705174  0  3.911861  0  0  0.659472  0  4.204236  0  0  0.69262  0  4.193602  0  0  0.235164  0.637072  0  4.210646  0
C  C21  1  0.85819753  0.11419082  0.68672375  1  0  0.705478  0  3.91151  0  0  0.65952  0  4.20425  0  0  0.692674  0  4.193618  0  0  0.235167  0.637118  0  4.210662  0
C  C22  1  0.11521138  0.97470019  0.26418651  1  0  -0.01341  0  3.718024  0  0  0.007762  0  3.943399  0  0  0.004722  0  3.965228  0  0  0.008792  0.009804  0  3.928678  0
C  C23  1  0.88480083  0.02530144  0.76419471  1  0  -0.013726  0  3.717642  0  0  0.007535  0  3.943097  0  0  0.00449  0  3.96493  0  0  0.00868  0.009573  0  3.92837  0
C  C24  1  0.26848166  0.98872944  0.34537291  1  0  -0.136513  0  3.735626  0  0  -0.157063  0  3.979046  0  0  -0.162734  0  4.001452  0  0  -0.078942  -0.15328  0  3.963898  0
C  C25  1  0.73149989  0.01125840  0.84538454  1  0  -0.13665  0  3.735701  0  0  -0.157213  0  3.979136  0  0  -0.162894  0  4.001543  0  0  -0.078813  -0.153405  0  3.963977  0
C  C26  1  0.24239788  0.07211314  0.41517377  1  0  0.124607  0  3.737889  0  0  0.099497  0  3.995641  0  0  0.103876  0  4.013209  0  0  0.0566  0.096645  0  3.983726  0
C  C27  1  0.75761711  0.92789029  0.91518117  1  0  0.124794  0  3.738022  0  0  0.099597  0  3.995822  0  0  0.103969  0  4.013404  0  0  0.056617  0.096745  0  3.983896  0
C  C28  1  0.93320935  0.12944484  0.32926514  1  0  0.123889  0  3.750773  0  0  0.100163  0  4.008952  0  0  0.104503  0  4.027057  0  0  0.051878  0.097425  0  3.996507  0
C  C29  1  0.06679128  0.87055517  0.82925496  1  0  0.123774  0  3.751248  0  0  0.100071  0  4.009404  0  0  0.104414  0  4.027507  0  0  0.051783  0.097335  0  3.99696  0
C  C30  1  0.94159310  0.04594684  0.25678830  1  0  -0.127128  0  3.713503  0  0  -0.148665  0  3.956652  0  0  -0.153569  0  3.976984  0  0  -0.072135  -0.145529  0  3.943083  0
C  C31  1  0.05844344  0.95407258  0.75680149  1  0  -0.127062  0  3.71401  0  0  -0.148556  0  3.957169  0  0  -0.153457  0  3.977501  0  0  -0.072123  -0.145425  0  3.943617  0
C  C32  1  0.64946663  0.38765807  0.48554964  1  0  0.706719  0  3.909855  0  0  0.661325  0  4.202447  0  0  0.694445  0  4.191784  0  0  0.23573  0.638934  0  4.208901  0
C  C33  1  0.35050065  0.61232846  0.98556567  1  0  0.706855  0  3.909543  0  0  0.661626  0  4.202001  0  0  0.694755  0  4.191327  0  0  0.235871  0.639236  0  4.208453  0
C  C34  1  0.62150006  0.47638919  0.40811093  1  0  -0.011886  0  3.71385  0  0  0.007644  0  3.941612  0  0  0.004743  0  3.963273  0  0  0.008646  0.009587  0  3.927007  0
C  C35  1  0.37850715  0.52360380  0.90813882  1  0  -0.011944  0  3.71371  0  0  0.00726  0  3.941837  0  0  0.00435  0  3.963499  0  0  0.008853  0.009207  0  3.927233  0
C  C36  1  0.77222497  0.48987545  0.32633790  1  0  -0.136452  0  3.736269  0  0  -0.156465  0  3.980093  0  0  -0.16215  0  4.002436  0  0  -0.078049  -0.152683  0  3.964992  0
C  C37  1  0.22774883  0.51009937  0.82637203  1  0  -0.136368  0  3.736132  0  0  -0.156363  0  3.980158  0  0  -0.162034  0  4.002497  0  0  -0.078074  -0.152579  0  3.965059  0
C  C38  1  0.74296619  0.57237364  0.25641130  1  0  0.124312  0  3.738811  0  0  0.099034  0  3.996382  0  0  0.103432  0  4.013934  0  0  0.055577  0.096183  0  3.984472  0
C  C39  1  0.25700783  0.42760634  0.75645091  1  0  0.124706  0  3.738672  0  0  0.099277  0  3.996319  0  0  0.103676  0  4.013874  0  0  0.055634  0.09642  0  3.984411  0
C  C40  1  0.44816487  0.54771379  0.41617713  1  0  -0.127949  0  3.711946  0  0  -0.14919  0  3.955635  0  0  -0.154054  0  3.97597  0  0  -0.071796  -0.146068  0  3.942069  0
C  C41  1  0.55184101  0.45227617  0.91620495  1  0  -0.127734  0  3.712104  0  0  -0.148781  0  3.955828  0  0  -0.153638  0  3.976168  0  0  -0.071844  -0.145665  0  3.942265  0
C  C42  1  0.43676590  0.63039807  0.34353020  1  0  0.124558  0  3.75315  0  0  0.100898  0  4.011247  0  0  0.10518  0  4.029308  0  0  0.050861  0.098186  0  3.99885  0
C  C43  1  0.56324133  0.36959244  0.84356549  1  0  0.124371  0  3.75347  0  0  0.100666  0  4.011545  0  0  0.10495  0  4.029601  0  0  0.050767  0.097948  0  3.999152  0
N  N44  1  0.07907631  0.14272739  0.40758992  1  0  -0.39039  0  3.170799  0  0  -0.345038  0  3.438631  0  0  -0.355359  0  3.453236  0  0  -0.386584  -0.33804  0  3.428789  0
N  N45  1  0.92092863  0.85727872  0.90757966  1  0  -0.390277  0  3.170826  0  0  -0.344922  0  3.438678  0  0  -0.355245  0  3.453284  0  0  -0.38653  -0.337927  0  3.428833  0
N  N46  1  0.57945856  0.64278189  0.26451750  1  0  -0.391148  0  3.173605  0  0  -0.345675  0  3.441388  0  0  -0.356059  0  3.456096  0  0  -0.38618  -0.338642  0  3.431475  0
N  N47  1  0.42054244  0.35721282  0.76455065  1  0  -0.391156  0  3.173431  0  0  -0.345648  0  3.441263  0  0  -0.356037  0  3.455972  0  0  -0.386015  -0.338611  0  3.431348  0
O  O48  1  0.94864286  0.84477618  0.13024914  1  0  -0.783715  0  1.994269  0  0  -0.735703  0  2.243218  0  0  -0.757892  0  2.227657  0  0  -0.434765  -0.720159  0  2.253513  0
O  O49  1  0.05137840  0.15526506  0.63025461  1  0  -0.783766  0  1.99437  0  0  -0.735686  0  2.243512  0  0  -0.757876  0  2.227953  0  0  -0.434776  -0.720141  0  2.25381  0
O  O50  1  0.35373099  0.85919706  0.18382912  1  0  -0.718067  0  1.943926  0  0  -0.676736  0  2.18721  0  0  -0.697971  0  2.172166  0  0  -0.392028  -0.661775  0  2.197146  0
O  O51  1  0.64626268  0.14082068  0.68384131  1  0  -0.718223  0  1.943747  0  0  -0.676791  0  2.187171  0  0  -0.69803  0  2.172125  0  0  -0.392063  -0.661831  0  2.197112  0
O  O52  1  0.45535622  0.34536320  0.54150887  1  0  -0.783842  0  1.994092  0  0  -0.735481  0  2.242799  0  0  -0.757671  0  2.227243  0  0  -0.434506  -0.71992  0  2.253082  0
O  O53  1  0.54467878  0.65465762  0.04150969  1  0  -0.783981  0  1.993783  0  0  -0.735618  0  2.242352  0  0  -0.757816  0  2.226788  0  0  -0.434606  -0.720058  0  2.252635  0
O  O54  1  0.86279284  0.36234747  0.48884844  1  0  -0.719158  0  1.94402  0  0  -0.677875  0  2.186891  0  0  -0.69918  0  2.171929  0  0  -0.392403  -0.66286  0  2.196776  0
O  O55  1  0.13715588  0.63762528  0.98888803  1  0  -0.719258  0  1.944091  0  0  -0.678035  0  2.186924  0  0  -0.699322  0  2.171913  0  0  -0.392558  -0.663022  0  2.196814  0
