# generated using pymatgen
data_CoH24C30S2(N3O4)2
_symmetry_space_group_name_H-M   'P 1'
_cell_length_a   8.81906910
_cell_length_b   11.30905234
_cell_length_c   11.57922650
_cell_angle_alpha   115.94925941
_cell_angle_beta   95.20656569
_cell_angle_gamma   102.13793072
_symmetry_Int_Tables_number   1
_chemical_formula_structural   CoH24C30S2(N3O4)2
_chemical_formula_sum   'Co1 H24 C30 S2 N6 O8'
_cell_volume   993.03182369
_cell_formula_units_Z   1
loop_
 _symmetry_equiv_pos_site_id
 _symmetry_equiv_pos_as_xyz
  1  'x, y, z'
loop_
 _atom_site_type_symbol
 _atom_site_label
 _atom_site_symmetry_multiplicity
 _atom_site_fract_x
 _atom_site_fract_y
 _atom_site_fract_z
 _atom_site_occupancy
 _atom_site_hle17_ddec_charge
 _atom_site_hle17_ddec_spin_density
 _atom_site_hle17_ddec_sum_bond_order
 _atom_site_hle17_magmom
 _atom_site_hse06_10hf_ddec_charge
 _atom_site_hse06_10hf_ddec_spin_density
 _atom_site_hse06_10hf_ddec_sum_bond_order
 _atom_site_hse06_10hf_magmom
 _atom_site_hse06_ddec_charge
 _atom_site_hse06_ddec_spin_density
 _atom_site_hse06_ddec_sum_bond_order
 _atom_site_hse06_magmom
 _atom_site_pbe_cm5_charge
 _atom_site_pbe_ddec_charge
 _atom_site_pbe_ddec_spin_density
 _atom_site_pbe_ddec_sum_bond_order
 _atom_site_pbe_magmom
Co  Co0  1  0.99999973  0.00000057  0.99999931  1  0.631608  -1.177034  2.832649  -1.024  0.597713  -1.039382  3.291032  -0.948  0.64996  -1.037003  3.227285  -0.955  0.72893  0.569918  -1.033601  3.326637  -0.93
H  H1  1  0.83099501  0.09520184  0.23654200  1  0.086678  -0.000448  0.975233  -0.001  0.090331  -0.000429  1.044925  -0.001  0.09224  -0.000281  1.043669  0.0  0.113811  0.089192  -0.000603  1.045828  -0.001
H  H2  1  0.16899962  0.90479586  0.76345977  1  0.086701  -0.000448  0.975204  -0.001  0.090367  -0.000429  1.044878  -0.001  0.092276  -0.000281  1.043621  0.0  0.1138  0.089197  -0.000603  1.045816  -0.001
H  H3  1  0.75572929  0.04862880  0.41860020  1  0.125157  -0.000186  0.932145  0.0  0.133547  -0.000298  0.99124  0.0  0.137717  -0.00021  0.988344  0.0  0.116015  0.130802  -0.000395  0.993198  0.0
H  H4  1  0.24426602  0.95137095  0.58140246  1  0.12515  -0.000186  0.932181  0.0  0.133532  -0.000298  0.991286  0.0  0.137701  -0.00021  0.98839  0.0  0.116026  0.130785  -0.000395  0.993246  0.0
H  H5  1  0.96366876  0.71056398  0.27339812  1  0.119984  -0.000107  0.951522  0.0  0.129318  -0.000228  1.012061  0.0  0.132749  -0.000161  1.009971  0.0  0.108852  0.126804  -0.000361  1.013801  0.0
H  H6  1  0.03633448  0.28943571  0.72660330  1  0.119982  -0.000107  0.951546  0.0  0.129314  -0.000228  1.012083  0.0  0.132746  -0.000161  1.009992  0.0  0.108847  0.126798  -0.000361  1.013822  0.0
H  H7  1  0.03189438  0.77182606  0.09882256  1  0.076467  -0.000319  0.961209  -0.001  0.084136  -0.000404  1.025151  -0.001  0.085382  -0.000263  1.024532  -0.001  0.114308  0.083535  -0.000591  1.025241  -0.001
H  H8  1  0.96810189  0.22817673  0.90117799  1  0.076439  -0.000319  0.961133  -0.001  0.084145  -0.000404  1.025045  -0.001  0.085391  -0.000263  1.024427  -0.001  0.114286  0.083544  -0.000591  1.025135  -0.001
H  H9  1  0.69942261  0.71447522  0.58673672  1  0.068734  7.8e-05  0.953566  0.0  0.078577  5.2e-05  1.020485  0.0  0.078499  3.3e-05  1.020909  0.0  0.105618  0.078669  7.8e-05  1.020258  0.0
H  H10  1  0.30057677  0.28552657  0.41326706  1  0.068733  7.7e-05  0.953598  0.0  0.078589  5.1e-05  1.020527  0.0  0.078509  3.3e-05  1.02095  0.0  0.105625  0.078684  7.8e-05  1.020293  0.0
H  H11  1  0.90699142  0.76739066  0.65373575  1  0.082734  0.000164  0.932143  0.0  0.094471  0.000101  0.997087  0.0  0.093359  9.2e-05  0.999047  0.0  0.113051  0.095053  0.000103  0.995911  0.0
H  H12  1  0.09300970  0.23260599  0.34626685  1  0.082673  0.000164  0.932237  0.0  0.094479  0.000101  0.997129  0.0  0.093366  9.2e-05  0.999085  0.0  0.113064  0.095058  0.000103  0.995951  0.0
H  H13  1  0.91947399  0.53696875  0.47026987  1  0.076945  0.000101  0.952359  0.0  0.085135  5.9e-05  1.025968  0.0  0.085672  4e-05  1.025094  0.0  0.108256  0.084475  8.7e-05  1.026987  0.0
H  H14  1  0.08052656  0.46302986  0.52972488  1  0.076986  0.000101  0.952393  0.0  0.085171  5.9e-05  1.025975  0.0  0.085708  4e-05  1.025099  0.0  0.108269  0.084512  8.7e-05  1.026994  0.0
H  H15  1  0.82754949  0.52970764  0.59965254  1  0.075929  1.7e-05  0.918124  0.0  0.086875  2.8e-05  0.982679  0.0  0.086827  1.4e-05  0.982444  0.0  0.108607  0.086665  5e-05  0.983167  0.0
H  H16  1  0.17245078  0.47028999  0.40034610  1  0.07589  1.7e-05  0.918179  0.0  0.086838  2.8e-05  0.982707  0.0  0.086787  1.4e-05  0.982476  0.0  0.108595  0.086628  5e-05  0.983194  0.0
H  H17  1  0.51551655  0.06151450  0.27284649  1  0.122208  0.00038  0.930266  0.0  0.13291  2.1e-05  0.984709  0.0  0.135777  3.7e-05  0.983878  0.0  0.119709  0.13068  1.4e-05  0.985778  0.0
H  H18  1  0.48448071  0.93848423  0.72715760  1  0.122214  0.00038  0.93038  0.0  0.132922  2.1e-05  0.984807  0.0  0.135789  3.7e-05  0.983977  0.0  0.119698  0.130693  1.4e-05  0.985876  0.0
H  H19  1  0.25215998  0.93198802  0.12044673  1  0.092095  0.000115  0.945497  -0.001  0.100845  0.000224  1.004334  0.0  0.102263  0.000175  1.002653  0.0  0.1269  0.099612  0.000236  1.005862  0.0
H  H20  1  0.74784113  0.06801573  0.87955108  1  0.092088  0.000114  0.945471  -0.001  0.10084  0.000224  1.004306  0.0  0.10226  0.000175  1.002626  0.0  0.126874  0.099609  0.000236  1.005834  0.0
H  H21  1  0.21177220  0.26945386  0.07677362  1  0.092499  0.000138  0.949359  -0.001  0.09983  0.00022  1.008575  0.0  0.101305  0.000177  1.007494  0.0  0.124775  0.098412  0.000254  1.010057  0.0
H  H22  1  0.78822951  0.73054476  0.92322293  1  0.092512  0.000138  0.949377  -0.001  0.099832  0.00022  1.008597  0.0  0.101307  0.000177  1.007516  0.0  0.124785  0.098408  0.000254  1.010086  0.0
H  H23  1  0.47447971  0.41206001  0.22569297  1  0.12578  0.000437  0.923436  0.001  0.134971  2.2e-05  0.977941  0.0  0.138474  4e-05  0.976443  0.0  0.119078  0.132311  1.4e-05  0.979453  0.0
H  H24  1  0.52552058  0.58793765  0.77430740  1  0.12577  0.000437  0.923425  0.001  0.134965  2.3e-05  0.977933  0.0  0.138468  4e-05  0.976436  0.0  0.11906  0.132303  1.4e-05  0.979453  0.0
C  C25  1  0.85842613  0.01082769  0.24774462  1  0.11395  0.011391  3.688818  0.008  0.0872  0.003274  3.952469  0.002  0.092557  0.003984  3.970013  0.003  0.045273  0.0837  0.002763  3.939846  0.002
C  C26  1  0.14156924  0.98916893  0.75225242  1  0.113872  0.011386  3.688785  0.008  0.087144  0.003273  3.952418  0.002  0.092496  0.003985  3.969961  0.003  0.045304  0.083673  0.002762  3.939805  0.002
C  C27  1  0.81553933  0.98426508  0.34864187  1  -0.115893  -0.005128  3.695312  -0.007  -0.140151  -0.001709  3.943619  -0.002  -0.144799  -0.001798  3.964177  -0.002  -0.073855  -0.136653  -0.001931  3.928825  -0.003
C  C28  1  0.18445629  0.01573567  0.65135951  1  -0.115873  -0.005124  3.695462  -0.007  -0.140133  -0.001708  3.943799  -0.002  -0.144779  -0.001798  3.964359  -0.002  -0.07387  -0.13663  -0.001931  3.928995  -0.003
C  C29  1  0.85252350  0.87479273  0.35955827  1  -0.024501  0.010805  3.770194  0.007  -0.007538  0.003711  4.006898  0.002  -0.011668  0.003714  4.029605  0.002  -0.000377  -0.004615  0.004227  3.991034  0.003
C  C30  1  0.14747730  0.12521002  0.64044169  1  -0.024497  0.010798  3.770169  0.007  -0.007611  0.003711  4.006867  0.002  -0.011742  0.003714  4.029576  0.002  -0.000438  -0.004687  0.004227  3.991008  0.003
C  C31  1  0.93179405  0.79649889  0.26869029  1  -0.102259  -0.005711  3.68265  -0.008  -0.126463  -0.002088  3.924871  -0.003  -0.130283  -0.002079  3.945407  -0.003  -0.07181  -0.123756  -0.002354  3.911036  -0.003
C  C32  1  0.06820800  0.20350077  0.73130759  1  -0.102211  -0.005707  3.682663  -0.008  -0.126395  -0.002089  3.924895  -0.003  -0.130217  -0.002079  3.945434  -0.003  -0.071774  -0.12368  -0.002355  3.911058  -0.003
C  C33  1  0.97100069  0.83145880  0.17168644  1  0.110683  0.010307  3.697736  0.007  0.088676  0.002499  3.952637  0.001  0.092994  0.003349  3.972218  0.002  0.048882  0.085544  0.002172  3.93898  0.001
C  C34  1  0.02899647  0.16853985  0.82830983  1  0.110655  0.010304  3.697613  0.007  0.088625  0.002499  3.952532  0.001  0.092937  0.00335  3.972111  0.002  0.048896  0.085496  0.002173  3.938876  0.001
C  C35  1  0.80813982  0.84737109  0.46881936  1  0.574373  0.00031  3.823146  0.0  0.524173  0.000253  4.12151  0.0  0.556491  0.000121  4.11402  0.0  0.23336  0.502098  0.000367  4.125998  0.0
C  C36  1  0.19186702  0.15263267  0.53118228  1  0.574425  0.00031  3.823305  0.0  0.524419  0.000253  4.121378  0.0  0.556736  0.000121  4.113883  0.0  0.233433  0.502345  0.000367  4.125872  0.0
C  C37  1  0.81441686  0.69982777  0.56493017  1  0.075145  4.3e-05  3.584364  0.0  0.011408  5e-05  3.856704  0.0  0.020115  4.3e-05  3.861109  0.0  -0.067477  0.005457  5.5e-05  3.853777  0.0
C  C38  1  0.18558592  0.30017398  0.43507208  1  0.075254  4.4e-05  3.584392  0.0  0.011376  5e-05  3.856849  0.0  0.020098  4.3e-05  3.861226  0.0  -0.067497  0.005433  5.6e-05  3.853918  0.0
C  C39  1  0.81857674  0.55441904  0.51784152  1  0.068714  8e-06  3.598816  0.0  0.002058  5.1e-05  3.875662  0.0  0.010822  2.8e-05  3.878271  0.0  -0.06829  -0.003848  7.6e-05  3.874297  0.0
C  C40  1  0.18142400  0.44557656  0.48215715  1  0.068624  9e-06  3.598964  0.0  0.002036  5.1e-05  3.875775  0.0  0.010798  2.8e-05  3.878379  0.0  -0.068286  -0.003872  7.6e-05  3.874409  0.0
C  C41  1  0.66274313  0.33076479  0.36624738  1  0.581057  0.001658  3.827992  0.0  0.529576  0.000797  4.128066  0.0  0.562348  0.000243  4.118221  0.0  0.235182  0.506806  0.001576  4.135379  0.0
C  C42  1  0.33725419  0.66923081  0.63375021  1  0.580832  0.001657  3.828328  0.0  0.529451  0.000797  4.128313  0.0  0.562219  0.000244  4.118473  0.0  0.235155  0.506685  0.001576  4.135623  0.0
C  C43  1  0.51438911  0.24860241  0.26414473  1  -0.017029  0.021358  3.765653  0.014  -0.003838  0.007756  4.00838  0.005  -0.003805  0.005494  4.025652  0.003  0.002682  -0.004237  0.009799  3.997468  0.006
C  C44  1  0.48560616  0.75139731  0.73585533  1  -0.016924  0.021352  3.765475  0.014  -0.003822  0.007754  4.008298  0.005  -0.00379  0.005499  4.025573  0.003  0.002698  -0.004225  0.009798  3.997393  0.006
C  C45  1  0.45275400  0.11063668  0.22984369  1  -0.097776  -0.005227  3.681585  -0.008  -0.120938  -0.000626  3.929152  -0.001  -0.124991  -0.001137  3.945499  -0.002  -0.065294  -0.11884  -0.000142  3.919299  -0.001
C  C46  1  0.54723559  0.88936307  0.77015602  1  -0.097817  -0.005226  3.681368  -0.008  -0.120978  -0.000624  3.928971  -0.001  -0.12503  -0.001139  3.945315  -0.002  -0.065301  -0.118879  -0.000142  3.919124  -0.001
C  C47  1  0.30538590  0.03824808  0.14613768  1  0.135928  0.019743  3.634626  0.013  0.103927  0.007027  3.891062  0.004  0.114307  0.005736  3.905494  0.004  0.058011  0.096662  0.00777  3.882321  0.005
C  C48  1  0.69461387  0.96175158  0.85385919  1  0.135929  0.019747  3.634193  0.013  0.103948  0.007026  3.890617  0.004  0.114326  0.005738  3.905051  0.004  0.05801  0.096673  0.007771  3.881884  0.005
C  C49  1  0.28300569  0.22733041  0.12188263  1  0.115424  0.01949  3.659774  0.013  0.088336  0.006667  3.910943  0.004  0.097184  0.005504  3.927972  0.003  0.048537  0.081554  0.00751  3.901238  0.004
C  C50  1  0.71699760  0.77266615  0.87811229  1  0.115573  0.019483  3.659799  0.013  0.088521  0.006663  3.910927  0.004  0.097369  0.005504  3.927956  0.003  0.048631  0.081783  0.007507  3.901142  0.004
C  C51  1  0.42885640  0.30619290  0.20520337  1  -0.114648  -0.005674  3.710743  -0.008  -0.140123  -0.000772  3.963514  -0.002  -0.144794  -0.001177  3.981042  -0.002  -0.072746  -0.137299  -0.000399  3.952691  -0.001
C  C52  1  0.57114717  0.69380781  0.79479763  1  -0.114701  -0.005673  3.710694  -0.008  -0.140176  -0.000771  3.963501  -0.002  -0.14485  -0.001178  3.981033  -0.002  -0.07274  -0.137363  -0.000399  3.952693  -0.001
C  C53  1  0.91528530  0.27019837  0.12448945  1  0.262751  0.019314  4.071546  0.014  0.25601  0.007914  4.381656  0.005  0.280379  0.007231  4.39322  0.005  0.133762  0.239976  0.007875  4.372868  0.005
C  C54  1  0.08471964  0.72981356  0.87551205  1  0.26307  0.019306  4.07157  0.014  0.256333  0.007913  4.381627  0.005  0.280702  0.007228  4.39318  0.005  0.133976  0.240301  0.007874  4.372849  0.005
S  S55  1  0.87748288  0.41607005  0.17364296  1  -0.372409  0.01461  1.971976  0.007  -0.375848  0.005192  2.237409  0.002  -0.388996  0.004501  2.230144  0.002  -0.207261  -0.365482  0.005207  2.241234  0.002
S  S56  1  0.12252791  0.58393563  0.82634937  1  -0.372707  0.014596  1.971647  0.007  -0.376141  0.005191  2.237066  0.002  -0.389292  0.004499  2.229796  0.002  -0.207446  -0.365771  0.005205  2.240896  0.002
N  N57  1  0.93610791  0.93689419  0.16084796  1  -0.272721  -0.039075  3.214535  -0.066  -0.232512  -0.031569  3.491774  -0.053  -0.249921  -0.025224  3.509025  -0.043  -0.297356  -0.219067  -0.038551  3.478448  -0.062
N  N58  1  0.06388769  0.06310655  0.83915168  1  -0.272681  -0.039076  3.214426  -0.066  -0.232523  -0.031569  3.491722  -0.053  -0.249916  -0.025225  3.508958  -0.043  -0.297382  -0.219077  -0.038551  3.478386  -0.062
N  N59  1  0.21847330  0.09613446  0.09565009  1  -0.215601  0.011282  3.357599  0.005  -0.168029  0.00713  3.640011  0.004  -0.192883  0.006141  3.658839  0.004  -0.319123  -0.152889  0.007068  3.62716  0.005
N  N60  1  0.78152468  0.90386318  0.90434754  1  -0.215757  0.011281  3.357574  0.005  -0.168209  0.007129  3.640007  0.004  -0.193066  0.006142  3.658834  0.004  -0.319194  -0.153067  0.007067  3.627161  0.005
N  N61  1  0.94280694  0.16229806  0.08745468  1  -0.524466  0.00209  3.252459  -0.005  -0.504547  0.00194  3.575429  0.0  -0.528488  0.002191  3.576017  0.001  -0.43041  -0.489935  0.000792  3.573919  -0.001
N  N62  1  0.05718701  0.83769759  0.91254618  1  -0.524514  0.002092  3.252916  -0.005  -0.504594  0.001941  3.575867  0.0  -0.52853  0.002193  3.576448  0.001  -0.430437  -0.489985  0.000793  3.574362  -0.001
O  O63  1  0.84757561  0.73589343  0.46242686  1  -0.305449  0.000305  2.279781  0.0  -0.231706  0.000145  2.515218  0.0  -0.253679  9.6e-05  2.513783  0.0  -0.159152  -0.216416  0.000228  2.515835  0.0
O  O64  1  0.15242550  0.26410322  0.53757487  1  -0.305508  0.000305  2.279806  0.0  -0.231801  0.000144  2.515211  0.0  -0.25378  9.6e-05  2.513769  0.0  -0.159186  -0.216512  0.000228  2.515829  0.0
O  O65  1  0.74444826  0.91703615  0.55292053  1  -0.513328  0.0017  1.920342  0.001  -0.476771  0.000667  2.124632  0.001  -0.496058  0.000628  2.119419  0.001  -0.279554  -0.46348  0.000826  2.128067  0.001
O  O66  1  0.25556603  0.08297278  0.44709066  1  -0.513372  0.001699  1.920503  0.001  -0.476882  0.000667  2.124698  0.001  -0.496169  0.000628  2.119479  0.001  -0.279552  -0.463592  0.000826  2.128135  0.001
O  O67  1  0.67401594  0.46578910  0.42132472  1  -0.316134  0.000971  2.287576  0.001  -0.247274  0.000536  2.527889  0.0  -0.268187  0.000288  2.52519  0.0  -0.166443  -0.232972  0.000894  2.529663  0.001
O  O68  1  0.32597915  0.53420655  0.57867620  1  -0.315921  0.000971  2.2876  0.001  -0.24713  0.000536  2.527892  0.0  -0.268038  0.000287  2.525193  0.0  -0.166435  -0.232828  0.000893  2.529667  0.001
O  O69  1  0.75810792  0.28154461  0.40031039  1  -0.506806  0.003598  1.933198  0.003  -0.465416  0.001482  2.144257  0.001  -0.483878  0.000928  2.137052  0.001  -0.27  -0.453487  0.002091  2.149682  0.002
O  O70  1  0.24189729  0.71845408  0.59969333  1  -0.506711  0.003598  1.933418  0.003  -0.46532  0.00148  2.144399  0.001  -0.483781  0.000928  2.137197  0.001  -0.269942  -0.453389  0.00209  2.149816  0.002
