# generated using pymatgen
data_CuH16C10(NO2)2
_symmetry_space_group_name_H-M   'P 1'
_cell_length_a   7.15876543
_cell_length_b   8.51081403
_cell_length_c   21.85075108
_cell_angle_alpha   78.77446309
_cell_angle_beta   80.73049688
_cell_angle_gamma   65.15197070
_symmetry_Int_Tables_number   1
_chemical_formula_structural   CuH16C10(NO2)2
_chemical_formula_sum   'Cu4 H64 C40 N8 O16'
_cell_volume   1180.23345440
_cell_formula_units_Z   4
loop_
 _symmetry_equiv_pos_site_id
 _symmetry_equiv_pos_as_xyz
  1  'x, y, z'
loop_
 _atom_site_type_symbol
 _atom_site_label
 _atom_site_symmetry_multiplicity
 _atom_site_fract_x
 _atom_site_fract_y
 _atom_site_fract_z
 _atom_site_occupancy
 _atom_site_hle17_ddec_charge
 _atom_site_hle17_ddec_spin_density
 _atom_site_hle17_ddec_sum_bond_order
 _atom_site_hle17_magmom
 _atom_site_hse06_10hf_ddec_charge
 _atom_site_hse06_10hf_ddec_spin_density
 _atom_site_hse06_10hf_ddec_sum_bond_order
 _atom_site_hse06_10hf_magmom
 _atom_site_hse06_ddec_charge
 _atom_site_hse06_ddec_spin_density
 _atom_site_hse06_ddec_sum_bond_order
 _atom_site_hse06_magmom
 _atom_site_pbe_bader_charge
 _atom_site_pbe_bader_spin_density
 _atom_site_pbe_cm5_charge
 _atom_site_pbe_ddec_charge
 _atom_site_pbe_ddec_spin_density
 _atom_site_pbe_ddec_sum_bond_order
 _atom_site_pbe_magmom
Cu  Cu0  1  0.88173850  0.90267073  0.91071624  1  0.781669  -0.622429  1.810224  -0.44  0.761639  -0.761704  2.1911  -0.587  0.850515  -0.855453  2.131094  -0.683  1.005838  -0.481053  0.707056  0.703898  -0.634636  2.234614  -0.482
Cu  Cu1  1  0.69525548  0.59717437  0.58909182  1  0.780873  0.623032  1.806818  0.44  0.761039  0.762713  2.187184  0.587  0.850052  0.856843  2.127354  0.684  1.007512  0.481054  0.705525  0.703383  0.635414  2.230293  0.482
Cu  Cu2  1  0.11827103  0.09733937  0.08928722  1  0.781427  0.622406  1.81035  0.44  0.761424  0.761694  2.191246  0.587  0.850314  0.855448  2.131253  0.683  1.005642  0.481075  0.706997  0.703928  0.634661  2.23445  0.482
Cu  Cu3  1  0.30475917  0.40281873  0.41090411  1  0.780728  -0.623018  1.806854  -0.44  0.760913  -0.762705  2.187222  -0.587  0.849919  -0.856835  2.127402  -0.684  1.00738  -0.481065  0.705472  0.703278  -0.635441  2.23032  -0.482
H  H4  1  0.54854073  0.87808965  0.96222750  1  0.401524  1e-05  0.911106  0.0  0.371288  7e-06  0.979316  0.0  0.382272  1.8e-05  0.963179  0.0  0.643869  -3.6e-05  0.282131  0.363479  -1.1e-05  0.990806  0.0
H  H5  1  0.38836576  0.62204846  0.53751687  1  0.401352  -9e-06  0.910181  0.0  0.371136  -7e-06  0.979375  0.0  0.382146  -1.8e-05  0.963188  0.0  0.636965  2.1e-05  0.282311  0.363323  -5e-06  0.990877  0.0
H  H6  1  0.45146824  0.12191522  0.03777217  1  0.401567  -9e-06  0.911089  0.0  0.371323  -7e-06  0.979271  0.0  0.382309  -1.8e-05  0.963132  0.0  0.643846  3.6e-05  0.282163  0.363513  1.1e-05  0.990765  0.0
H  H7  1  0.61163739  0.37795641  0.46248296  1  0.401289  9e-06  0.910168  0.0  0.37106  7e-06  0.97946  0.0  0.382067  1.8e-05  0.963278  0.0  0.636926  -2e-05  0.282259  0.363243  5e-06  0.990965  0.0
H  H8  1  0.65698721  0.83593346  0.02335863  1  0.413917  2.8e-05  0.885691  0.0  0.389132  4.3e-05  0.942832  0.0  0.398971  3.9e-05  0.928616  0.0  0.643835  6.3e-05  0.289274  0.382208  4.9e-05  0.952869  0.0
H  H9  1  0.51579544  0.66400060  0.47659152  1  0.413485  -2.9e-05  0.887666  0.0  0.389009  -4.4e-05  0.943511  0.0  0.398846  -4e-05  0.929292  0.0  0.638767  -4.5e-05  0.289301  0.382096  -3.1e-05  0.953546  0.0
H  H10  1  0.34301565  0.16407010  0.97664218  1  0.413961  -2.8e-05  0.885581  0.0  0.389126  -4.3e-05  0.942809  0.0  0.398963  -3.9e-05  0.928598  0.0  0.643862  -6.3e-05  0.289296  0.382199  -4.9e-05  0.95285  0.0
H  H11  1  0.48420720  0.33600166  0.52340737  1  0.413499  2.9e-05  0.88769  0.0  0.389018  4.4e-05  0.943509  0.0  0.398853  4e-05  0.929293  0.0  0.638781  4.5e-05  0.289268  0.382089  3.1e-05  0.953563  0.0
H  H12  1  0.09740725  0.11301256  0.84447969  1  0.099769  0.000518  0.961988  0.0  0.098407  0.000574  1.045102  0.0  0.103663  0.000528  1.038322  0.0  0.090942  0.000459  0.10198  0.093983  0.000475  1.05079  0.0
H  H13  1  0.05465260  0.38816452  0.65493871  1  0.100585  -0.000529  0.961992  0.0  0.098202  -0.000584  1.046304  0.0  0.103372  -0.000537  1.039571  0.0  0.126372  -0.000649  0.101794  0.09383  -0.000591  1.051976  0.0
H  H14  1  0.90261136  0.88698970  0.15552447  1  0.099828  -0.000519  0.961821  0.0  0.098458  -0.000574  1.044963  0.0  0.103701  -0.000528  1.038196  0.0  0.091025  -0.000459  0.101978  0.094013  -0.000475  1.050671  0.0
H  H15  1  0.94536918  0.61181157  0.34506044  1  0.100484  0.000529  0.962084  0.0  0.098107  0.000584  1.046397  0.0  0.103273  0.000537  1.039673  0.0  0.126705  0.000649  0.101785  0.093726  0.000591  1.05207  0.0
H  H16  1  0.90074883  0.25091621  0.74954281  1  0.098556  -1e-06  0.952034  0.0  0.111675  -0.0  1.005325  0.0  0.114725  -1e-06  1.004033  0.0  0.055093  -0.00015  0.103495  0.109361  -7.4e-05  1.006596  0.0
H  H17  1  0.09926844  0.74906643  0.25045884  1  0.09847  0.0  0.952066  0.0  0.111597  0.0  1.005348  0.0  0.114633  0.0  1.004073  0.0  0.054716  0.00015  0.103455  0.10928  7.4e-05  1.006614  0.0
H  H18  1  0.59479752  0.25012352  0.75012084  1  0.105933  -1e-06  0.959413  0.0  0.114076  -0.0  1.024777  0.0  0.118518  -0.0  1.020193  0.0  0.096757  -0.000129  0.103984  0.110885  -7e-05  1.028008  0.0
H  H19  1  0.40521126  0.74988266  0.24987976  1  0.106077  0.0  0.959237  0.0  0.11414  0.0  1.024689  0.0  0.118577  0.0  1.020103  0.0  0.096907  0.00013  0.104017  0.110947  7e-05  1.027916  0.0
H  H20  1  0.74400940  0.45115682  0.99632892  1  0.059531  0.000243  0.933764  0.001  0.077175  7.3e-05  0.99654  0.0  0.076733  0.00013  0.995989  0.0  0.046009  0.000194  0.100503  0.077383  6e-06  0.997111  0.0
H  H21  1  0.19184559  0.04893064  0.50362160  1  0.059146  -0.00024  0.934132  -0.001  0.07686  -7.3e-05  0.99722  0.0  0.076517  -0.00013  0.996532  0.0  0.061843  -0.000225  0.100386  0.076988  -2.6e-05  0.997891  0.0
H  H22  1  0.25598919  0.54884151  0.00367467  1  0.059512  -0.000241  0.933828  -0.001  0.077101  -7.3e-05  0.996623  0.0  0.076655  -0.00013  0.996059  0.0  0.045897  -0.000191  0.100522  0.077321  -4e-06  0.997186  0.0
H  H23  1  0.80813012  0.95107946  0.49637459  1  0.059194  0.000237  0.93405  0.001  0.076865  7.3e-05  0.997188  0.0  0.076521  0.00013  0.996505  0.0  0.061584  0.000224  0.10032  0.077016  2.6e-05  0.997855  0.0
H  H24  1  0.57671565  0.34204621  0.02346721  1  0.071085  0.004196  0.950944  0.006  0.085864  0.002776  1.015447  0.004  0.085182  0.002097  1.015609  0.003  0.069261  0.005742  0.105461  0.085994  0.002829  1.015457  0.004
H  H25  1  0.94272221  0.15775086  0.47616347  1  0.070411  -0.004208  0.950344  -0.006  0.085981  -0.002783  1.014236  -0.004  0.085294  -0.0021  1.014436  -0.003  0.058194  -0.005777  0.10562  0.086084  -0.002825  1.01428  -0.004
H  H26  1  0.42329660  0.65793381  0.97653517  1  0.071082  -0.004195  0.95097  -0.006  0.085854  -0.002776  1.015442  -0.004  0.08517  -0.002096  1.015599  -0.003  0.069797  -0.005737  0.105469  0.085982  -0.002827  1.01546  -0.004
H  H27  1  0.05725605  0.84227755  0.52382905  1  0.070481  0.004207  0.950305  0.006  0.086038  0.002784  1.014225  0.004  0.085341  0.002101  1.014423  0.003  0.057922  0.005776  0.10565  0.086149  0.002825  1.014274  0.004
H  H28  1  0.61708446  0.35009209  0.13383292  1  0.066004  -0.000112  0.944922  0.0  0.089192  -4.3e-05  1.000271  0.0  0.088959  -3.5e-05  1.001808  0.0  0.017942  6e-06  0.0912  0.089409  8e-06  0.999182  0.0
H  H29  1  0.10130085  0.14966050  0.36595489  1  0.065756  0.000112  0.945052  0.0  0.089375  4.5e-05  0.999582  0.0  0.089146  3.6e-05  1.001135  0.0  0.027415  0.000218  0.091344  0.089585  0.000103  0.998502  0.0
H  H30  1  0.38291043  0.64990101  0.86616719  1  0.065991  0.000111  0.944866  0.0  0.0892  4.3e-05  1.000195  0.0  0.088969  3.5e-05  1.001728  0.0  0.018045  -7e-06  0.091167  0.089383  -8e-06  0.999145  0.0
H  H31  1  0.89869045  0.85035352  0.63404065  1  0.065852  -0.000109  0.945105  0.0  0.089467  -4.4e-05  0.999629  0.0  0.089242  -3.6e-05  1.001188  0.0  0.027448  -0.00022  0.091389  0.089675  -0.000104  0.998548  0.0
H  H32  1  0.53202305  0.56094239  0.08970242  1  0.099067  -0.000273  0.922314  0.0  0.118858  -5.8e-05  0.978579  0.0  0.120223  -8e-05  0.978629  0.0  0.069117  -7.2e-05  0.103527  0.117837  1.5e-05  0.978459  0.0
H  H33  1  0.18313492  0.93891711  0.41014211  1  0.099289  0.000271  0.921468  0.0  0.118743  5.8e-05  0.97784  0.0  0.120175  8e-05  0.977772  0.0  0.05017  0.000223  0.103265  0.117684  6.3e-05  0.977791  0.0
H  H34  1  0.46796419  0.43905071  0.91029967  1  0.099027  0.000272  0.922413  0.0  0.118859  5.8e-05  0.978622  0.0  0.120224  8e-05  0.97867  0.0  0.069091  7.4e-05  0.103538  0.117842  -1.4e-05  0.978501  0.0
H  H35  1  0.81683857  0.06109953  0.58985428  1  0.099413  -0.000268  0.921384  0.0  0.118869  -5.8e-05  0.977761  0.0  0.120309  -8e-05  0.977685  0.0  0.050503  -0.000227  0.103318  0.117815  -6.6e-05  0.977714  0.0
H  H36  1  0.91426213  0.51840685  0.06886061  1  0.086304  0.000169  0.906041  0.0  0.105946  0.000148  0.957887  0.0  0.105727  0.000104  0.958817  0.0  0.052358  0.000492  0.115124  0.105717  0.000177  0.957589  0.0
H  H37  1  0.50165916  0.98185814  0.43145995  1  0.086468  -0.000171  0.906161  0.0  0.105904  -0.000148  0.95849  0.0  0.105747  -0.000104  0.959373  0.0  0.091714  -0.000409  0.11522  0.105621  -0.000143  0.95821  0.0
H  H38  1  0.08572159  0.48159540  0.93114445  1  0.086259  -0.00017  0.905927  0.0  0.105874  -0.000148  0.957848  0.0  0.105651  -0.000104  0.958776  0.0  0.052227  -0.000489  0.115096  0.105653  -0.000175  0.957548  0.0
H  H39  1  0.49832789  0.01813758  0.56853530  1  0.086574  0.000168  0.906178  0.0  0.105983  0.000148  0.95843  0.0  0.105825  0.000104  0.959314  0.0  0.092107  0.000411  0.115313  0.105719  0.000144  0.958145  0.0
H  H40  1  0.78919374  0.56215627  0.14426258  1  0.054324  0.004493  0.964098  0.006  0.068928  0.003191  1.027155  0.004  0.066941  0.002282  1.03023  0.003  0.033043  0.006719  0.096329  0.069872  0.003458  1.02537  0.004
H  H41  1  0.49562956  0.93761820  0.35603754  1  0.054044  -0.0045  0.963096  -0.006  0.068328  -0.00319  1.026951  -0.004  0.066391  -0.002279  1.029971  -0.003  0.057861  -0.006466  0.096084  0.069233  -0.00337  1.025174  -0.004
H  H42  1  0.21079093  0.43783552  0.85574277  1  0.054265  -0.004494  0.963975  -0.006  0.06891  -0.00319  1.027007  -0.004  0.066922  -0.002282  1.03008  -0.003  0.033091  -0.006719  0.096298  0.069836  -0.003458  1.025239  -0.004
H  H43  1  0.50434599  0.06238667  0.64395731  1  0.054071  0.004497  0.963132  0.006  0.068334  0.003189  1.026934  0.004  0.066399  0.002278  1.02995  0.003  0.057839  0.006462  0.096096  0.06924  0.003368  1.025165  0.004
H  H44  1  0.88543051  0.35117517  0.23377628  1  0.085501  0.003605  0.947288  0.004  0.102966  0.002692  1.016338  0.003  0.102949  0.00192  1.017787  0.002  0.048616  0.005752  0.092901  0.102666  0.00295  1.015595  0.003
H  H45  1  0.46994673  0.14821379  0.26644403  1  0.085162  -0.003613  0.948023  -0.004  0.102839  -0.002696  1.016733  -0.003  0.102781  -0.001921  1.018219  -0.002  0.014295  -0.005556  0.093018  0.102582  -0.002829  1.015929  -0.003
H  H46  1  0.11455681  0.64881401  0.76622638  1  0.085465  -0.003603  0.947229  -0.004  0.102949  -0.002692  1.016275  -0.003  0.102933  -0.001919  1.017725  -0.002  0.048823  -0.005751  0.092876  0.102639  -0.00295  1.015541  -0.003
H  H47  1  0.53004369  0.85178977  0.73355364  1  0.085156  0.003614  0.948054  0.004  0.102841  0.002696  1.016742  0.003  0.102783  0.001921  1.01823  0.002  0.014344  0.005555  0.093022  0.102592  0.002828  1.015945  0.003
H  H48  1  0.81626209  0.20537998  0.20246278  1  0.091236  8.5e-05  0.960395  0.0  0.108749  -1.4e-05  1.029591  0.0  0.10884  -4e-05  1.030078  0.0  0.027324  0.000464  0.099903  0.108346  6.3e-05  1.029664  0.0
H  H49  1  0.22388429  0.29415417  0.29746232  1  0.091201  -8.2e-05  0.960082  0.0  0.108755  1.7e-05  1.02953  0.0  0.108787  4.2e-05  1.030104  0.0  0.046316  -0.000228  0.099828  0.108361  5.9e-05  1.029588  0.0
H  H50  1  0.18373813  0.79460657  0.79753827  1  0.091235  -8.5e-05  0.960419  0.0  0.108717  1.4e-05  1.029658  0.0  0.108813  4e-05  1.030141  0.0  0.027756  -0.000463  0.099892  0.108316  -6.3e-05  1.029722  0.0
H  H51  1  0.77611573  0.70586117  0.70253515  1  0.091192  8.3e-05  0.960047  0.0  0.108709  -1.7e-05  1.029526  0.0  0.10876  -4.2e-05  1.030082  0.0  0.046277  0.000229  0.09981  0.108327  -5.9e-05  1.029582  0.0
H  H52  1  0.07053632  0.13225806  0.22480769  1  0.109103  9.6e-05  0.946308  0.001  0.129434  2.4e-05  1.005163  0.0  0.130289  5e-06  1.005182  0.0  0.066861  0.00043  0.105183  0.128647  0.000107  1.005295  0.0
H  H53  1  0.42714061  0.36726824  0.27532191  1  0.109036  -9.8e-05  0.945647  -0.001  0.129743  -2.6e-05  1.00419  0.0  0.130588  -6e-06  1.004213  0.0  0.066763  -0.000166  0.10546  0.128976  3e-05  1.00429  0.0
H  H54  1  0.92946014  0.86773635  0.77519442  1  0.109086  -9.6e-05  0.946281  -0.001  0.129407  -2.4e-05  1.005148  0.0  0.13026  -5e-06  1.005171  0.0  0.066889  -0.000431  0.105173  0.128616  -0.000108  1.005279  0.0
H  H55  1  0.57286516  0.63273401  0.72467668  1  0.109037  9.9e-05  0.945645  0.001  0.129736  2.6e-05  1.004187  0.0  0.130582  6e-06  1.00421  0.0  0.066783  0.000168  0.10545  0.128978  -2.9e-05  1.004292  0.0
H  H56  1  0.30825713  0.24470946  0.16799448  1  0.095056  -3.5e-05  0.964814  0.0  0.115836  -4.2e-05  1.025748  0.0  0.115685  -3.1e-05  1.027221  0.0  0.051917  0.000286  0.101213  0.115731  -0.0  1.024877  0.0
H  H57  1  0.72062423  0.25510593  0.33236077  1  0.094871  3.5e-05  0.963873  0.0  0.115629  4e-05  1.025026  0.0  0.115498  3e-05  1.026476  0.0  0.058056  -8.8e-05  0.100968  0.115515  9.7e-05  1.024177  0.0
H  H58  1  0.69172790  0.75530326  0.83200944  1  0.09513  3.6e-05  0.964638  0.0  0.115893  4.2e-05  1.025569  0.0  0.115742  3.1e-05  1.027042  0.0  0.051707  -0.000286  0.10125  0.115792  0.0  1.024703  0.0
H  H59  1  0.27938563  0.74487932  0.66763700  1  0.094834  -3.6e-05  0.963939  0.0  0.115568  -4.1e-05  1.025122  0.0  0.115472  -3e-05  1.026531  0.0  0.057614  9e-05  0.100975  0.115441  -9.6e-05  1.024302  0.0
H  H60  1  0.24500558  0.39241441  0.09698786  1  0.113087  0.000386  0.954138  0.001  0.131696  0.000324  1.017422  0.001  0.132514  0.000228  1.017421  0.0  0.080214  0.000882  0.108017  0.130693  0.000375  1.017806  0.001
H  H61  1  0.73471514  0.10742975  0.40337257  1  0.112379  -0.000384  0.956119  -0.001  0.131584  -0.000324  1.018739  -0.001  0.132364  -0.000228  1.018805  0.0  0.082668  -0.000781  0.10794  0.13059  -0.000326  1.019089  -0.001
H  H62  1  0.75497762  0.60759177  0.90301707  1  0.113102  -0.000385  0.954176  -0.001  0.131728  -0.000324  1.017436  -0.001  0.132547  -0.000228  1.017447  0.0  0.080081  -0.000881  0.10805  0.130731  -0.000375  1.017826  -0.001
H  H63  1  0.26528651  0.89255027  0.59662340  1  0.112299  0.000383  0.956169  0.001  0.131527  0.000324  1.018771  0.001  0.132307  0.000228  1.018841  0.0  0.082696  0.00078  0.10791  0.130564  0.000326  1.019104  0.001
H  H64  1  0.13070918  0.46759784  0.17084023  1  0.088519  0.003555  0.943524  0.004  0.111033  0.002718  1.003893  0.003  0.110613  0.002017  1.005626  0.002  0.05521  0.005668  0.096396  0.111041  0.002908  1.002913  0.003
H  H65  1  0.76851581  0.03223324  0.32950821  1  0.088082  -0.003571  0.943029  -0.004  0.110767  -0.002729  1.003541  -0.003  0.110345  -0.002026  1.005272  -0.002  0.030629  -0.005518  0.09601  0.110778  -0.002798  1.00255  -0.003
H  H66  1  0.86926582  0.53240965  0.82916372  1  0.088559  -0.003554  0.943481  -0.004  0.111029  -0.002717  1.003896  -0.003  0.110609  -0.002017  1.005628  -0.002  0.055053  -0.00567  0.096382  0.111034  -0.002908  1.002919  -0.003
H  H67  1  0.23147389  0.96775593  0.67048782  1  0.087987  0.003571  0.942969  0.004  0.110676  0.002729  1.003513  0.003  0.110214  0.002026  1.005294  0.002  0.030824  0.005513  0.095909  0.110719  0.002795  1.002502  0.003
C  C68  1  0.48225183  0.07949741  0.85861379  1  0.641204  0.001939  3.896888  0.004  0.593582  -0.000298  4.191242  0.002  0.630713  4.3e-05  4.182776  0.001  1.56496  0.000303  0.210801  0.568487  -0.000607  4.196353  0.001
C  C69  1  0.42050415  0.42058350  0.64119777  1  0.641114  -0.001926  3.898934  -0.004  0.594236  0.000302  4.192021  -0.002  0.63142  -4e-05  4.183456  -0.001  1.558334  -0.000466  0.210712  0.569133  0.000485  4.197202  -0.001
C  C70  1  0.51776283  0.92051138  0.14138805  1  0.641052  -0.001939  3.89732  -0.004  0.593464  0.000299  4.191606  -0.002  0.630598  -4.1e-05  4.18314  -0.001  1.56431  -0.000303  0.21069  0.568374  0.000606  4.196718  -0.001
C  C71  1  0.57950881  0.57941482  0.35880277  1  0.641089  0.001935  3.898508  0.004  0.594198  -0.000302  4.191629  0.002  0.631375  4.1e-05  4.183058  0.001  1.558176  0.000468  0.210575  0.569094  -0.000483  4.196808  0.001
C  C72  1  0.36053924  0.16910222  0.80247209  1  -0.081228  -0.005425  3.782183  -0.006  -0.056839  -0.003747  4.017972  -0.004  -0.06523  -0.002852  4.038825  -0.003  -0.033814  -0.005629  -0.023352  -0.051536  -0.003992  4.003874  -0.004
C  C73  1  0.33195780  0.33167067  0.69730900  1  -0.081955  0.00541  3.782306  0.006  -0.057475  0.003737  4.017368  0.004  -0.065861  0.002843  4.038161  0.003  -0.008874  0.005332  -0.024027  -0.052235  0.003847  4.003398  0.004
C  C74  1  0.63947408  0.83090004  0.19752886  1  -0.081251  0.005414  3.782376  0.006  -0.056802  0.003747  4.018079  0.004  -0.06518  0.002852  4.038907  0.003  -0.033977  0.005627  -0.023267  -0.051504  0.003991  4.003975  0.004
C  C75  1  0.66805578  0.66831981  0.30269080  1  -0.081709  -0.005423  3.782026  -0.006  -0.057228  -0.003737  4.017059  -0.004  -0.065585  -0.002842  4.037814  -0.003  -0.00902  -0.005332  -0.023921  -0.051991  -0.003847  4.003083  -0.004
C  C76  1  0.16292922  0.17211337  0.80257910  1  -0.063359  -0.000865  3.721547  -0.001  -0.09021  -0.000655  3.977874  -0.001  -0.087856  -0.000426  3.994744  0.0  -0.096794  -0.001301  -0.080381  -0.091313  -0.000857  3.966797  -0.001
C  C77  1  0.13734087  0.32909902  0.69695231  1  -0.064225  0.000848  3.718962  0.001  -0.090425  0.000642  3.975595  0.001  -0.087953  0.000416  3.992377  0.0  -0.0723  0.00089  -0.080311  -0.091606  0.000632  3.964592  0.001
C  C78  1  0.83709103  0.82788365  0.19742335  1  -0.063334  0.000876  3.721422  0.001  -0.090208  0.000655  3.977763  0.001  -0.087846  0.000426  3.99463  0.0  -0.096407  0.001299  -0.080394  -0.091313  0.000856  3.966687  0.001
C  C79  1  0.86268163  0.67087838  0.30304685  1  -0.064164  -0.00084  3.718821  -0.001  -0.09038  -0.000643  3.975476  -0.001  -0.087916  -0.000416  3.992251  0.0  -0.07265  -0.000892  -0.080339  -0.091556  -0.000634  3.964464  -0.001
C  C80  1  0.05307847  0.25075270  0.74969500  1  -0.085083  5e-06  3.770215  0.0  -0.093468  -3e-06  4.017008  0.0  -0.097845  -2e-06  4.038895  0.0  -0.02489  -0.000182  -0.091301  -0.090598  -0.000111  4.002018  0.0
C  C81  1  0.94694017  0.74922993  0.25030527  1  -0.085076  -1e-05  3.770158  0.0  -0.093452  3e-06  4.016974  0.0  -0.097818  2e-06  4.038862  0.0  -0.02475  0.00018  -0.09131  -0.090583  0.00011  4.001975  0.0
C  C82  1  0.44285792  0.25032365  0.74997415  1  -0.076009  -2e-06  3.710138  0.0  -0.111125  -4e-06  3.956585  0.0  -0.106447  -3e-06  3.970608  0.0  -0.061533  -0.000197  -0.081847  -0.113782  -0.000124  3.94701  0.0
C  C83  1  0.55715413  0.74967467  0.25002730  1  -0.076295  1.4e-05  3.710127  0.0  -0.111375  3e-06  3.956637  0.0  -0.1067  2e-06  3.970641  0.0  -0.061578  0.000197  -0.081945  -0.114032  0.000123  3.947055  0.0
C  C84  1  0.91009322  0.08667475  0.99603228  1  0.407127  -0.000177  3.923708  0.003  0.376808  0.000716  4.209899  0.003  0.406502  -0.000601  4.213889  0.001  1.346916  0.002375  0.207591  0.355315  0.001389  4.207996  0.004
C  C85  1  0.99286067  0.41333423  0.50388295  1  0.406714  0.000143  3.923399  -0.003  0.376434  -0.000734  4.209404  -0.003  0.406199  0.000586  4.213313  -0.001  1.372414  -0.00233  0.207151  0.354884  -0.001424  4.207566  -0.004
C  C86  1  0.08992287  0.91333012  0.00396878  1  0.407333  0.000174  3.92375  -0.003  0.376883  -0.000716  4.210062  -0.003  0.406578  0.0006  4.214054  -0.001  1.370033  -0.002372  0.207706  0.355392  -0.00139  4.208158  -0.004
C  C87  1  0.00714529  0.58666672  0.49611472  1  0.407011  -0.000135  3.92347  0.003  0.376715  0.000733  4.209438  0.003  0.406494  -0.000587  4.213331  0.001  1.410572  0.002328  0.207221  0.355168  0.001421  4.207598  0.004
C  C88  1  0.71206732  0.35740154  0.03453802  1  0.049814  0.001319  3.693166  0.0  0.000801  0.001666  3.960716  0.001  0.009477  0.000959  3.97339  0.0  0.312569  0.002139  -0.071091  -0.004943  0.001883  3.951905  0.001
C  C89  1  0.10430378  0.14259305  0.46531269  1  0.05075  -0.001329  3.692216  0.0  0.000311  -0.001671  3.960502  -0.001  0.008929  -0.000963  3.973254  0.0  0.298421  -0.002073  -0.071675  -0.005334  -0.001866  3.951525  -0.001
C  C90  1  0.28793493  0.64259287  0.96546539  1  0.049739  -0.001326  3.693238  0.0  0.000836  -0.001665  3.960607  -0.001  0.009537  -0.000958  3.973243  0.0  0.310736  -0.002136  -0.071217  -0.00491  -0.001881  3.95178  -0.001
C  C91  1  0.89567713  0.85741836  0.53468328  1  0.050788  0.001345  3.692164  0.0  0.000373  0.001671  3.960459  0.001  0.008999  0.000963  3.973209  0.0  0.298466  0.002074  -0.071601  -0.005302  0.001867  3.951519  0.001
C  C92  1  0.66488423  0.43388910  0.09534493  1  -0.148394  0.0028  3.683765  0.004  -0.196454  0.002315  3.943553  0.003  -0.19937  0.001622  3.956951  0.002  -0.023357  0.003761  -0.164178  -0.1944  0.002543  3.934197  0.003
C  C93  1  0.19442114  0.06600607  0.40456769  1  -0.148629  -0.002789  3.682804  -0.004  -0.195681  -0.00231  3.941867  -0.003  -0.198642  -0.001617  3.955395  -0.002  0.002437  -0.003583  -0.163935  -0.193642  -0.002424  3.932477  -0.003
C  C94  1  0.33511161  0.56610661  0.90465710  1  -0.148377  -0.002792  3.683779  -0.004  -0.196459  -0.002314  3.943513  -0.003  -0.199383  -0.001622  3.956908  -0.002  -0.023273  -0.003759  -0.164104  -0.194384  -0.002542  3.934152  -0.003
C  C95  1  0.80556363  0.93400665  0.59542799  1  -0.148863  0.002769  3.683007  0.004  -0.196007  0.002309  3.942062  0.003  -0.198978  0.001617  3.955588  0.002  0.002507  0.003579  -0.164045  -0.193953  0.002421  3.932674  0.003
C  C96  1  0.84414077  0.46488492  0.11165037  1  -0.009662  -0.001664  3.603276  -0.004  -0.055322  9.1e-05  3.852608  -0.002  -0.05041  -0.000557  3.867383  -0.002  0.268834  0.000209  -0.071612  -0.058259  0.000647  3.84296  -0.001
C  C97  1  0.42077157  0.03510313  0.38855110  1  -0.009191  0.001672  3.602176  0.004  -0.055438  -8.4e-05  3.8523  0.002  -0.05065  0.000563  3.867174  0.002  0.193587  -0.000155  -0.071686  -0.058235  -0.000559  3.842542  0.001
C  C98  1  0.15584420  0.53511472  0.88835482  1  -0.009474  0.001664  3.602965  0.004  -0.055234  -9.1e-05  3.852449  0.002  -0.050312  0.000557  3.867206  0.002  0.268763  -0.000208  -0.071603  -0.058157  -0.000646  3.842784  0.001
C  C99  1  0.57921469  0.96490174  0.61144437  1  -0.009416  -0.00166  3.602386  -0.003  -0.055409  8.5e-05  3.852138  -0.002  -0.050614  -0.000563  3.867007  -0.002  0.19339  0.000157  -0.071749  -0.058215  0.00056  3.842392  -0.001
C  C100  1  0.94158332  0.24560417  0.20433583  1  -0.195357  -0.001994  3.659841  -0.004  -0.291051  -0.000144  3.919684  -0.002  -0.287587  -0.000677  3.930924  -0.002  0.231966  -0.000357  -0.152625  -0.292876  0.00038  3.912658  -0.001
C  C101  1  0.39117240  0.25398230  0.29577995  1  -0.195293  0.001983  3.659207  0.004  -0.291589  0.00014  3.919094  0.002  -0.288066  0.000672  3.930454  0.002  0.252096  0.000636  -0.153081  -0.293451  -0.000197  3.911997  0.001
C  C102  1  0.05841304  0.75438762  0.79566633  1  -0.195239  0.001989  3.659705  0.004  -0.290939  0.000145  3.919531  0.002  -0.287484  0.000677  3.930774  0.002  0.231209  0.000355  -0.152603  -0.292744  -0.00038  3.912482  0.001
C  C103  1  0.60882501  0.74602257  0.70421713  1  -0.195325  -0.001987  3.659154  -0.004  -0.291583  -0.00014  3.919072  -0.002  -0.288079  -0.000672  3.93042  -0.002  0.252207  -0.000632  -0.153039  -0.293453  0.000199  3.911991  -0.001
C  C104  1  0.18505310  0.35604639  0.14439719  1  -0.188207  -0.001458  3.633154  -0.004  -0.282726  0.000423  3.883715  -0.002  -0.279679  -0.000163  3.896825  -0.002  0.208252  9.9e-05  -0.151425  -0.284166  0.000885  3.875257  -0.001
C  C105  1  0.68528861  0.14381870  0.35593425  1  -0.186421  0.001434  3.63375  0.004  -0.281651  -0.00044  3.884119  0.002  -0.278606  0.000147  3.89731  0.002  0.22228  9.3e-05  -0.150508  -0.283102  -0.000749  3.875654  0.001
C  C106  1  0.81492895  0.64395848  0.85560674  1  -0.188394  0.001455  3.632941  0.004  -0.282857  -0.000424  3.883488  0.002  -0.279821  0.000162  3.896598  0.002  0.20989  -9.3e-05  -0.151516  -0.284301  -0.000885  3.875028  0.001
C  C107  1  0.31471053  0.85616655  0.64406290  1  -0.18623  -0.001431  3.633604  -0.004  -0.281474  0.00044  3.884052  -0.002  -0.278435  -0.000147  3.897254  -0.002  0.222521  -8.8e-05  -0.150347  -0.282955  0.000752  3.875591  -0.001
N  N108  1  0.88729087  0.18913256  0.03692400  1  -0.450539  0.079803  3.235782  0.098  -0.421629  0.057696  3.561945  0.074  -0.463966  0.051054  3.580639  0.069  -1.182704  0.078448  -0.409426  -0.39256  0.052522  3.549375  0.066
N  N109  1  0.11336355  0.31095490  0.46304366  1  -0.450785  -0.079786  3.232704  -0.098  -0.421409  -0.057711  3.558753  -0.075  -0.46383  -0.051042  3.57756  -0.069  -1.208092  -0.078472  -0.408414  -0.392299  -0.0525  3.546111  -0.066
N  N110  1  0.11271742  0.81087362  0.96307851  1  -0.450662  -0.079799  3.235892  -0.098  -0.421693  -0.057696  3.562013  -0.074  -0.464032  -0.051054  3.58069  -0.069  -1.181507  -0.078455  -0.409442  -0.392565  -0.052524  3.549426  -0.066
N  N111  1  0.88663823  0.68904735  0.53695325  1  -0.451034  0.079783  3.232992  0.098  -0.421614  0.057716  3.558993  0.075  -0.464048  0.051046  3.577797  0.069  -1.208164  0.07849  -0.408465  -0.392495  0.052514  3.546367  0.066
N  N112  1  0.01271420  0.30675472  0.14058686  1  -0.121366  0.08531  3.283713  0.107  -0.042461  0.064029  3.554236  0.086  -0.072261  0.053526  3.583524  0.076  -0.979278  0.091192  -0.356676  -0.024834  0.061853  3.536057  0.08
N  N113  1  0.45995441  0.19318493  0.35962206  1  -0.121275  -0.085373  3.281939  -0.107  -0.041943  -0.063986  3.552264  -0.086  -0.071738  -0.053454  3.581642  -0.076  -0.980455  -0.090927  -0.356157  -0.024338  -0.061805  3.534021  -0.08
N  N114  1  0.98727338  0.69324884  0.85941790  1  -0.121423  -0.085302  3.28348  -0.107  -0.042505  -0.064025  3.553962  -0.086  -0.072297  -0.053521  3.583239  -0.076  -0.980443  -0.0912  -0.356608  -0.024839  -0.061857  3.535761  -0.08
N  N115  1  0.54004727  0.80680817  0.64037409  1  -0.121205  0.085371  3.281775  0.107  -0.041955  0.063984  3.55207  0.086  -0.071755  0.05345  3.581452  0.076  -0.980531  0.090917  -0.356197  -0.024322  0.061799  3.533822  0.08
O  O116  1  0.67743341  0.04089261  0.84855614  1  -0.605486  -0.051768  2.099222  -0.068  -0.562867  -0.039267  2.374576  -0.056  -0.599911  -0.032523  2.362348  -0.048  -1.128382  -0.058771  -0.330993  -0.537976  -0.039016  2.38313  -0.053
O  O117  1  0.56730654  0.45899079  0.65131190  1  -0.605143  0.051725  2.098028  0.068  -0.562918  0.039225  2.372837  0.056  -0.599961  0.032457  2.360585  0.048  -1.134273  0.058322  -0.330074  -0.538054  0.038831  2.381368  0.053
O  O118  1  0.32258608  0.95911357  0.15144508  1  -0.60537  0.051759  2.099512  0.068  -0.562729  0.039261  2.374814  0.056  -0.599774  0.032518  2.362587  0.048  -1.128104  0.058753  -0.330918  -0.537883  0.039005  2.383346  0.053
O  O119  1  0.43270344  0.54101015  0.34868599  1  -0.605256  -0.051731  2.097765  -0.068  -0.563023  -0.039226  2.37258  -0.056  -0.60006  -0.032459  2.360319  -0.048  -1.134061  -0.058324  -0.330105  -0.538167  -0.038831  2.381113  -0.053
O  O120  1  0.38738961  0.04548128  0.90999314  1  -0.621405  0.000272  1.998328  0.0  -0.557716  8.7e-05  2.21096  0.0  -0.58284  0.000423  2.201893  0.0  -1.188548  -0.000635  -0.307329  -0.540783  -0.000239  2.217141  -0.001
O  O121  1  0.34293475  0.45415620  0.58970280  1  -0.621989  -0.000249  2.000897  0.0  -0.558469  -7.2e-05  2.213232  0.0  -0.583744  -0.00041  2.204332  0.0  -1.187102  0.000405  -0.307813  -0.541465  0.000161  2.219319  0.001
O  O122  1  0.61262687  0.95453405  0.09000769  1  -0.621244  -0.000272  1.998192  0.0  -0.557649  -8.7e-05  2.210863  0.0  -0.582791  -0.000423  2.201816  0.0  -1.188357  0.000639  -0.30727  -0.540723  0.000242  2.217041  0.001
O  O123  1  0.65706791  0.54584867  0.41029893  1  -0.621913  0.000248  2.000772  0.0  -0.558367  7.1e-05  2.213097  0.0  -0.583644  0.00041  2.2042  0.0  -1.187049  -0.000405  -0.307723  -0.541378  -0.000162  2.219179  -0.001
O  O124  1  0.79535265  0.12000414  0.95172285  1  -0.515516  -0.071385  2.035091  -0.093  -0.4949  -0.05681  2.300158  -0.08  -0.536467  -0.047347  2.296073  -0.071  -1.093409  -0.081846  -0.311769  -0.463831  -0.054101  2.302031  -0.074
O  O125  1  0.86739364  0.37996559  0.54801153  1  -0.514508  0.071382  2.033773  0.093  -0.494187  0.056753  2.298925  0.08  -0.535843  0.047259  2.294879  0.071  -1.101359  0.081502  -0.311139  -0.463073  0.053953  2.30075  0.074
O  O126  1  0.20466969  0.87999419  0.04827823  1  -0.515573  0.071389  2.035027  0.093  -0.494959  0.05681  2.300152  0.08  -0.536531  0.047346  2.296071  0.071  -1.093066  0.081841  -0.311846  -0.463919  0.054099  2.301989  0.074
O  O127  1  0.13261374  0.62003797  0.45198760  1  -0.514524  -0.071389  2.033737  -0.093  -0.494201  -0.056755  2.298858  -0.08  -0.535858  -0.04726  2.294805  -0.071  -1.1014  -0.081489  -0.311133  -0.463088  -0.053941  2.300681  -0.074
O  O128  1  0.67075460  0.79083282  0.98383917  1  -0.834601  0.000855  1.867812  0.0  -0.795284  0.000678  2.059166  0.0  -0.815214  0.000932  2.026678  0.001  -1.290842  0.000827  -0.600659  -0.780815  0.000329  2.082019  0.0
O  O129  1  0.44519844  0.70906069  0.51609834  1  -0.833303  -0.000875  1.87107  0.0  -0.794617  -0.000694  2.062478  0.0  -0.81451  -0.000946  2.029985  -0.001  -1.277316  -0.000901  -0.60047  -0.780133  -0.000355  2.085182  0.0
O  O130  1  0.32925261  0.20916813  0.01616291  1  -0.834663  -0.000854  1.867792  0.0  -0.795268  -0.000678  2.059254  0.0  -0.815196  -0.000933  2.026762  -0.001  -1.290862  -0.00083  -0.600706  -0.780829  -0.000327  2.082084  0.0
O  O131  1  0.55479743  0.29094549  0.48389959  1  -0.833255  0.000878  1.8711  0.0  -0.794506  0.000694  2.062474  0.0  -0.814424  0.000944  2.030028  0.001  -1.277255  0.0009  -0.600394  -0.780024  0.000354  2.08519  0.0
