# generated using pymatgen
data_H18RuC22NO6
_symmetry_space_group_name_H-M   'P 1'
_cell_length_a   9.31691936
_cell_length_b   10.19323493
_cell_length_c   10.63055794
_cell_angle_alpha   93.03154799
_cell_angle_beta   95.80010596
_cell_angle_gamma   102.32025441
_symmetry_Int_Tables_number   1
_chemical_formula_structural   H18RuC22NO6
_chemical_formula_sum   'H36 Ru2 C44 N2 O12'
_cell_volume   978.39657793
_cell_formula_units_Z   2
loop_
 _symmetry_equiv_pos_site_id
 _symmetry_equiv_pos_as_xyz
  1  'x, y, z'
loop_
 _atom_site_type_symbol
 _atom_site_label
 _atom_site_symmetry_multiplicity
 _atom_site_fract_x
 _atom_site_fract_y
 _atom_site_fract_z
 _atom_site_occupancy
 _atom_site_pbe_cm5_charge
 _atom_site_pbe_ddec_charge
 _atom_site_pbe_ddec_spin_density
 _atom_site_pbe_ddec_sum_bond_order
 _atom_site_pbe_magmom
H  H0  1  0.07746738  0.72184183  0.90464363  1  0.097824  0.100068  2e-06  1.000599  0.0
H  H1  1  0.92255997  0.27792248  0.09499878  1  0.097916  0.100141  -2e-06  1.000796  0.0
H  H2  1  0.18848408  0.88728337  0.94991533  1  0.106489  0.113592  -1.6e-05  1.007388  0.0
H  H3  1  0.81148336  0.11241886  0.04990748  1  0.106491  0.113815  2.4e-05  1.007281  0.0
H  H4  1  0.01408192  0.86759633  0.85454392  1  0.10278  0.113399  -0.000102  0.989336  0.0
H  H5  1  0.98561393  0.13227827  0.14580965  1  0.102888  0.113514  9.4e-05  0.98951  0.0
H  H6  1  0.83075334  0.67682373  0.86106466  1  0.098155  0.104002  -3.7e-05  1.079205  0.0
H  H7  1  0.16914585  0.32325381  0.13909595  1  0.098045  0.103879  3.4e-05  1.079612  0.0
H  H8  1  0.56744566  0.58549382  0.86708040  1  0.098148  0.088543  -2e-06  1.033278  0.0
H  H9  1  0.43242558  0.41500663  0.13298291  1  0.098289  0.088864  3e-06  1.033294  0.0
H  H10  1  0.44234771  0.64073277  0.05474251  1  0.09856  0.099141  -3e-06  1.01629  0.0
H  H11  1  0.55776586  0.35945671  0.94562166  1  0.098605  0.098999  4e-06  1.01685  0.0
H  H12  1  0.59331841  0.78809461  0.23760062  1  0.10658  0.111534  -0.000116  1.011107  0.0
H  H13  1  0.40714540  0.21154892  0.76295533  1  0.106311  0.111588  8.1e-05  1.01022  0.0
H  H14  1  0.28115780  0.54290830  0.71638828  1  0.10622  0.115818  9e-06  0.990459  0.0
H  H15  1  0.71888714  0.45659763  0.28355393  1  0.106302  0.116166  -1.5e-05  0.990002  0.0
H  H16  1  0.14506690  0.39448394  0.65595314  1  0.097313  0.101665  -7e-05  1.02232  0.0
H  H17  1  0.85507521  0.60497969  0.34404712  1  0.097061  0.100979  6.7e-05  1.023621  0.0
H  H18  1  0.14895208  0.46244005  0.81585603  1  0.093753  0.091191  1.1e-05  1.019526  0.0
H  H19  1  0.85092329  0.53732479  0.18401367  1  0.093403  0.091161  -8e-06  1.019744  0.0
H  H20  1  0.92197792  0.33263481  0.72522467  1  0.104854  0.122233  0.000173  1.043603  0.0
H  H21  1  0.07772552  0.66702390  0.27432067  1  0.104893  0.122224  -0.000181  1.043463  0.0
H  H22  1  0.65269515  0.26735202  0.70955204  1  0.101282  0.095982  6.3e-05  1.028286  0.0
H  H23  1  0.34702995  0.73282810  0.29040872  1  0.101263  0.095955  -6.4e-05  1.028536  0.0
H  H24  1  0.49643312  0.42774895  0.63869984  1  0.097575  0.095305  -4e-06  1.026929  0.0
H  H25  1  0.50355176  0.57254136  0.36104823  1  0.097761  0.09551  1e-06  1.027085  0.0
H  H26  1  0.62018833  0.65692394  0.58555589  1  0.107442  0.11355  0.000216  1.00428  0.0
H  H27  1  0.38017340  0.34324886  0.41400897  1  0.107853  0.113705  -0.000172  1.00399  0.0
H  H28  1  0.76533478  0.05671216  0.76149742  1  0.103423  0.118561  -0.000542  1.051286  0.0
H  H29  1  0.23421844  0.94406369  0.23863805  1  0.103399  0.118589  0.000404  1.052535  0.0
H  H30  1  0.63629455  0.93328263  0.92694402  1  0.093544  0.090289  8e-06  1.033285  0.0
H  H31  1  0.36357235  0.06641550  0.07278059  1  0.093548  0.090132  -1.4e-05  1.034105  0.0
H  H32  1  0.38050773  0.79524822  0.87392559  1  0.093288  0.08393  2.3e-05  1.033488  0.0
H  H33  1  0.61944035  0.20431557  0.12562352  1  0.0931  0.083743  -2e-05  1.033003  0.0
H  H34  1  0.24545567  0.79633589  0.65983685  1  0.104344  0.117429  -0.000461  1.057784  0.0
H  H35  1  0.75424142  0.20410992  0.33998149  1  0.104541  0.117827  0.000479  1.058156  0.0
Ru  Ru36  1  0.88989970  0.03077811  0.52187746  1  0.746347  0.73509  -0.012316  3.877708  -0.007
Ru  Ru37  1  0.11037259  0.96915818  0.47835809  1  0.749407  0.738204  0.015389  3.882593  0.01
C  C38  1  0.87706088  0.88600709  0.27376681  1  0.213486  0.542694  9.9e-05  4.145767  0.0
C  C39  1  0.12302704  0.11367801  0.72672895  1  0.21259  0.541638  -0.000138  4.149801  0.0
C  C40  1  0.79678363  0.81095625  0.15593471  1  -0.030267  -0.158195  -2.5e-05  3.986675  0.0
C  C41  1  0.20349682  0.18881110  0.84446760  1  -0.030428  -0.158243  7.3e-05  3.988238  0.0
C  C42  1  0.86590282  0.78210152  0.04794554  1  0.093809  0.24058  3.6e-05  4.018741  0.0
C  C43  1  0.13434816  0.21760535  0.95241534  1  0.09411  0.241404  1.7e-05  4.017413  0.0
C  C44  1  0.07528387  0.82707624  0.93171276  1  -0.135465  -0.16859  -1.7e-05  3.867503  0.0
C  C45  1  0.92470004  0.17259405  0.06829731  1  -0.135726  -0.168925  9e-06  3.869675  0.0
C  C46  1  0.78090105  0.69969685  0.94529801  1  -0.11232  -0.230468  -3.9e-05  4.004374  0.0
C  C47  1  0.21912987  0.30029615  0.05497837  1  -0.11218  -0.229993  -1.6e-05  4.003868  0.0
C  C48  1  0.63033419  0.64848661  0.94865010  1  -0.081423  -0.032768  7e-05  4.019666  0.0
C  C49  1  0.36963782  0.35172287  0.05154538  1  -0.081992  -0.034264  -1.2e-05  4.020316  0.0
C  C50  1  0.56043322  0.67951610  0.05290298  1  -0.105532  -0.12769  2.7e-05  4.048567  0.0
C  C51  1  0.43971643  0.32050212  0.94746024  1  -0.105932  -0.127634  -4.1e-05  4.049322  0.0
C  C52  1  0.64390249  0.76110259  0.15482226  1  -0.082937  -0.074201  -1.9e-05  3.983591  0.0
C  C53  1  0.35638126  0.23867487  0.84560625  1  -0.082115  -0.073501  5.7e-05  3.982055  0.0
C  C54  1  0.90263213  0.76016361  0.58338987  1  0.210696  0.53332  -8.9e-05  4.13943  0.0
C  C55  1  0.09757407  0.23979939  0.41650953  1  0.210693  0.533835  0.000627  4.139482  0.001
C  C56  1  0.83998025  0.62426989  0.62128909  1  -0.031565  -0.158103  -0.000101  3.977557  0.0
C  C57  1  0.16021710  0.37569802  0.37852691  1  -0.031494  -0.158083  -3e-05  3.977078  0.0
C  C58  1  0.92741679  0.53295069  0.66281975  1  0.096649  0.248008  3e-06  4.001712  0.0
C  C59  1  0.07265941  0.46684982  0.33681210  1  0.096552  0.247503  1.9e-05  4.002209  0.0
C  C60  1  0.16697746  0.48762793  0.71840355  1  -0.138985  -0.174831  -9.5e-05  3.892756  0.0
C  C61  1  0.83303255  0.51194838  0.28144367  1  -0.139003  -0.17557  0.000103  3.893325  0.0
C  C62  1  0.85761881  0.40510718  0.69498454  1  -0.107513  -0.213998  -0.000139  3.961654  0.0
C  C63  1  0.14226569  0.59475399  0.30467332  1  -0.107699  -0.214284  0.000118  3.962882  0.0
C  C64  1  0.70387578  0.36798537  0.68569922  1  -0.080279  -0.02622  3.9e-05  3.984768  0.0
C  C65  1  0.29598402  0.63210266  0.31407997  1  -0.080187  -0.026026  -7e-06  3.985748  0.0
C  C66  1  0.61666460  0.45718398  0.64591030  1  -0.106575  -0.127561  -3.7e-05  4.042814  0.0
C  C67  1  0.38333883  0.54300055  0.35383544  1  -0.106764  -0.127923  2.7e-05  4.042713  0.0
C  C68  1  0.68515522  0.58447904  0.61510459  1  -0.082355  -0.072792  0.000197  3.982417  0.0
C  C69  1  0.31502755  0.41562973  0.38461983  1  -0.082559  -0.072684  -0.000105  3.980978  0.0
C  C70  1  0.57895532  0.99857812  0.61554823  1  0.099241  0.154368  -0.000708  4.002931  0.0
C  C71  1  0.42070225  0.00216014  0.38445335  1  0.099291  0.153585  0.000784  4.001061  0.0
C  C72  1  0.65127043  0.00068666  0.74011153  1  -0.102515  -0.178079  -0.000333  3.983675  0.0
C  C73  1  0.34834117  0.99988548  0.25990598  1  -0.102932  -0.177285  0.000919  3.98535  0.0
C  C74  1  0.57946023  0.93142630  0.83186475  1  -0.098303  -0.072443  -0.001497  4.028975  -0.001
C  C75  1  0.42027223  0.06856013  0.16792003  1  -0.09872  -0.073447  0.000114  4.03002  0.0
C  C76  1  0.43370354  0.85412514  0.80208014  1  -0.102625  -0.090344  0.00022  4.045632  0.0
C  C77  1  0.56608996  0.14578156  0.19764364  1  -0.101946  -0.089506  0.000566  4.044026  0.0
C  C78  1  0.35846626  0.85393250  0.68352534  1  -0.098154  -0.158921  -0.001132  3.969393  0.0
C  C79  1  0.64127592  0.14641456  0.31629165  1  -0.098583  -0.159652  0.000124  3.967835  0.0
C  C80  1  0.57361082  0.07027188  0.41088503  1  0.101824  0.167592  0.000767  3.987502  0.0
C  C81  1  0.42609085  0.93039187  0.58916048  1  0.101065  0.166647  -0.000811  3.985536  0.0
N  N82  1  0.65495687  0.06197234  0.52381279  1  -0.337242  -0.314707  0.001779  3.408508  0.0
N  N83  1  0.34455852  0.93893545  0.47629525  1  -0.337654  -0.313388  -0.003005  3.410071  -0.001
O  O84  1  0.80186583  0.94267858  0.34543795  1  -0.293732  -0.459635  0.001548  2.531732  0.001
O  O85  1  0.19802732  0.05671979  0.65515164  1  -0.293277  -0.460513  -0.005431  2.53348  -0.004
O  O86  1  0.01471058  0.88654155  0.30300580  1  -0.297253  -0.461881  0.001972  2.51258  0.001
O  O87  1  0.98578327  0.11435297  0.69695690  1  -0.296783  -0.460892  -0.006756  2.513375  -0.004
O  O88  1  0.01184218  0.83914120  0.04805174  1  -0.180719  -0.14715  8.3e-05  2.579915  0.0
O  O89  1  0.98851283  0.16017868  0.95224137  1  -0.181112  -0.148317  -0.000138  2.581158  0.0
O  O90  1  0.82167218  0.84774713  0.58867228  1  -0.299038  -0.451532  -0.000747  2.481869  0.0
O  O91  1  0.17908866  0.15262519  0.41238506  1  -0.298582  -0.451683  0.004103  2.482175  0.002
O  O92  1  0.03080031  0.78619910  0.54403457  1  -0.291969  -0.449974  0.000475  2.51174  0.0
O  O93  1  0.96914849  0.21352557  0.45534353  1  -0.292572  -0.451324  0.003457  2.511566  0.002
O  O94  1  0.07680940  0.57686319  0.67350859  1  -0.177133  -0.147755  -0.000198  2.611934  0.0
O  O95  1  0.92330825  0.42272258  0.32602951  1  -0.176865  -0.146515  0.000294  2.61196  0.0
