# generated using pymatgen
data_ZnH14C20(NO)4
_symmetry_space_group_name_H-M   'P 1'
_cell_length_a   9.74369264
_cell_length_b   13.50865439
_cell_length_c   21.64789435
_cell_angle_alpha   90.00028839
_cell_angle_beta   90.00007270
_cell_angle_gamma   90.00049080
_symmetry_Int_Tables_number   1
_chemical_formula_structural   ZnH14C20(NO)4
_chemical_formula_sum   'Zn4 H56 C80 N16 O16'
_cell_volume   2849.38626328
_cell_formula_units_Z   4
loop_
 _symmetry_equiv_pos_site_id
 _symmetry_equiv_pos_as_xyz
  1  'x, y, z'
loop_
 _atom_site_type_symbol
 _atom_site_label
 _atom_site_symmetry_multiplicity
 _atom_site_fract_x
 _atom_site_fract_y
 _atom_site_fract_z
 _atom_site_occupancy
 _atom_site_pbe_bader_charge
 _atom_site_pbe_bader_spin_density
 _atom_site_pbe_cm5_charge
 _atom_site_pbe_ddec_charge
 _atom_site_pbe_ddec_spin_density
 _atom_site_pbe_ddec_sum_bond_order
 _atom_site_pbe_magmom
Zn  Zn0  1  0.17812416  0.29104073  0.75000278  1  1.241341  0  0.689716  0.770166  0  2.422021  0
Zn  Zn1  1  0.82187469  0.70896018  0.25000025  1  1.241404  0  0.689727  0.770154  0  2.421884  0
Zn  Zn2  1  0.67812335  0.20895879  0.24999943  1  1.241358  0  0.689767  0.770119  0  2.422137  0
Zn  Zn3  1  0.32186627  0.79103990  0.75000129  1  1.241492  0  0.689762  0.770134  0  2.422082  0
H  H4  1  0.72627989  0.30820994  0.75000019  1  0.081175  0  0.104136  0.112876  0  1.022651  0
H  H5  1  0.27371485  0.69179245  0.24999637  1  0.081092  0  0.10416  0.112875  0  1.022743  0
H  H6  1  0.22628223  0.19179284  0.25000020  1  0.081118  0  0.104169  0.112895  0  1.022684  0
H  H7  1  0.77371457  0.80820955  0.74999960  1  0.08112  0  0.104174  0.112885  0  1.022775  0
H  H8  1  0.43276116  0.54471963  0.75000001  1  0.092053  0  0.095349  0.093095  0  1.052233  0
H  H9  1  0.56723975  0.45528498  0.24999932  1  0.092312  0  0.095379  0.093146  0  1.052186  0
H  H10  1  0.93275814  0.95528187  0.24999743  1  0.092256  0  0.095325  0.093089  0  1.052306  0
H  H11  1  0.06723455  0.04472052  0.75000144  1  0.092114  0  0.095364  0.093173  0  1.052181  0
H  H12  1  0.62235121  0.66903460  0.75000119  1  0.108712  0  0.095408  0.102299  0  1.04437  0
H  H13  1  0.37764969  0.33097223  0.25000092  1  0.108818  0  0.095359  0.10228  0  1.044596  0
H  H14  1  0.12234391  0.83096573  0.24999839  1  0.108671  0  0.09541  0.10222  0  1.044495  0
H  H15  1  0.87764571  0.16903518  0.75000140  1  0.108705  0  0.095426  0.102285  0  1.044416  0
H  H16  1  0.86635385  0.61137824  0.75000301  1  0.129925  0  0.100749  0.11421  0  1.030237  0
H  H17  1  0.13365014  0.38862489  0.25000186  1  0.129957  0  0.100745  0.114154  0  1.030208  0
H  H18  1  0.36634620  0.88862211  0.25000132  1  0.130012  0  0.100748  0.114133  0  1.03028  0
H  H19  1  0.63364342  0.11137583  0.75000078  1  0.129927  0  0.100751  0.11427  0  1.030185  0
H  H20  1  0.32515117  0.93597773  0.65602009  1  0.16851  0  0.129352  0.12491  0  0.990115  0
H  H21  1  0.67486487  0.06402760  0.15602702  1  0.168667  0  0.12938  0.125041  0  0.990174  0
H  H22  1  0.82510580  0.56403052  0.34397268  1  0.168923  0  0.129365  0.125023  0  0.990349  0
H  H23  1  0.17488921  0.43596745  0.84396272  1  0.168711  0  0.129305  0.124937  0  0.990306  0
H  H24  1  0.67492260  0.06404095  0.34395291  1  0.168428  0  0.129308  0.124957  0  0.99039  0
H  H25  1  0.32509191  0.93595998  0.84396123  1  0.168596  0  0.129307  0.124951  0  0.990308  0
H  H26  1  0.17487971  0.43596077  0.65603774  1  0.168564  0  0.129332  0.124969  0  0.990333  0
H  H27  1  0.82512709  0.56402753  0.15603569  1  0.168658  0  0.129367  0.125005  0  0.99024  0
H  H28  1  0.19296901  0.90758641  0.60280837  1  0.100171  0  0.132505  0.124761  0  0.920715  0
H  H29  1  0.80705612  0.09241626  0.10281453  1  0.101136  0  0.132487  0.124841  0  0.920824  0
H  H30  1  0.69292925  0.59242176  0.39718017  1  0.10099  0  0.132447  0.124714  0  0.92084  0
H  H31  1  0.30707001  0.40757665  0.89717574  1  0.101061  0  0.13243  0.124672  0  0.920819  0
H  H32  1  0.80710579  0.09242930  0.39716233  1  0.100631  0  0.132417  0.124692  0  0.92096  0
H  H33  1  0.19291605  0.90757502  0.89717048  1  0.100807  0  0.132417  0.124611  0  0.920975  0
H  H34  1  0.30705626  0.40757693  0.60282563  1  0.101214  0  0.132463  0.124685  0  0.920844  0
H  H35  1  0.69294834  0.59241612  0.10282267  1  0.101233  0  0.132494  0.124808  0  0.920713  0
H  H36  1  0.98564401  0.23669166  0.63018665  1  0.108583  0  0.126827  0.124093  0  0.984472  0
H  H37  1  0.01435040  0.76330236  0.13018522  1  0.108553  0  0.126864  0.124095  0  0.984479  0
H  H38  1  0.48564548  0.26330384  0.36981481  1  0.108499  0  0.126838  0.124033  0  0.984545  0
H  H39  1  0.51435063  0.73669878  0.86981522  1  0.108569  0  0.126857  0.124046  0  0.984523  0
H  H40  1  0.01434971  0.76330185  0.36982053  1  0.108549  0  0.126868  0.124071  0  0.984496  0
H  H41  1  0.98565256  0.23669189  0.86981781  1  0.108644  0  0.126876  0.124109  0  0.984483  0
H  H42  1  0.51433695  0.73668819  0.63018684  1  0.108814  0  0.126893  0.124166  0  0.98449  0
H  H43  1  0.48564617  0.26330139  0.13018642  1  0.108558  0  0.12687  0.12403  0  0.984502  0
H  H44  1  0.02859707  0.05599244  0.57082189  1  0.127513  0  0.128207  0.127744  0  0.993146  0
H  H45  1  0.97140334  0.94400035  0.07082111  1  0.127561  0  0.128219  0.127706  0  0.99316  0
H  H46  1  0.52858210  0.44400171  0.42917746  1  0.12742  0  0.128212  0.127711  0  0.993197  0
H  H47  1  0.47141110  0.55599770  0.92917405  1  0.127528  0  0.128208  0.127679  0  0.993207  0
H  H48  1  0.97141718  0.94400625  0.42917698  1  0.127429  0  0.128202  0.127692  0  0.993184  0
H  H49  1  0.02858936  0.05599390  0.92917684  1  0.12748  0  0.128217  0.127762  0  0.993161  0
H  H50  1  0.47139725  0.55599032  0.57082419  1  0.127546  0  0.128247  0.127792  0  0.993073  0
H  H51  1  0.52859289  0.44400469  0.07082944  1  0.127626  0  0.128209  0.127754  0  0.993067  0
H  H52  1  0.35290068  0.10863577  0.69702372  1  0.226962  0  0.142635  0.128335  0  1.027409  0
H  H53  1  0.64710418  0.89136841  0.19702489  1  0.223061  0  0.14267  0.128368  0  1.027362  0
H  H54  1  0.85288885  0.39137520  0.30297628  1  0.226917  0  0.142682  0.128451  0  1.027238  0
H  H55  1  0.14709579  0.60862911  0.80298117  1  0.227088  0  0.14267  0.128364  0  1.027436  0
H  H56  1  0.64710638  0.89137255  0.30297746  1  0.227073  0  0.142681  0.128447  0  1.027294  0
H  H57  1  0.35289365  0.10862435  0.80297675  1  0.223223  0  0.142675  0.128422  0  1.027353  0
H  H58  1  0.14709564  0.60862867  0.69702767  1  0.223405  0  0.142664  0.128383  0  1.027436  0
H  H59  1  0.85290614  0.39136292  0.19702417  1  0.223448  0  0.142663  0.128357  0  1.027528  0
C  C60  1  0.95824192  0.42418001  0.75000275  1  1.513326  0  0.196819  0.559849  0  4.235262  0
C  C61  1  0.04175591  0.57582090  0.25000028  1  1.513243  0  0.196862  0.559871  0  4.235345  0
C  C62  1  0.45823878  0.07582198  0.25000055  1  1.513319  0  0.196832  0.55975  0  4.235447  0
C  C63  1  0.54175495  0.92417449  0.74999925  1  1.513329  0  0.196952  0.559914  0  4.235362  0
C  C64  1  0.81132143  0.45637151  0.75000137  1  0.014461  0  -0.028518  -0.049793  0  4.005725  0
C  C65  1  0.18867332  0.54363606  0.24999796  1  0.014872  0  -0.028615  -0.04991  0  4.005552  0
C  C66  1  0.31131995  0.04362957  0.25000184  1  0.014533  0  -0.028489  -0.049712  0  4.005351  0
C  C67  1  0.68867377  0.95636986  0.74999934  1  0.014503  0  -0.028531  -0.049826  0  4.005569  0
C  C68  1  0.78191429  0.55820540  0.75000198  1  -0.007504  0  -0.082963  -0.081901  0  3.941196  0
C  C69  1  0.21808354  0.44180069  0.25000012  1  -0.007598  0  -0.082925  -0.081751  0  3.940726  0
C  C70  1  0.28190728  0.94179443  0.24999953  1  -0.007517  0  -0.083017  -0.081918  0  3.94118  0
C  C71  1  0.71808439  0.05820352  0.75000026  1  -0.007394  0  -0.082994  -0.082003  0  3.941253  0
C  C72  1  0.64589110  0.59006826  0.75000199  1  -0.13267  0  -0.100092  -0.102444  0  4.021361  0
C  C73  1  0.35411083  0.40993487  0.24999965  1  -0.132674  0  -0.100039  -0.102441  0  4.021683  0
C  C74  1  0.14589089  0.90992851  0.24999806  1  -0.132753  0  -0.100038  -0.10217  0  4.021331  0
C  C75  1  0.85409975  0.09007017  0.75000312  1  -0.1328  0  -0.100024  -0.102263  0  4.021184  0
C  C76  1  0.53949673  0.52093003  0.75000093  1  -0.035604  0  -0.091481  -0.089863  0  3.977906  0
C  C77  1  0.46050007  0.47907162  0.24999887  1  -0.035854  0  -0.091463  -0.089876  0  3.978074  0
C  C78  1  0.03949632  0.97907127  0.24999814  1  -0.035744  0  -0.091498  -0.090068  0  3.977765  0
C  C79  1  0.96049843  0.02092964  0.75000166  1  -0.034984  0  -0.091544  -0.090095  0  3.977638  0
C  C80  1  0.56745165  0.41904654  0.75000032  1  -0.046207  0  -0.031127  -0.051034  0  3.98932  0
C  C81  1  0.43254823  0.58095437  0.24999624  1  -0.046217  0  -0.031139  -0.051067  0  3.989301  0
C  C82  1  0.06745472  0.08095525  0.24999859  1  -0.046192  0  -0.031156  -0.051068  0  3.989411  0
C  C83  1  0.93254516  0.91904343  0.75000074  1  -0.046628  0  -0.031142  -0.051055  0  3.989346  0
C  C84  1  0.70416452  0.38721256  0.74999846  1  -0.037614  0  -0.082105  -0.107321  0  3.934042  0
C  C85  1  0.29583228  0.61279205  0.24999533  1  -0.037915  0  -0.082114  -0.107331  0  3.934042  0
C  C86  1  0.20416489  0.11279230  0.25000192  1  -0.037728  0  -0.082134  -0.10734  0  3.934072  0
C  C87  1  0.79583294  0.88720861  0.74999973  1  -0.037706  0  -0.082119  -0.107299  0  3.934144  0
C  C88  1  0.45194162  0.34505140  0.75000202  1  1.520186  0  0.193255  0.561656  0  4.226065  0
C  C89  1  0.54805519  0.65495099  0.24999870  1  1.520161  0  0.193374  0.561877  0  4.225653  0
C  C90  1  0.95194427  0.15495055  0.24999896  1  1.520351  0  0.193277  0.561669  0  4.225947  0
C  C91  1  0.04804945  0.84504369  0.75000176  1  1.51969  0  0.193184  0.561657  0  4.225776  0
C  C92  1  0.25939921  0.12143901  0.67087614  1  0.977427  0  0.154067  0.103696  0  3.868072  0
C  C93  1  0.74060455  0.87856199  0.17087825  1  0.977567  0  0.15406  0.103564  0  3.868092  0
C  C94  1  0.75938524  0.37856619  0.32912196  1  0.977521  0  0.153969  0.103369  0  3.868189  0
C  C95  1  0.24060255  0.62144055  0.82912417  1  0.977322  0  0.15404  0.103573  0  3.868377  0
C  C96  1  0.74060991  0.87856634  0.32912320  1  0.977568  0  0.154  0.103327  0  3.868274  0
C  C97  1  0.25939020  0.12143300  0.82912294  1  0.977579  0  0.154035  0.103503  0  3.868301  0
C  C98  1  0.24059411  0.62143472  0.67087830  1  0.977152  0  0.15402  0.103468  0  3.868096  0
C  C99  1  0.75940657  0.37855592  0.17087932  1  0.976601  0  0.154086  0.103714  0  3.867919  0
C  C100  1  0.27358971  0.96189337  0.61371900  1  0.365094  0  -0.022862  -0.036579  0  3.973856  0
C  C101  1  0.72643648  0.03811605  0.11372865  1  0.364546  0  -0.022889  -0.037088  0  3.973943  0
C  C102  1  0.77355235  0.53812714  0.38627188  1  0.364083  0  -0.022924  -0.036851  0  3.973983  0
C  C103  1  0.22644072  0.46187266  0.88626712  1  0.36481  0  -0.02285  -0.036579  0  3.973861  0
C  C104  1  0.72646970  0.03814603  0.38626047  1  0.364639  0  -0.022931  -0.03688  0  3.974096  0
C  C105  1  0.27354698  0.96186339  0.88626699  1  0.364796  0  -0.022868  -0.036485  0  3.973615  0
C  C106  1  0.22643008  0.46187377  0.61373623  1  0.364646  0  -0.022906  -0.036765  0  3.974145  0
C  C107  1  0.77357045  0.53811863  0.11373406  1  0.364153  0  -0.022898  -0.036867  0  3.974045  0
C  C108  1  0.37069047  0.97334687  0.56338667  1  0.039474  0  -0.027161  -0.058896  0  3.97647  0
C  C109  1  0.62933455  0.02667251  0.06338745  1  0.038158  0  -0.027142  -0.058718  0  3.976481  0
C  C110  1  0.87066441  0.52669423  0.43661074  1  0.037664  0  -0.027136  -0.058706  0  3.97623  0
C  C111  1  0.12933497  0.47329487  0.93660734  1  0.037009  0  -0.027238  -0.058828  0  3.97642  0
C  C112  1  0.62937099  0.02673991  0.43660342  1  0.036388  0  -0.027134  -0.058485  0  3.9759  0
C  C113  1  0.37065404  0.97328028  0.93660542  1  0.036512  0  -0.027256  -0.058838  0  3.975858  0
C  C114  1  0.12933136  0.47330520  0.56339830  1  0.036912  0  -0.027212  -0.058826  0  3.976484  0
C  C115  1  0.87066594  0.52668235  0.06339707  1  0.037021  0  -0.027195  -0.058856  0  3.976219  0
C  C116  1  0.45373090  0.99066178  0.52260031  1  -0.280344  0  -0.040845  -0.040647  0  4.320059  0
C  C117  1  0.54628990  0.00937281  0.02260468  1  -0.279628  0  -0.040851  -0.040693  0  4.320345  0
C  C118  1  0.95370988  0.50941388  0.47739946  1  -0.177286  0  -0.040853  -0.040921  0  4.320058  0
C  C119  1  0.04629474  0.49058740  0.97739468  1  -0.177498  0  -0.040882  -0.0411  0  4.320357  0
C  C120  1  0.54631311  0.00945535  0.47738840  1  -0.176554  0  -0.040953  -0.041362  0  4.319845  0
C  C121  1  0.45371409  0.99056962  0.97739373  1  -0.177053  0  -0.040823  -0.041117  0  4.319836  0
C  C122  1  0.04628589  0.49059221  0.52260726  1  -0.279193  0  -0.040895  -0.040952  0  4.32012  0
C  C123  1  0.95371232  0.50938612  0.02260373  1  -0.278669  0  -0.04081  -0.040661  0  4.319674  0
C  C124  1  0.08895126  0.09539343  0.60487194  1  0.341151  0  0.00325  -0.11645  0  3.945172  0
C  C125  1  0.91104924  0.90460037  0.10487099  1  0.341129  0  0.003208  -0.116571  0  3.945404  0
C  C126  1  0.58893984  0.40460257  0.39512884  1  0.341078  0  0.003207  -0.116537  0  3.945498  0
C  C127  1  0.41104916  0.59539508  0.89512644  1  0.341293  0  0.003295  -0.116331  0  3.945291  0
C  C128  1  0.91105170  0.90460377  0.39513109  1  0.341418  0  0.003229  -0.116526  0  3.945408  0
C  C129  1  0.08895270  0.09539313  0.89512973  1  0.341423  0  0.003218  -0.116533  0  3.945482  0
C  C130  1  0.41104054  0.59538798  0.60487466  1  0.341357  0  0.003207  -0.116492  0  3.945241  0
C  C131  1  0.58895483  0.40460509  0.10487613  1  0.341287  0  0.003288  -0.116492  0  3.94511  0
C  C132  1  0.06961625  0.18447935  0.63405181  1  0.392602  0  0.001581  -0.02616  0  4.009648  0
C  C133  1  0.93038125  0.81551618  0.13404968  1  0.392508  0  0.001559  -0.026093  0  4.009713  0
C  C134  1  0.56961395  0.31551728  0.36595403  1  0.392435  0  0.0016  -0.026022  0  4.009562  0
C  C135  1  0.43037907  0.68448605  0.86595470  1  0.392313  0  0.001477  -0.026134  0  4.009409  0
C  C136  1  0.93038055  0.81551712  0.36595676  1  0.39213  0  0.001505  -0.026141  0  4.009474  0
C  C137  1  0.06962068  0.18447807  0.86595474  1  0.392166  0  0.001492  -0.026204  0  4.009568  0
C  C138  1  0.43036951  0.68447623  0.63405131  1  0.392521  0  0.001501  -0.026289  0  4.009839  0
C  C139  1  0.56962183  0.31551264  0.13404695  1  0.392462  0  0.001474  -0.026049  0  4.009407  0
N  N140  1  0.17655737  0.19973229  0.67505355  1  -1.266418  0  -0.359036  -0.296918  0  3.587834  0
N  N141  1  0.82344025  0.80026801  0.17505454  1  -1.266553  0  -0.359044  -0.296853  0  3.587688  0
N  N142  1  0.67655683  0.30026870  0.32494682  1  -1.266409  0  -0.358973  -0.296716  0  3.587433  0
N  N143  1  0.32343916  0.69973726  0.82495070  1  -1.266446  0  -0.35901  -0.29678  0  3.587546  0
N  N144  1  0.82343430  0.80026788  0.32495272  1  -1.266404  0  -0.35899  -0.296721  0  3.587437  0
N  N145  1  0.17656271  0.19973142  0.82495080  1  -1.266477  0  -0.359013  -0.296771  0  3.587491  0
N  N146  1  0.32343279  0.69972851  0.67505483  1  -1.266654  0  -0.359054  -0.296779  0  3.587629  0
N  N147  1  0.67655559  0.30026439  0.17505187  1  -1.266108  0  -0.359021  -0.296911  0  3.587554  0
N  N148  1  0.20835857  0.05639446  0.62930108  1  -1.213609  0  -0.232965  0.054515  0  3.75526  0
N  N149  1  0.79164816  0.94360547  0.12930480  1  -1.213563  0  -0.233005  0.054804  0  3.754986  0
N  N150  1  0.70834343  0.44361043  0.37069653  1  -1.213381  0  -0.23296  0.054704  0  3.754899  0
N  N151  1  0.29164652  0.55639146  0.87069533  1  -1.213563  0  -0.232988  0.054416  0  3.755344  0
N  N152  1  0.79165568  0.94361385  0.37069456  1  -1.21361  0  -0.232895  0.054819  0  3.754769  0
N  N153  1  0.20834967  0.05638508  0.87069499  1  -1.21376  0  -0.232931  0.054547  0  3.755084  0
N  N154  1  0.29163797  0.55638604  0.62930788  1  -1.213846  0  -0.232896  0.054727  0  3.755088  0
N  N155  1  0.70835952  0.44360648  0.12930724  1  -1.213517  0  -0.23303  0.054514  0  3.755172  0
O  O156  1  0.98118851  0.32930979  0.74999753  1  -1.18499  0  -0.336661  -0.561192  0  2.334528  0
O  O157  1  0.01881445  0.67069038  0.24999765  1  -1.185056  0  -0.33665  -0.561158  0  2.334509  0
O  O158  1  0.48119060  0.17069308  0.24999793  1  -1.185161  0  -0.336749  -0.561208  0  2.334493  0
O  O159  1  0.51880826  0.82930487  0.74999863  1  -1.185321  0  -0.336729  -0.561178  0  2.334495  0
O  O160  1  0.05290791  0.48730563  0.75000628  1  -1.188246  0  -0.321466  -0.562239  0  2.208657  0
O  O161  1  0.94708992  0.51269602  0.25000460  1  -1.188206  0  -0.321515  -0.562298  0  2.20869  0
O  O162  1  0.55289861  0.01269903  0.25000556  1  -1.188139  0  -0.321433  -0.56218  0  2.208888  0
O  O163  1  0.44709100  0.98729818  0.74999978  1  -1.188162  0  -0.321527  -0.562303  0  2.208677  0
O  O164  1  0.32947391  0.38514902  0.75000020  1  -1.171484  0  -0.345227  -0.580574  0  2.3927  0
O  O165  1  0.67051879  0.61485263  0.24999914  1  -1.171364  0  -0.345299  -0.580708  0  2.392541  0
O  O166  1  0.82948019  0.11485440  0.24999933  1  -1.171562  0  -0.345268  -0.580613  0  2.392668  0
O  O167  1  0.17051558  0.88514281  0.74999908  1  -1.171407  0  -0.345335  -0.580639  0  2.392395  0
O  O168  1  0.47385063  0.25395061  0.75000327  1  -1.167765  0  -0.326622  -0.552053  0  2.126315  0
O  O169  1  0.52615233  0.74605400  0.25000022  1  -1.167878  0  -0.326694  -0.55213  0  2.126113  0
O  O170  1  0.97385232  0.24605074  0.25000050  1  -1.167822  0  -0.326612  -0.551989  0  2.126282  0
O  O171  1  0.02614449  0.75394277  0.75000484  1  -1.167396  0  -0.326494  -0.551968  0  2.126406  0
