# generated using pymatgen
data_CdH8C10Br2(NCl)2
_symmetry_space_group_name_H-M   'P 1'
_cell_length_a   3.89275235
_cell_length_b   11.66559445
_cell_length_c   14.39674132
_cell_angle_alpha   90.00036105
_cell_angle_beta   90.00064504
_cell_angle_gamma   88.85664012
_symmetry_Int_Tables_number   1
_chemical_formula_structural   CdH8C10Br2(NCl)2
_chemical_formula_sum   'Cd2 H16 C20 Br4 N4 Cl4'
_cell_volume   653.64414194
_cell_formula_units_Z   2
loop_
 _symmetry_equiv_pos_site_id
 _symmetry_equiv_pos_as_xyz
  1  'x, y, z'
loop_
 _atom_site_type_symbol
 _atom_site_label
 _atom_site_symmetry_multiplicity
 _atom_site_fract_x
 _atom_site_fract_y
 _atom_site_fract_z
 _atom_site_occupancy
 _atom_site_hle17_bader_spin_density
 _atom_site_hle17_ddec_charge
 _atom_site_hle17_ddec_spin_density
 _atom_site_hle17_ddec_sum_bond_order
 _atom_site_hle17_magmom
 _atom_site_hse06_10hf_bader_spin_density
 _atom_site_hse06_10hf_ddec_charge
 _atom_site_hse06_10hf_ddec_spin_density
 _atom_site_hse06_10hf_ddec_sum_bond_order
 _atom_site_hse06_10hf_magmom
 _atom_site_hse06_bader_spin_density
 _atom_site_hse06_ddec_charge
 _atom_site_hse06_ddec_spin_density
 _atom_site_hse06_ddec_sum_bond_order
 _atom_site_hse06_magmom
 _atom_site_pbe_bader_spin_density
 _atom_site_pbe_cm5_charge
 _atom_site_pbe_ddec_charge
 _atom_site_pbe_ddec_spin_density
 _atom_site_pbe_ddec_sum_bond_order
 _atom_site_pbe_magmom
Cd  Cd0  1  0.00000281  0.99999843  0.00000024  1  0  0.939443  0  1.902571  0  0  0.769584  0  2.347893  0  0  0.816841  0  2.310478  0  0  0.596203  0.736277  0  2.373453  0
Cd  Cd1  1  0.99999022  0.50000325  0.50000056  1  0  0.939382  0  1.902596  0  0  0.769529  0  2.347904  0  0  0.816781  0  2.310494  0  0  0.596183  0.736227  0  2.373455  0
H  H2  1  0.73937190  0.89629565  0.80518756  1  0  0.086603  0  0.972285  0  0  0.091359  0  1.045906  0  0  0.094321  0  1.043166  0  0  0.101268  0.089153  0  1.047944  0
H  H3  1  0.73935176  0.39630247  0.69481068  1  0  0.086576  0  0.972368  0  0  0.091275  0  1.046077  0  0  0.094271  0  1.043301  0  0  0.10124  0.08907  0  1.048114  0
H  H4  1  0.26062608  0.10370076  0.19481070  1  0  0.086599  0  0.972314  0  0  0.091354  0  1.045945  0  0  0.094322  0  1.043199  0  0  0.10123  0.089145  0  1.047991  0
H  H5  1  0.26064116  0.60370169  0.30518549  1  0  0.086523  0  0.972405  0  0  0.091286  0  1.046033  0  0  0.094245  0  1.043299  0  0  0.101249  0.089079  0  1.048072  0
H  H6  1  0.97925676  0.12288098  0.57650860  1  0  0.106091  0  0.964418  0  0  0.109666  0  1.039683  0  0  0.113571  0  1.035894  0  0  0.093627  0.106695  0  1.042633  0
H  H7  1  0.97927156  0.62287174  0.92349528  1  0  0.106045  0  0.964334  0  0  0.109672  0  1.039565  0  0  0.113579  0  1.035774  0  0  0.093592  0.1067  0  1.042515  0
H  H8  1  0.02074127  0.87711972  0.42348965  1  0  0.106067  0  0.964356  0  0  0.109656  0  1.0396  0  0  0.11356  0  1.035814  0  0  0.093616  0.106686  0  1.042548  0
H  H9  1  0.02074179  0.37712026  0.07650645  1  0  0.106061  0  0.964291  0  0  0.109667  0  1.039532  0  0  0.113584  0  1.035735  0  0  0.09361  0.106694  0  1.042484  0
H  H10  1  0.23949868  0.25420631  0.69219858  1  0  0.105049  0  0.962123  0  0  0.113454  0  1.025442  0  0  0.116348  0  1.024923  0  0  0.097392  0.111363  0  1.026016  0
H  H11  1  0.23952152  0.75420206  0.80780790  1  0  0.105044  0  0.962056  0  0  0.113448  0  1.025388  0  0  0.116341  0  1.024868  0  0  0.097381  0.111356  0  1.025959  0
H  H12  1  0.76048909  0.74579704  0.30780314  1  0  0.104985  0  0.962265  0  0  0.113408  0  1.025562  0  0  0.1163  0  1.025046  0  0  0.097379  0.111319  0  1.026129  0
H  H13  1  0.76049441  0.24579078  0.19219591  1  0  0.105  0  0.962124  0  0  0.113421  0  1.025436  0  0  0.116314  0  1.024916  0  0  0.097396  0.111329  0  1.026008  0
H  H14  1  0.24050303  0.19796168  0.86168958  1  0  0.066312  0  1.006184  0  0  0.066288  0  1.089363  0  0  0.06967  0  1.085363  0  0  0.0894  0.063771  0  1.092333  0
H  H15  1  0.24052396  0.69796376  0.63831594  1  0  0.066356  0  1.006194  0  0  0.06635  0  1.089338  0  0  0.069732  0  1.085341  0  0  0.08944  0.06383  0  1.092315  0
H  H16  1  0.75948217  0.80204169  0.13831353  1  0  0.066261  0  1.006357  0  0  0.066267  0  1.089473  0  0  0.06965  0  1.085473  0  0  0.089374  0.063751  0  1.092439  0
H  H17  1  0.75948950  0.30203853  0.36168648  1  0  0.066323  0  1.006231  0  0  0.066323  0  1.089379  0  0  0.069706  0  1.085378  0  0  0.089431  0.063799  0  1.092365  0
C  C18  1  0.85066258  0.97397769  0.77699889  1  0  0.067071  0  3.712378  0  0  0.027668  0  3.965921  0  0  0.034347  0  3.983916  0  0  0.029681  0.023459  0  3.953733  0
C  C19  1  0.85063075  0.47398141  0.72299588  1  0  0.067236  0  3.711973  0  0  0.027872  0  3.965508  0  0  0.034523  0  3.983499  0  0  0.02973  0.02366  0  3.953325  0
C  C20  1  0.14933286  0.02602217  0.22299658  1  0  0.067065  0  3.712264  0  0  0.027636  0  3.965889  0  0  0.034316  0  3.983877  0  0  0.029669  0.023424  0  3.953707  0
C  C21  1  0.14936983  0.52601756  0.27700307  1  0  0.06728  0  3.712223  0  0  0.027848  0  3.965795  0  0  0.034543  0  3.983767  0  0  0.029714  0.02364  0  3.953601  0
C  C22  1  0.84665761  0.99881839  0.68230807  1  0  0.029067  0  3.729592  0  0  0.050692  0  3.992506  0  0  0.049065  0  4.014883  0  0  -0.021219  0.051365  0  3.977424  0
C  C23  1  0.84663484  0.49881682  0.81769445  1  0  0.029133  0  3.72953  0  0  0.050788  0  3.992417  0  0  0.049139  0  4.014833  0  0  -0.021151  0.051458  0  3.977338  0
C  C24  1  0.15333786  0.00118318  0.31769087  1  0  0.029106  0  3.72976  0  0  0.050761  0  3.992641  0  0  0.049123  0  4.015037  0  0  -0.021156  0.051434  0  3.977556  0
C  C25  1  0.15336577  0.50118557  0.18230658  1  0  0.029127  0  3.72959  0  0  0.050788  0  3.992467  0  0  0.049145  0  4.014878  0  0  -0.021141  0.051459  0  3.977383  0
C  C26  1  0.98201908  0.10118904  0.65011341  1  0  -0.050017  0  3.714912  0  0  -0.077944  0  3.964583  0  0  -0.074756  0  3.981948  0  0  -0.077068  -0.079665  0  3.952864  0
C  C27  1  0.98198965  0.60117783  0.84988829  1  0  -0.050213  0  3.714893  0  0  -0.078175  0  3.964541  0  0  -0.074987  0  3.981914  0  0  -0.077134  -0.079888  0  3.952819  0
C  C28  1  0.01797901  0.89881765  0.34988485  1  0  -0.050098  0  3.715019  0  0  -0.078011  0  3.964675  0  0  -0.074822  0  3.982052  0  0  -0.077094  -0.07973  0  3.95295  0
C  C29  1  0.01803143  0.39881669  0.15011482  1  0  -0.050159  0  3.714826  0  0  -0.078094  0  3.964476  0  0  -0.074918  0  3.981846  0  0  -0.077088  -0.079809  0  3.952756  0
C  C30  1  0.12537177  0.17458847  0.71519093  1  0  -0.097097  0  3.713165  0  0  -0.104474  0  3.960247  0  0  -0.112  0  3.982514  0  0  -0.084937  -0.099776  0  3.945421  0
C  C31  1  0.12538076  0.67458071  0.78481622  1  0  -0.097021  0  3.71283  0  0  -0.104411  0  3.959913  0  0  -0.111936  0  3.982182  0  0  -0.084902  -0.099715  0  3.945085  0
C  C32  1  0.87464423  0.82541123  0.28481219  1  0  -0.096978  0  3.713027  0  0  -0.104401  0  3.960134  0  0  -0.111927  0  3.982404  0  0  -0.084941  -0.099703  0  3.945302  0
C  C33  1  0.87464292  0.32541636  0.21518412  1  0  -0.097058  0  3.713027  0  0  -0.104462  0  3.960134  0  0  -0.111987  0  3.982408  0  0  -0.084984  -0.099765  0  3.945306  0
C  C34  1  0.12609434  0.14413624  0.80868771  1  0  0.113968  0  3.713849  0  0  0.079331  0  3.969661  0  0  0.086978  0  3.98796  0  0  0.0321  0.074423  0  3.957278  0
C  C35  1  0.12607128  0.64414167  0.69131443  1  0  0.113895  0  3.713952  0  0  0.079292  0  3.969749  0  0  0.086937  0  3.988057  0  0  0.032052  0.074387  0  3.957361  0
C  C36  1  0.87387802  0.85586723  0.19131402  1  0  0.113964  0  3.713992  0  0  0.079365  0  3.969768  0  0  0.087011  0  3.988067  0  0  0.03214  0.074457  0  3.957381  0
C  C37  1  0.87392418  0.35585905  0.30868799  1  0  0.113954  0  3.713861  0  0  0.079321  0  3.969678  0  0  0.086967  0  3.987979  0  0  0.032047  0.074413  0  3.957292  0
Br  Br38  1  0.66598486  0.88971711  0.59852053  1  0  -0.040415  0  1.434023  0  0  -0.032046  0  1.72526  0  0  -0.037814  0  1.72035  0  0  0.067665  -0.027928  0  1.728869  0
Br  Br39  1  0.66599646  0.38971682  0.90147677  1  0  -0.040393  0  1.43407  0  0  -0.032037  0  1.725306  0  0  -0.037797  0  1.720411  0  0  0.06768  -0.027925  0  1.728925  0
Br  Br40  1  0.33401312  0.11027931  0.40147564  1  0  -0.040403  0  1.43406  0  0  -0.032046  0  1.725292  0  0  -0.037816  0  1.720401  0  0  0.067675  -0.027927  0  1.728899  0
Br  Br41  1  0.33401438  0.61028035  0.09852218  1  0  -0.040386  0  1.434085  0  0  -0.032039  0  1.72534  0  0  -0.0378  0  1.720435  0  0  0.067663  -0.02793  0  1.72896  0
N  N42  1  0.98910858  0.04594541  0.83877473  1  0  -0.304888  0  3.275148  0  0  -0.224096  0  3.533503  0  0  -0.245043  0  3.555876  0  0  -0.327313  -0.20989  0  3.517984  0
N  N43  1  0.98910481  0.54595130  0.66122742  1  0  -0.304918  0  3.275098  0  0  -0.224203  0  3.53355  0  0  -0.245134  0  3.555891  0  0  -0.327332  -0.209994  0  3.518026  0
N  N44  1  0.01087913  0.95405194  0.16122491  1  0  -0.304837  0  3.275232  0  0  -0.224092  0  3.533637  0  0  -0.245039  0  3.556013  0  0  -0.327297  -0.209888  0  3.51812  0
N  N45  1  0.01089067  0.45405199  0.33877291  1  0  -0.304934  0  3.27507  0  0  -0.22418  0  3.533486  0  0  -0.245125  0  3.555866  0  0  -0.327297  -0.20997  0  3.51796  0
Cl  Cl46  1  0.48693109  0.15410566  0.02965989  1  0  -0.551453  0  0.970414  0  0  -0.484675  0  1.254091  0  0  -0.503093  0  1.234254  0  0  -0.298693  -0.471081  0  1.2677  0
Cl  Cl47  1  0.48692742  0.65410810  0.47033860  1  0  -0.551422  0  0.970431  0  0  -0.484662  0  1.254139  0  0  -0.503071  0  1.234272  0  0  -0.298697  -0.471084  0  1.267776  0
Cl  Cl48  1  0.51306690  0.84589161  0.97034045  1  0  -0.551449  0  0.970406  0  0  -0.484682  0  1.254115  0  0  -0.503102  0  1.234282  0  0  -0.298701  -0.471094  0  1.267731  0
Cl  Cl49  1  0.51305523  0.34589700  0.52966035  1  0  -0.551445  0  0.970441  0  0  -0.48464  0  1.254084  0  0  -0.503063  0  1.234252  0  0  -0.298683  -0.471061  0  1.267725  0
