# generated using pymatgen
data_CdH10C14N4O3
_symmetry_space_group_name_H-M   'P 1'
_cell_length_a   7.28667108
_cell_length_b   10.79581983
_cell_length_c   16.36257568
_cell_angle_alpha   98.32089082
_cell_angle_beta   90.00058226
_cell_angle_gamma   90.00056416
_symmetry_Int_Tables_number   1
_chemical_formula_structural   CdH10C14N4O3
_chemical_formula_sum   'Cd4 H40 C56 N16 O12'
_cell_volume   1273.62169735
_cell_formula_units_Z   4
loop_
 _symmetry_equiv_pos_site_id
 _symmetry_equiv_pos_as_xyz
  1  'x, y, z'
loop_
 _atom_site_type_symbol
 _atom_site_label
 _atom_site_symmetry_multiplicity
 _atom_site_fract_x
 _atom_site_fract_y
 _atom_site_fract_z
 _atom_site_occupancy
 _atom_site_hle17_bader_spin_density
 _atom_site_hle17_ddec_charge
 _atom_site_hle17_ddec_spin_density
 _atom_site_hle17_ddec_sum_bond_order
 _atom_site_hle17_magmom
 _atom_site_hse06_10hf_bader_spin_density
 _atom_site_hse06_10hf_ddec_charge
 _atom_site_hse06_10hf_ddec_spin_density
 _atom_site_hse06_10hf_ddec_sum_bond_order
 _atom_site_hse06_10hf_magmom
 _atom_site_hse06_bader_spin_density
 _atom_site_hse06_ddec_charge
 _atom_site_hse06_ddec_spin_density
 _atom_site_hse06_ddec_sum_bond_order
 _atom_site_hse06_magmom
 _atom_site_pbe_bader_spin_density
 _atom_site_pbe_cm5_charge
 _atom_site_pbe_ddec_charge
 _atom_site_pbe_ddec_spin_density
 _atom_site_pbe_ddec_sum_bond_order
 _atom_site_pbe_magmom
Cd  Cd0  1  0.46702767  0.89619405  0.88272914  1  0  1.085739  0  1.693167  0  0  0.879785  0  2.152335  0  0  0.93493  0  2.103196  0  0  0.790416  0.839736  0  2.186822  0
Cd  Cd1  1  0.96703142  0.60379838  0.11727280  1  0  1.085683  0  1.693127  0  0  0.879784  0  2.152289  0  0  0.934929  0  2.103151  0  0  0.790444  0.839731  0  2.186777  0
Cd  Cd2  1  0.53296145  0.10380435  0.11727031  1  0  1.085698  0  1.693189  0  0  0.879804  0  2.152315  0  0  0.934951  0  2.103173  0  0  0.790433  0.839753  0  2.186799  0
Cd  Cd3  1  0.03296182  0.39619723  0.88272514  1  0  1.085603  0  1.693167  0  0  0.879693  0  2.15233  0  0  0.93484  0  2.103192  0  0  0.790392  0.839639  0  2.186815  0
H  H4  1  0.16240645  0.55949981  0.66506713  1  0  0.10538  0  0.954346  0  0  0.11291  0  1.019915  0  0  0.116366  0  1.017782  0  0  0.103312  0.110431  0  1.021479  0
H  H5  1  0.66239775  0.94049574  0.33493373  1  0  0.105395  0  0.954491  0  0  0.112944  0  1.020018  0  0  0.1164  0  1.017885  0  0  0.103375  0.110463  0  1.021584  0
H  H6  1  0.83761012  0.44049669  0.33493457  1  0  0.105374  0  0.954366  0  0  0.1129  0  1.019927  0  0  0.116357  0  1.017794  0  0  0.103345  0.110423  0  1.021484  0
H  H7  1  0.33759411  0.05951201  0.66506727  1  0  0.105401  0  0.954354  0  0  0.112841  0  1.020016  0  0  0.116297  0  1.017885  0  0  0.10333  0.110367  0  1.021568  0
H  H8  1  0.53913110  0.83552358  0.60125394  1  0  0.095547  0  0.986602  0  0  0.103327  0  1.052214  0  0  0.105882  0  1.051561  0  0  0.100561  0.101486  0  1.052783  0
H  H9  1  0.03912430  0.66448403  0.39875063  1  0  0.095619  0  0.986486  0  0  0.103394  0  1.052127  0  0  0.105951  0  1.051469  0  0  0.100601  0.101552  0  1.052695  0
H  H10  1  0.46087998  0.16447760  0.39874885  1  0  0.095598  0  0.986552  0  0  0.103362  0  1.052201  0  0  0.105921  0  1.051536  0  0  0.100577  0.101521  0  1.052768  0
H  H11  1  0.96087305  0.33552193  0.60124347  1  0  0.095599  0  0.986518  0  0  0.103374  0  1.052157  0  0  0.105928  0  1.051509  0  0  0.100579  0.101533  0  1.052725  0
H  H12  1  0.53747784  0.73655481  0.45666883  1  0  0.081337  0  1.005962  0  0  0.090784  0  1.073249  0  0  0.092718  0  1.074207  0  0  0.094761  0.089414  0  1.072676  0
H  H13  1  0.03748250  0.76346126  0.54333292  1  0  0.081302  0  1.005939  0  0  0.090751  0  1.073234  0  0  0.092699  0  1.074148  0  0  0.094778  0.089384  0  1.072659  0
H  H14  1  0.46252226  0.26345295  0.54333217  1  0  0.081331  0  1.005906  0  0  0.090754  0  1.073229  0  0  0.092699  0  1.074151  0  0  0.094759  0.089385  0  1.072657  0
H  H15  1  0.96252309  0.23654097  0.45665958  1  0  0.081348  0  1.005828  0  0  0.090758  0  1.073196  0  0  0.09271  0  1.0741  0  0  0.094775  0.089391  0  1.072622  0
H  H16  1  0.15238998  0.46140870  0.52067852  1  0  0.08453  0  0.99431  0  0  0.095519  0  1.059598  0  0  0.097903  0  1.059545  0  0  0.0962  0.093666  0  1.060116  0
H  H17  1  0.65238584  0.03859192  0.47932227  1  0  0.084502  0  0.994341  0  0  0.095509  0  1.059615  0  0  0.097895  0  1.059557  0  0  0.096214  0.093654  0  1.060132  0
H  H18  1  0.84762247  0.53858872  0.47932450  1  0  0.084512  0  0.994313  0  0  0.095498  0  1.059612  0  0  0.097886  0  1.05955  0  0  0.096191  0.093645  0  1.06013  0
H  H19  1  0.34761426  0.96141112  0.52068070  1  0  0.084581  0  0.994259  0  0  0.095542  0  1.059578  0  0  0.097927  0  1.059521  0  0  0.096227  0.093688  0  1.060094  0
H  H20  1  0.51616320  0.66743578  0.34216663  1  0  0.082506  0  0.986012  0  0  0.093999  0  1.049076  0  0  0.095985  0  1.049089  0  0  0.098482  0.092619  0  1.049125  0
H  H21  1  0.01616588  0.83257169  0.65783416  1  0  0.082594  0  0.985912  0  0  0.09408  0  1.048973  0  0  0.096064  0  1.048998  0  0  0.098474  0.092695  0  1.049019  0
H  H22  1  0.48383965  0.33256545  0.65783188  1  0  0.082496  0  0.986017  0  0  0.093984  0  1.049105  0  0  0.095961  0  1.049138  0  0  0.09849  0.092608  0  1.049144  0
H  H23  1  0.98385617  0.16743613  0.34216135  1  0  0.082636  0  0.985901  0  0  0.094103  0  1.048991  0  0  0.096089  0  1.049008  0  0  0.09851  0.092719  0  1.049037  0
H  H24  1  0.15376463  0.38050151  0.40675064  1  0  0.080349  0  0.991796  0  0  0.091565  0  1.057116  0  0  0.093669  0  1.05704  0  0  0.097011  0.090053  0  1.057287  0
H  H25  1  0.65376142  0.11949914  0.59324955  1  0  0.080386  0  0.991743  0  0  0.091559  0  1.057126  0  0  0.093661  0  1.057047  0  0  0.097005  0.090045  0  1.057299  0
H  H26  1  0.84624782  0.61950248  0.59325182  1  0  0.080397  0  0.991674  0  0  0.091545  0  1.057101  0  0  0.093641  0  1.057016  0  0  0.097001  0.090032  0  1.057274  0
H  H27  1  0.34624143  0.88049643  0.40675145  1  0  0.080392  0  0.991687  0  0  0.091547  0  1.057094  0  0  0.09365  0  1.057012  0  0  0.097016  0.090032  0  1.057262  0
H  H28  1  0.49088192  0.57940003  0.19641997  1  0  0.107693  0  0.947311  0  0  0.117213  0  1.008926  0  0  0.120315  0  1.00715  0  0  0.103717  0.11494  0  1.010323  0
H  H29  1  0.99089031  0.92060480  0.80358089  1  0  0.107705  0  0.947308  0  0  0.117224  0  1.00891  0  0  0.120327  0  1.007132  0  0  0.10371  0.114931  0  1.01033  0
H  H30  1  0.50909759  0.42060402  0.80357761  1  0  0.107771  0  0.947266  0  0  0.117289  0  1.008871  0  0  0.120394  0  1.007089  0  0  0.103746  0.115003  0  1.010285  0
H  H31  1  0.00911939  0.07939268  0.19641725  1  0  0.107678  0  0.947339  0  0  0.117176  0  1.008969  0  0  0.120296  0  1.007172  0  0  0.103699  0.114876  0  1.010397  0
H  H32  1  0.25388169  0.12000613  0.93543868  1  0  0.377873  0  0.944213  0  0  0.33305  0  1.032018  0  0  0.343731  0  1.016673  0  0  0.277896  0.325443  0  1.042951  0
H  H33  1  0.75388395  0.37999535  0.06456021  1  0  0.377848  0  0.944257  0  0  0.333021  0  1.032068  0  0  0.343703  0  1.016722  0  0  0.277887  0.325412  0  1.043003  0
H  H34  1  0.74611292  0.87999694  0.06456185  1  0  0.377833  0  0.944252  0  0  0.333013  0  1.032055  0  0  0.343694  0  1.016711  0  0  0.277872  0.325407  0  1.042992  0
H  H35  1  0.24610792  0.62000208  0.93544158  1  0  0.377868  0  0.944222  0  0  0.333036  0  1.032046  0  0  0.343718  0  1.0167  0  0  0.277882  0.325427  0  1.042979  0
H  H36  1  0.24799577  0.10251681  0.83922018  1  0  0.436197  0  0.860083  0  0  0.406392  0  0.921745  0  0  0.417421  0  0.905804  0  0  0.290714  0.398563  0  0.933009  0
H  H37  1  0.74799219  0.39748088  0.16077831  1  0  0.436183  0  0.860106  0  0  0.406383  0  0.921758  0  0  0.417412  0  0.905817  0  0  0.290724  0.398555  0  0.933022  0
H  H38  1  0.75199747  0.89748440  0.16077894  1  0  0.436179  0  0.86007  0  0  0.406373  0  0.921743  0  0  0.417402  0  0.905801  0  0  0.290715  0.398545  0  0.933005  0
H  H39  1  0.25200791  0.60251469  0.83922330  1  0  0.436214  0  0.860022  0  0  0.406399  0  0.921707  0  0  0.41743  0  0.905763  0  0  0.290701  0.39857  0  0.93297  0
H  H40  1  0.12684751  0.29455118  0.26053792  1  0  0.094585  0  0.97192  0  0  0.10432  0  1.03762  0  0  0.106826  0  1.036704  0  0  0.101559  0.102347  0  1.038735  0
H  H41  1  0.62684326  0.20544732  0.73946621  1  0  0.094628  0  0.971803  0  0  0.104301  0  1.03757  0  0  0.106808  0  1.036653  0  0  0.10155  0.102327  0  1.038684  0
H  H42  1  0.87314299  0.70545371  0.73946768  1  0  0.09463  0  0.971797  0  0  0.104291  0  1.037584  0  0  0.106799  0  1.036666  0  0  0.101499  0.102317  0  1.038701  0
H  H43  1  0.37314449  0.79454452  0.26053319  1  0  0.094621  0  0.971823  0  0  0.104289  0  1.037605  0  0  0.106797  0  1.036686  0  0  0.101501  0.102314  0  1.038721  0
C  C44  1  0.36027263  0.76898395  0.72985081  1  0  0.634915  0  3.921707  0  0  0.586339  0  4.206869  0  0  0.620669  0  4.202189  0  0  0.197393  0.563126  0  4.209057  0
C  C45  1  0.86025548  0.73101417  0.27015061  1  0  0.63473  0  3.921545  0  0  0.586232  0  4.206601  0  0  0.620556  0  4.201932  0  0  0.197456  0.563027  0  4.208776  0
C  C46  1  0.63973982  0.23100973  0.27015184  1  0  0.634886  0  3.921553  0  0  0.586357  0  4.206671  0  0  0.620682  0  4.201998  0  0  0.197474  0.563143  0  4.208861  0
C  C47  1  0.13973775  0.26899364  0.72984551  1  0  0.634882  0  3.921745  0  0  0.586323  0  4.206917  0  0  0.620655  0  4.202235  0  0  0.197443  0.56311  0  4.209104  0
C  C48  1  0.24089610  0.60019283  0.61884862  1  0  -0.067283  0  3.733237  0  0  -0.089818  0  3.983733  0  0  -0.088199  0  4.002627  0  0  -0.082227  -0.090538  0  3.97069  0
C  C49  1  0.74088788  0.89980527  0.38115041  1  0  -0.067286  0  3.733288  0  0  -0.089857  0  3.983786  0  0  -0.088247  0  4.002697  0  0  -0.082273  -0.090576  0  3.970739  0
C  C50  1  0.75911773  0.39980180  0.38115289  1  0  -0.067334  0  3.733384  0  0  -0.089878  0  3.983862  0  0  -0.088263  0  4.002764  0  0  -0.082283  -0.090595  0  3.970815  0
C  C51  1  0.25910947  0.10019879  0.61884655  1  0  -0.067202  0  3.733135  0  0  -0.089688  0  3.983627  0  0  -0.088068  0  4.002518  0  0  -0.082208  -0.090407  0  3.970582  0
C  C52  1  0.45224292  0.75465210  0.58212802  1  0  -0.060012  0  3.743456  0  0  -0.081816  0  3.989744  0  0  -0.079906  0  4.00896  0  0  -0.08295  -0.082822  0  3.976909  0
C  C53  1  0.95223065  0.74535051  0.41787427  1  0  -0.060139  0  3.743284  0  0  -0.081949  0  3.989513  0  0  -0.080043  0  4.008737  0  0  -0.082992  -0.082954  0  3.976677  0
C  C54  1  0.54776953  0.24534718  0.41787641  1  0  -0.060222  0  3.743442  0  0  -0.082013  0  3.989666  0  0  -0.080104  0  4.00889  0  0  -0.083016  -0.08302  0  3.976833  0
C  C55  1  0.04776945  0.25464984  0.58211865  1  0  -0.060052  0  3.74353  0  0  -0.081847  0  3.989769  0  0  -0.079941  0  4.008991  0  0  -0.082944  -0.082855  0  3.976933  0
C  C56  1  0.44954628  0.69795175  0.50050143  1  0  -0.116631  0  3.726571  0  0  -0.136133  0  3.975822  0  0  -0.140844  0  3.996912  0  0  -0.092062  -0.133024  0  3.961674  0
C  C57  1  0.94954348  0.80205836  0.49949916  1  0  -0.116661  0  3.726567  0  0  -0.136142  0  3.975787  0  0  -0.140848  0  3.996885  0  0  -0.092106  -0.133033  0  3.961638  0
C  C58  1  0.55045931  0.30205416  0.49949755  1  0  -0.116572  0  3.726699  0  0  -0.136044  0  3.975967  0  0  -0.140752  0  3.997067  0  0  -0.09205  -0.132934  0  3.961815  0
C  C59  1  0.05045387  0.19794475  0.50049832  1  0  -0.116776  0  3.726439  0  0  -0.136247  0  3.97571  0  0  -0.140956  0  3.996811  0  0  -0.092139  -0.133139  0  3.961568  0
C  C60  1  0.34741625  0.70741964  0.64247734  1  0  -0.07733  0  3.773423  0  0  -0.053901  0  4.003708  0  0  -0.063251  0  4.026738  0  0  -0.023149  -0.048014  0  3.988324  0
C  C61  1  0.84740328  0.79258023  0.35752541  1  0  -0.0772  0  3.773526  0  0  -0.053707  0  4.003674  0  0  -0.063053  0  4.026707  0  0  -0.023118  -0.047822  0  3.988286  0
C  C62  1  0.65260169  0.29257685  0.35752497  1  0  -0.077198  0  3.773327  0  0  -0.053725  0  4.003511  0  0  -0.063073  0  4.026544  0  0  -0.023092  -0.047837  0  3.988129  0
C  C63  1  0.15259270  0.20742665  0.64247061  1  0  -0.077414  0  3.773501  0  0  -0.053909  0  4.003693  0  0  -0.063255  0  4.026721  0  0  -0.023192  -0.048019  0  3.98831  0
C  C64  1  0.23663496  0.54457105  0.53654341  1  0  -0.116083  0  3.712431  0  0  -0.135495  0  3.961443  0  0  -0.140259  0  3.982351  0  0  -0.091048  -0.132355  0  3.947424  0
C  C65  1  0.73663210  0.95543258  0.46345983  1  0  -0.116093  0  3.712272  0  0  -0.135513  0  3.961303  0  0  -0.140273  0  3.982205  0  0  -0.091108  -0.132372  0  3.947282  0
C  C66  1  0.76337612  0.45543014  0.46345754  1  0  -0.116115  0  3.712385  0  0  -0.1355  0  3.961382  0  0  -0.140261  0  3.982289  0  0  -0.091093  -0.132361  0  3.947363  0
C  C67  1  0.26336937  0.04457142  0.53654141  1  0  -0.116224  0  3.712303  0  0  -0.135599  0  3.961291  0  0  -0.140361  0  3.982195  0  0  -0.091122  -0.132459  0  3.947272  0
C  C68  1  0.34004533  0.59189651  0.47509600  1  0  0.061522  0  3.750175  0  0  0.078723  0  3.973508  0  0  0.081103  0  3.995826  0  0  0.002273  0.077288  0  3.958193  0
C  C69  1  0.84004319  0.90810611  0.52490639  1  0  0.06159  0  3.750296  0  0  0.078776  0  3.973639  0  0  0.081156  0  3.995958  0  0  0.002298  0.077341  0  3.958325  0
C  C70  1  0.65996163  0.40810092  0.52490641  1  0  0.061613  0  3.750326  0  0  0.07876  0  3.97369  0  0  0.081138  0  3.996013  0  0  0.002317  0.077326  0  3.958377  0
C  C71  1  0.15995828  0.09189512  0.47509151  1  0  0.061656  0  3.750161  0  0  0.078861  0  3.97346  0  0  0.081242  0  3.995782  0  0  0.002299  0.077426  0  3.958149  0
C  C72  1  0.33306545  0.53399644  0.38729685  1  0  0.052375  0  3.750076  0  0  0.067061  0  3.976356  0  0  0.067814  0  3.998583  0  0  -0.001223  0.066481  0  3.961248  0
C  C73  1  0.83307020  0.96600614  0.61270429  1  0  0.052303  0  3.75014  0  0  0.066988  0  3.976434  0  0  0.06774  0  3.99866  0  0  -0.001264  0.066406  0  3.96133  0
C  C74  1  0.66693876  0.46600570  0.61270298  1  0  0.052263  0  3.750188  0  0  0.066954  0  3.976489  0  0  0.06771  0  3.998714  0  0  -0.001318  0.066373  0  3.961383  0
C  C75  1  0.16693677  0.03399133  0.38729507  1  0  0.052213  0  3.750206  0  0  0.066895  0  3.976478  0  0  0.067643  0  3.998707  0  0  -0.001316  0.066315  0  3.961371  0
C  C76  1  0.42846260  0.58612072  0.32560881  1  0  -0.087942  0  3.703161  0  0  -0.106621  0  3.951449  0  0  -0.109298  0  3.972378  0  0  -0.082603  -0.104819  0  3.937538  0
C  C77  1  0.92846388  0.91388547  0.67439190  1  0  -0.088046  0  3.703204  0  0  -0.10672  0  3.951491  0  0  -0.109403  0  3.972427  0  0  -0.082599  -0.104903  0  3.937565  0
C  C78  1  0.57153476  0.41388051  0.67438971  1  0  -0.087872  0  3.702886  0  0  -0.10656  0  3.951186  0  0  -0.10924  0  3.972117  0  0  -0.082603  -0.104756  0  3.937277  0
C  C79  1  0.07154033  0.08611481  0.32560713  1  0  -0.088049  0  3.702982  0  0  -0.106718  0  3.951286  0  0  -0.109398  0  3.972222  0  0  -0.082638  -0.104903  0  3.93736  0
C  C80  1  0.22753064  0.42638892  0.36175474  1  0  -0.087591  0  3.712912  0  0  -0.106417  0  3.960909  0  0  -0.109173  0  3.981469  0  0  -0.081713  -0.104395  0  3.94689  0
C  C81  1  0.72752780  0.07361418  0.63824787  1  0  -0.087625  0  3.712886  0  0  -0.106434  0  3.960896  0  0  -0.109183  0  3.981448  0  0  -0.0817  -0.104412  0  3.946879  0
C  C82  1  0.77247358  0.57361228  0.63824622  1  0  -0.087672  0  3.712998  0  0  -0.106452  0  3.961014  0  0  -0.10919  0  3.981557  0  0  -0.081673  -0.104426  0  3.946991  0
C  C83  1  0.27247230  0.92638605  0.36175482  1  0  -0.087579  0  3.712793  0  0  -0.106353  0  3.960788  0  0  -0.109098  0  3.981336  0  0  -0.081667  -0.104328  0  3.946763  0
C  C84  1  0.41471705  0.53679875  0.24248553  1  0  -0.079759  0  3.714924  0  0  -0.104819  0  3.966861  0  0  -0.105641  0  3.986207  0  0  -0.083613  -0.103892  0  3.953608  0
C  C85  1  0.91472225  0.96320260  0.75751769  1  0  -0.079797  0  3.714713  0  0  -0.104863  0  3.966646  0  0  -0.105684  0  3.985989  0  0  -0.083624  -0.103919  0  3.953401  0
C  C86  1  0.58527344  0.46320524  0.75751693  1  0  -0.079952  0  3.714741  0  0  -0.105006  0  3.966704  0  0  -0.105828  0  3.986049  0  0  -0.083661  -0.10407  0  3.953458  0
C  C87  1  0.08528197  0.03679112  0.24248068  1  0  -0.079756  0  3.714903  0  0  -0.104821  0  3.966857  0  0  -0.10566  0  3.986195  0  0  -0.083604  -0.103869  0  3.953617  0
C  C88  1  0.30525592  0.43112460  0.21842330  1  0  -0.007048  0  3.789308  0  0  0.014445  0  4.024424  0  0  0.01157  0  4.046401  0  0  -0.007211  0.016387  0  4.009244  0
C  C89  1  0.80525622  0.06887544  0.78157569  1  0  -0.006923  0  3.789117  0  0  0.014565  0  4.024215  0  0  0.011692  0  4.046194  0  0  -0.007162  0.016507  0  4.00903  0
C  C90  1  0.69473457  0.56887662  0.78157582  1  0  -0.006877  0  3.789236  0  0  0.014583  0  4.024371  0  0  0.011708  0  4.046352  0  0  -0.007158  0.016527  0  4.009185  0
C  C91  1  0.19473976  0.93112389  0.21842508  1  0  -0.006962  0  3.78937  0  0  0.014557  0  4.024421  0  0  0.011683  0  4.046404  0  0  -0.007156  0.016497  0  4.009239  0
C  C92  1  0.27510777  0.38043537  0.13126615  1  0  0.327984  0  3.73248  0  0  0.297419  0  3.999073  0  0  0.31111  0  4.014118  0  0  0.237507  0.288133  0  3.988776  0
C  C93  1  0.77510935  0.11956342  0.86873807  1  0  0.327898  0  3.732634  0  0  0.29733  0  3.999245  0  0  0.31102  0  4.014292  0  0  0.237469  0.288048  0  3.988941  0
C  C94  1  0.72488684  0.61956300  0.86873635  1  0  0.327855  0  3.732691  0  0  0.297303  0  3.99929  0  0  0.310993  0  4.014337  0  0  0.237428  0.288017  0  3.988992  0
C  C95  1  0.22488663  0.88043496  0.13126321  1  0  0.32807  0  3.732623  0  0  0.297505  0  3.999206  0  0  0.311196  0  4.01425  0  0  0.237576  0.288221  0  3.988909  0
C  C96  1  0.21323065  0.37588731  0.27898760  1  0  -0.071816  0  3.71655  0  0  -0.097765  0  3.966482  0  0  -0.098039  0  3.985518  0  0  -0.081673  -0.097396  0  3.953834  0
C  C97  1  0.71323448  0.12410631  0.72101399  1  0  -0.071846  0  3.716798  0  0  -0.097724  0  3.966704  0  0  -0.098  0  3.985744  0  0  -0.081664  -0.097352  0  3.95405  0
C  C98  1  0.78676533  0.62411292  0.72101570  1  0  -0.071755  0  3.716576  0  0  -0.097615  0  3.96644  0  0  -0.09789  0  3.985475  0  0  -0.081552  -0.097246  0  3.953789  0
C  C99  1  0.28676836  0.87588274  0.27898391  1  0  -0.071837  0  3.716582  0  0  -0.097736  0  3.966458  0  0  -0.09801  0  3.985492  0  0  -0.081612  -0.097364  0  3.953806  0
N  N100  1  0.18080389  0.44065352  0.07802281  1  0  -0.327125  0  3.089078  0  0  -0.269487  0  3.366111  0  0  -0.286775  0  3.381148  0  0  -0.226253  -0.25732  0  3.35602  0
N  N101  1  0.68080309  0.05934454  0.92197724  1  0  -0.327122  0  3.089113  0  0  -0.269486  0  3.366154  0  0  -0.286774  0  3.381189  0  0  -0.226209  -0.25732  0  3.35606  0
N  N102  1  0.81919072  0.55934208  0.92197575  1  0  -0.327105  0  3.089189  0  0  -0.269467  0  3.366222  0  0  -0.286756  0  3.381258  0  0  -0.226231  -0.257302  0  3.356131  0
N  N103  1  0.31918328  0.94065667  0.07802310  1  0  -0.327214  0  3.089163  0  0  -0.269578  0  3.366196  0  0  -0.286866  0  3.381228  0  0  -0.226297  -0.25741  0  3.356103  0
N  N104  1  0.32277715  0.26557410  0.09314798  1  0  -0.329413  0  3.087093  0  0  -0.276681  0  3.378574  0  0  -0.294966  0  3.392179  0  0  -0.218251  -0.263892  0  3.369424  0
N  N105  1  0.82278666  0.23442046  0.90685115  1  0  -0.329223  0  3.08699  0  0  -0.276487  0  3.378449  0  0  -0.294772  0  3.392057  0  0  -0.218154  -0.263694  0  3.369286  0
N  N106  1  0.67721609  0.73442242  0.90685189  1  0  -0.329293  0  3.087047  0  0  -0.276563  0  3.378524  0  0  -0.294848  0  3.392132  0  0  -0.21815  -0.263772  0  3.369369  0
N  N107  1  0.17721481  0.76557509  0.09315168  1  0  -0.329362  0  3.087162  0  0  -0.27665  0  3.378617  0  0  -0.294935  0  3.392223  0  0  -0.218247  -0.26386  0  3.369465  0
N  N108  1  0.25680234  0.25617200  0.01599837  1  0  -0.062632  0  3.055639  0  0  -0.042201  0  3.329676  0  0  -0.040916  0  3.342793  0  0  -0.076007  -0.042817  0  3.320874  0
N  N109  1  0.75681370  0.24382670  0.98400026  1  0  -0.062823  0  3.05551  0  0  -0.042396  0  3.329575  0  0  -0.04111  0  3.342691  0  0  -0.076116  -0.043013  0  3.320771  0
N  N110  1  0.74319364  0.74382360  0.98400079  1  0  -0.062731  0  3.055601  0  0  -0.042305  0  3.329656  0  0  -0.04102  0  3.342773  0  0  -0.076064  -0.042922  0  3.320861  0
N  N111  1  0.24318777  0.75616979  0.01600206  1  0  -0.062733  0  3.055504  0  0  -0.04226  0  3.329543  0  0  -0.040975  0  3.342659  0  0  -0.07603  -0.042878  0  3.320735  0
N  N112  1  0.17194253  0.36040288  0.00718980  1  0  -0.098184  0  3.181549  0  0  -0.052338  0  3.473639  0  0  -0.060337  0  3.489214  0  0  -0.105081  -0.04658  0  3.4628  0
N  N113  1  0.67194580  0.13959699  0.99280918  1  0  -0.098131  0  3.181389  0  0  -0.052287  0  3.473484  0  0  -0.060286  0  3.489058  0  0  -0.105088  -0.04653  0  3.462647  0
N  N114  1  0.82805345  0.63959272  0.99280876  1  0  -0.098178  0  3.18153  0  0  -0.052329  0  3.473626  0  0  -0.060327  0  3.4892  0  0  -0.105114  -0.046572  0  3.462791  0
N  N115  1  0.32804332  0.86040234  0.00719098  1  0  -0.098188  0  3.1814  0  0  -0.052367  0  3.473503  0  0  -0.060364  0  3.489074  0  0  -0.105129  -0.046607  0  3.462664  0
O  O116  1  0.26804844  0.72889813  0.78687966  1  0  -0.66363  0  1.955412  0  0  -0.599103  0  2.183863  0  0  -0.626103  0  2.17311  0  0  -0.332956  -0.580109  0  2.190538  0
O  O117  1  0.76802645  0.77109641  0.21312220  1  0  -0.663551  0  1.95538  0  0  -0.599051  0  2.183795  0  0  -0.626047  0  2.173049  0  0  -0.332982  -0.580059  0  2.190464  0
O  O118  1  0.73196813  0.27109461  0.21312289  1  0  -0.663683  0  1.955388  0  0  -0.599194  0  2.183837  0  0  -0.626191  0  2.173088  0  0  -0.333053  -0.580199  0  2.190512  0
O  O119  1  0.23195169  0.22890481  0.78687631  1  0  -0.663656  0  1.955588  0  0  -0.599122  0  2.184024  0  0  -0.62612  0  2.173269  0  0  -0.332983  -0.580125  0  2.1907  0
O  O120  1  0.46871803  0.86337114  0.74462029  1  0  -0.623042  0  1.995764  0  0  -0.549669  0  2.24023  0  0  -0.581169  0  2.23519  0  0  -0.328399  -0.527753  0  2.243113  0
O  O121  1  0.96870199  0.63662880  0.25538180  1  0  -0.62284  0  1.995413  0  0  -0.549645  0  2.240039  0  0  -0.581146  0  2.235002  0  0  -0.328426  -0.52773  0  2.242918  0
O  O122  1  0.53129030  0.13662631  0.25538029  1  0  -0.622931  0  1.995606  0  0  -0.54967  0  2.240154  0  0  -0.581172  0  2.235117  0  0  -0.328417  -0.527756  0  2.243037  0
O  O123  1  0.03129673  0.36337904  0.74461187  1  0  -0.622801  0  1.995504  0  0  -0.549592  0  2.240151  0  0  -0.581094  0  2.235114  0  0  -0.328377  -0.527677  0  2.243034  0
O  O124  1  0.24745800  0.05381596  0.88646331  1  0  -0.833031  0  1.90952  0  0  -0.770544  0  2.115439  0  0  -0.793113  0  2.082027  0  0  -0.595349  -0.754365  0  2.138573  0
O  O125  1  0.74744854  0.44618359  0.11353658  1  0  -0.832973  0  1.909528  0  0  -0.770487  0  2.115429  0  0  -0.793054  0  2.082018  0  0  -0.595367  -0.754291  0  2.138546  0
O  O126  1  0.75253661  0.94618712  0.11353661  1  0  -0.832956  0  1.909513  0  0  -0.770475  0  2.115395  0  0  -0.793044  0  2.081984  0  0  -0.595321  -0.754284  0  2.138484  0
O  O127  1  0.25254195  0.55381290  0.88646573  1  0  -0.833017  0  1.909436  0  0  -0.770523  0  2.115334  0  0  -0.793095  0  2.081919  0  0  -0.595331  -0.75432  0  2.138444  0
