# generated using pymatgen
data_Zn3H28(C10O3)4
_symmetry_space_group_name_H-M   'P 1'
_cell_length_a   21.95173011
_cell_length_b   21.96030641
_cell_length_c   22.18677529
_cell_angle_alpha   60.55172070
_cell_angle_beta   60.81654789
_cell_angle_gamma   89.92500893
_symmetry_Int_Tables_number   1
_chemical_formula_structural   Zn3H28(C10O3)4
_chemical_formula_sum   'Zn6 H56 C80 O24'
_cell_volume   7721.21528632
_cell_formula_units_Z   2
loop_
 _symmetry_equiv_pos_site_id
 _symmetry_equiv_pos_as_xyz
  1  'x, y, z'
loop_
 _atom_site_type_symbol
 _atom_site_label
 _atom_site_symmetry_multiplicity
 _atom_site_fract_x
 _atom_site_fract_y
 _atom_site_fract_z
 _atom_site_occupancy
 _atom_site_pbe_bader_charge
 _atom_site_pbe_bader_spin_density
 _atom_site_pbe_cm5_charge
 _atom_site_pbe_ddec_charge
 _atom_site_pbe_ddec_spin_density
 _atom_site_pbe_ddec_sum_bond_order
 _atom_site_pbe_magmom
Zn  Zn0  1  0.94204323  0.50236807  0.49885863  1  1.293789  0  0.735203  0.968487  0  2.076893  0
Zn  Zn1  1  0.05795522  0.49762901  0.50113194  1  1.293298  0  0.73529  0.968622  0  2.076541  0
Zn  Zn2  1  0.50204627  0.05781692  0.50125908  1  1.295468  0  0.734133  0.970936  0  2.07786  0
Zn  Zn3  1  0.49794604  0.94219060  0.49873119  1  1.295523  0  0.734239  0.971126  0  2.077613  0
Zn  Zn4  1  0.95763906  0.95802954  0.57973521  1  1.292885  0  0.733267  0.967933  0  2.091693  0
Zn  Zn5  1  0.04234876  0.04196528  0.42027239  1  1.291882  0  0.733243  0.967868  0  2.091749  0
H  H6  1  0.08936479  0.04800111  0.71141590  1  0.055368  0  0.102356  0.098351  0  0.990291  0
H  H7  1  0.35991217  0.72649144  0.92507331  1  0.015128  0  0.095282  0.094895  0  0.977096  0
H  H8  1  0.70030912  0.11430742  0.07212040  1  0.032593  0  0.095099  0.094039  0  0.987216  0
H  H9  1  0.30028288  0.88562832  0.92781601  1  0.04055  0  0.095275  0.094446  0  0.98803  0
H  H10  1  0.12885242  0.69938544  0.36814372  1  0.08819  0  0.099096  0.108676  0  1.023823  0
H  H11  1  0.87114772  0.30061213  0.63186158  1  0.08786  0  0.099051  0.108633  0  1.023815  0
H  H12  1  0.24260900  0.80403092  0.26414633  1  0.059949  0  0.100311  0.096184  0  0.994332  0
H  H13  1  0.75738727  0.19597102  0.73586411  1  0.060305  0  0.100315  0.096199  0  0.994325  0
H  H14  1  0.25169912  0.91386659  0.27101621  1  0.040331  0  0.099198  0.094278  0  0.995877  0
H  H15  1  0.74829142  0.08613370  0.72899735  1  0.040034  0  0.09916  0.094296  0  0.99598  0
H  H16  1  0.14384320  0.92076112  0.37686969  1  0.080085  0  0.098797  0.1104  0  1.032275  0
H  H17  1  0.91062764  0.95201023  0.28858283  1  0.055523  0  0.102436  0.098399  0  0.990224  0
H  H18  1  0.85614563  0.07923532  0.62314430  1  0.080179  0  0.098829  0.110419  0  1.032218  0
H  H19  1  0.08177957  0.03316608  0.61208117  1  0.072629  0  0.10118  0.113706  0  1.020534  0
H  H20  1  0.91821272  0.96683975  0.38791895  1  0.072267  0  0.10122  0.113776  0  1.020511  0
H  H21  1  0.89907956  0.75580420  0.60628712  1  0.100224  0  0.106762  0.115839  0  0.997885  0
H  H22  1  0.10090380  0.24418626  0.39371257  1  0.099603  0  0.106717  0.115761  0  0.998068  0
H  H23  1  0.23961817  0.98684870  0.40559499  1  0.078131  0  0.106538  0.111014  0  0.993363  0
H  H24  1  0.76036282  0.01315769  0.59440579  1  0.07816  0  0.106555  0.111027  0  0.99348  0
H  H25  1  0.34948619  0.97686971  0.41322218  1  0.090788  0  0.10883  0.114308  0  0.984765  0
H  H26  1  0.65049366  0.02312292  0.58678400  1  0.090694  0  0.108895  0.114456  0  0.984915  0
H  H27  1  0.30018073  0.01229824  0.62809317  1  0.07818  0  0.100336  0.111929  0  1.023185  0
H  H28  1  0.77602503  0.18825987  0.92611053  1  0.025213  0  0.094778  0.093241  0  0.97773  0
H  H29  1  0.69980588  0.98769603  0.37191393  1  0.078094  0  0.100368  0.111924  0  1.023223  0
H  H30  1  0.19724266  0.03353380  0.72260707  1  0.06937  0  0.10157  0.097846  0  0.99155  0
H  H31  1  0.80274999  0.96647150  0.27738998  1  0.069462  0  0.10158  0.097855  0  0.991501  0
H  H32  1  0.78122581  0.38318976  0.92817928  1  0.042025  0  0.095088  0.094629  0  0.975268  0
H  H33  1  0.21816959  0.61680401  0.07182473  1  0.040916  0  0.095376  0.094819  0  0.975073  0
H  H34  1  0.87587003  0.24013664  0.92795370  1  0.04208  0  0.095107  0.097323  0  0.982065  0
H  H35  1  0.12438495  0.76039721  0.07201452  1  0.035182  0  0.095246  0.097829  0  0.981933  0
H  H36  1  0.88087037  0.32076391  0.92711360  1  0.056921  0  0.096108  0.098133  0  0.97702  0
H  H37  1  0.11896249  0.67976375  0.07290101  1  0.03271  0  0.095959  0.097772  0  0.976606  0
H  H38  1  0.80598178  0.25330805  0.07112065  1  0.02638  0  0.097308  0.063293  0  0.954961  0
H  H39  1  0.22456857  0.81171645  0.07384195  1  0.033297  0  0.094682  0.093116  0  0.977317  0
H  H40  1  0.19383778  0.74719002  0.92887367  1  0.027113  0  0.097024  0.063315  0  0.955132  0
H  H41  1  0.70802846  0.23105904  0.92505725  1  0.047066  0  0.094658  0.093055  0  0.977456  0
H  H42  1  0.29233876  0.76854488  0.07488521  1  0.035373  0  0.094742  0.093363  0  0.977253  0
H  H43  1  0.88246577  0.57324437  0.65709007  1  0.05306  0  0.094352  0.136319  0  0.989897  0
H  H44  1  0.83469433  0.63454057  0.67414112  1  0.019191  0  0.092959  0.126909  0  0.997732  0
H  H45  1  0.84313110  0.61679175  0.60061607  1  0.067746  0  0.097167  0.142672  0  0.987409  0
H  H46  1  0.11752922  0.42674829  0.34290656  1  0.053133  0  0.094379  0.136332  0  0.989845  0
H  H47  1  0.15686356  0.38319816  0.39938205  1  0.06797  0  0.097208  0.142762  0  0.987338  0
H  H48  1  0.16529652  0.36544713  0.32585855  1  0.019276  0  0.09287  0.126783  0  0.997826  0
H  H49  1  0.71227984  0.30907434  0.07403587  1  0.037369  0  0.095713  0.092965  0  0.979766  0
H  H50  1  0.63483906  0.16042842  0.07088118  1  0.024664  0  0.094895  0.093635  0  0.976624  0
H  H51  1  0.28720390  0.69089518  0.92598926  1  0.03166  0  0.09566  0.093465  0  0.979361  0
H  H52  1  0.80767993  0.11778411  0.06266808  1  0.009875  0  0.085447  0.112849  0  1.013473  0
H  H53  1  0.87471674  0.16532308  0.06039612  1  0.015019  0  0.090023  0.122822  0  0.994846  0
H  H54  1  0.78379290  0.11764665  0.15195983  1  0.062652  0  0.08704  0.120809  0  1.016322  0
H  H55  1  0.19293927  0.88267217  0.93732397  1  0.015744  0  0.085225  0.112126  0  1.013988  0
H  H56  1  0.21656104  0.88294925  0.84801459  1  0.016242  0  0.087122  0.120675  0  1.016581  0
H  H57  1  0.12562469  0.83553204  0.93959439  1  0.020419  0  0.089872  0.122404  0  0.995384  0
H  H58  1  0.36550919  0.83915132  0.92906589  1  0.023669  0  0.094912  0.093755  0  0.976252  0
H  H59  1  0.70990197  0.34480043  0.92900125  1  0.02712  0  0.094966  0.093698  0  0.975776  0
H  H60  1  0.28970621  0.65471465  0.07105530  1  0.032386  0  0.094929  0.093737  0  0.97563  0
H  H61  1  0.63975225  0.27307042  0.07496013  1  0.018431  0  0.095069  0.094364  0  0.976426  0
C  C62  1  0.99985171  0.61891854  0.49795143  1  1.557263  0  0.228  0.619173  0  4.140135  0
C  C63  1  0.28738192  0.79305482  0.91824224  1  0.117617  0  0.002211  0.13144  0  3.874466  0
C  C64  1  0.69338172  0.16911363  0.04717639  1  -0.042781  0  -0.15294  -0.183036  0  3.851736  0
C  C65  1  0.30698210  0.83071991  0.95276914  1  -0.051568  0  -0.153338  -0.18409  0  3.85304  0
C  C66  1  0.74184988  0.21730941  0.95065388  1  0.001099  0  -0.152479  -0.186459  0  3.85025  0
C  C67  1  0.25851878  0.78255489  0.04929065  1  0.006343  0  -0.15237  -0.186013  0  3.848756  0
C  C68  1  0.66677751  0.16182317  0.17226945  1  -0.085839  0  -0.011426  -0.01114  0  4.025783  0
C  C69  1  0.33325450  0.83816951  0.82772381  1  -0.08435  0  -0.011456  -0.010973  0  4.025591  0
C  C70  1  0.83726223  0.33550014  0.82802296  1  -0.286637  0  -0.01274  -0.016383  0  4.020436  0
C  C71  1  0.16274563  0.66455246  0.17196009  1  -0.286283  0  -0.01268  -0.016275  0  4.019771  0
C  C72  1  0.87419771  0.37421089  0.75214054  1  0.043834  0  -0.063243  -0.228463  0  4.004314  0
C  C73  1  0.00016566  0.38107243  0.50205689  1  1.557941  0  0.228144  0.619327  0  4.139691  0
C  C74  1  0.12579014  0.62580922  0.24786065  1  0.04375  0  -0.063403  -0.228767  0  4.00337  0
C  C75  1  0.13137998  0.74767517  0.37040135  1  0.012906  0  -0.095542  -0.133635  0  3.978874  0
C  C76  1  0.86862015  0.25231908  0.62961097  1  0.012908  0  -0.095478  -0.133066  0  3.979242  0
C  C77  1  0.91916424  0.41961652  0.66238189  1  1.624575  0  0.22165  0.67732  0  4.235816  0
C  C78  1  0.08080951  0.58038163  0.33761643  1  1.623409  0  0.221497  0.677099  0  4.235136  0
C  C79  1  0.19539843  0.80624267  0.31234583  1  -0.120391  0  -0.096735  -0.086895  0  4.063048  0
C  C80  1  0.80459840  0.19375267  0.68766755  1  -0.120301  0  -0.096716  -0.086843  0  4.062862  0
C  C81  1  0.20029487  0.86843210  0.31582113  1  -0.040503  0  -0.097784  -0.089133  0  4.06618  0
C  C82  1  0.79969656  0.13156269  0.68419511  1  -0.040829  0  -0.097823  -0.089311  0  4.066411  0
C  C83  1  0.14020690  0.87226592  0.37532623  1  0.013725  0  -0.096371  -0.135077  0  3.99118  0
C  C84  1  0.62701766  0.12473561  0.24807700  1  -0.222021  0  -0.061232  -0.227588  0  3.993253  0
C  C85  1  0.85978262  0.12773107  0.62468761  1  0.01335  0  -0.096355  -0.134941  0  3.991049  0
C  C86  1  0.07265345  0.81367325  0.43507454  1  -0.041264  0  -0.001165  0.05863  0  3.950796  0
C  C87  1  0.92733799  0.18632320  0.56493729  1  -0.041019  0  -0.001092  0.059062  0  3.951011  0
C  C88  1  0.06896898  0.74864301  0.43440443  1  0.010255  0  0.000406  0.065985  0  3.956876  0
C  C89  1  0.93102907  0.25135123  0.56561025  1  0.010321  0  0.000386  0.064392  0  3.959069  0
C  C90  1  0.00284603  0.68748123  0.49700925  1  -0.029045  0  -0.008016  -0.12541  0  3.875695  0
C  C91  1  0.99715500  0.31250751  0.50300711  1  -0.028673  0  -0.00793  -0.124778  0  3.875887  0
C  C92  1  0.94162267  0.68912124  0.55886552  1  0.004096  0  -0.001085  0.156781  0  3.966713  0
C  C93  1  0.05837127  0.31086644  0.44114169  1  0.003351  0  -0.001027  0.156782  0  3.966472  0
C  C94  1  0.94634192  0.75349840  0.55825387  1  -0.043974  0  -0.08235  -0.153766  0  3.954467  0
C  C95  1  0.37298333  0.87527633  0.75190832  1  -0.223698  0  -0.061232  -0.227761  0  3.993085  0
C  C96  1  0.05364766  0.24649369  0.44174879  1  -0.043715  0  -0.082388  -0.153812  0  3.954619  0
C  C97  1  0.00864343  0.81462393  0.49830375  1  -0.00497  0  -0.012531  -0.068238  0  3.952668  0
C  C98  1  0.99134665  0.18536812  0.50170771  1  -0.004392  0  -0.012575  -0.068076  0  3.952371  0
C  C99  1  0.30458063  0.98774051  0.45392248  1  -0.078453  0  -0.082959  -0.095888  0  4.002769  0
C  C100  1  0.69540128  0.01225375  0.54608597  1  -0.077526  0  -0.083156  -0.096383  0  4.003102  0
C  C101  1  0.12967987  0.02854581  0.61515907  1  -0.020046  0  -0.09395  -0.133425  0  3.980811  0
C  C102  1  0.87031051  0.97145892  0.38484295  1  -0.019211  0  -0.09392  -0.133474  0  3.980886  0
C  C103  1  0.30980098  0.99729394  0.50866125  1  0.009873  0  -0.00736  -0.062877  0  3.925253  0
C  C104  1  0.69018649  0.00270309  0.49134229  1  0.0095  0  -0.007336  -0.062797  0  3.925188  0
C  C105  1  0.37967109  0.99618623  0.50470969  1  1.549624  0  0.225352  0.610727  0  4.143052  0
C  C106  1  0.79299815  0.28964371  0.91855021  1  0.11719  0  0.000367  0.168725  0  3.909089  0
C  C107  1  0.62031817  0.00380644  0.49528745  1  1.547971  0  0.225364  0.610796  0  4.143083  0
C  C108  1  0.58042279  0.07945223  0.33778718  1  1.633726  0  0.222169  0.681472  0  4.223175  0
C  C109  1  0.41956651  0.92056409  0.66220208  1  1.633703  0  0.222364  0.681633  0  4.223269  0
C  C110  1  0.11932331  0.00567411  0.49772180  1  1.549286  0  0.224185  0.609795  0  4.14826  0
C  C111  1  0.88066289  0.99432895  0.50228393  1  1.548929  0  0.224183  0.609724  0  4.148053  0
C  C112  1  0.00433242  0.88082346  0.50179115  1  1.536292  0  0.222786  0.60592  0  4.139122  0
C  C113  1  0.99565348  0.11917025  0.49821972  1  1.536332  0  0.222558  0.605548  0  4.13905  0
C  C114  1  0.18703974  0.01381556  0.56148559  1  -0.014081  0  0.001976  0.060734  0  3.941114  0
C  C115  1  0.81294960  0.98618917  0.43851602  1  -0.014455  0  0.001892  0.060772  0  3.941109  0
C  C116  1  0.25256417  0.01649080  0.62440413  1  -0.034762  0  -0.093409  -0.133888  0  3.979886  0
C  C117  1  0.20701576  0.71040499  0.08144533  1  0.116475  0  0.000514  0.168469  0  3.909046  0
C  C118  1  0.74742433  0.98350623  0.37560026  1  -0.035047  0  -0.093421  -0.13388  0  3.980017  0
C  C119  1  0.19506225  0.02886472  0.67689776  1  -0.042839  0  -0.094498  -0.085464  0  4.052018  0
C  C120  1  0.80492780  0.97113727  0.32310349  1  -0.042604  0  -0.094406  -0.085334  0  4.051831  0
C  C121  1  0.13379586  0.03628358  0.67119078  1  -0.039517  0  -0.093511  -0.084387  0  4.051804  0
C  C122  1  0.86619710  0.96372776  0.32880635  1  -0.039843  0  -0.093719  -0.084577  0  4.05157  0
C  C123  1  0.24279542  0.99304274  0.44989874  1  0.023724  0  -0.083942  -0.098132  0  4.006884  0
C  C124  1  0.75718959  0.00695979  0.55010332  1  0.023925  0  -0.08396  -0.098069  0  4.007084  0
C  C125  1  0.18466399  0.00499704  0.50284936  1  -0.041303  0  -0.007779  -0.063574  0  3.931363  0
C  C126  1  0.81532084  0.99500493  0.49715441  1  -0.041603  0  -0.007712  -0.063409  0  3.931114  0
C  C127  1  0.25116508  0.00997506  0.56437472  1  0.007278  0  0.001943  0.064441  0  3.93708  0
C  C128  1  0.69868021  0.28247531  0.04929761  1  0.001623  0  -0.152564  -0.186906  0  3.86269  0
C  C129  1  0.74882463  0.99002748  0.43562508  1  0.006854  0  0.00193  0.064353  0  3.937203  0
C  C130  1  0.74507948  0.33095506  0.95281547  1  -0.04577  0  -0.150953  -0.183676  0  3.84953  0
C  C131  1  0.25456117  0.66886993  0.04721956  1  -0.049195  0  -0.151135  -0.183141  0  3.849495  0
C  C132  1  0.84242315  0.26978666  0.95219405  1  -0.082579  0  -0.152004  -0.22808  0  3.824411  0
C  C133  1  0.15761437  0.73061581  0.04780220  1  -0.051985  0  -0.151827  -0.228013  0  3.823337  0
C  C134  1  0.79585179  0.22158581  0.04913131  1  0.048278  0  -0.07709  0.041425  0  3.77984  0
C  C135  1  0.20420532  0.77880076  0.95085374  1  0.035939  0  -0.076821  0.041045  0  3.779441  0
C  C136  1  0.87174936  0.62508376  0.62636358  1  -0.054177  0  -0.237159  -0.411269  0  3.96633  0
C  C137  1  0.12824183  0.37490505  0.37363630  1  -0.054252  0  -0.237139  -0.411223  0  3.966295  0
C  C138  1  0.81628880  0.15139074  0.08338819  1  -0.071578  0  -0.243425  -0.395396  0  3.958463  0
C  C139  1  0.30100698  0.71735685  0.95073096  1  0.010084  0  -0.152831  -0.188897  0  3.865335  0
C  C140  1  0.18406883  0.84919857  0.91658585  1  -0.025004  0  -0.243259  -0.393908  0  3.958557  0
C  C141  1  0.71265876  0.20694393  0.08174390  1  0.116395  0  0.002021  0.131061  0  3.873197  0
O  O142  1  0.94812287  0.59518773  0.49606614  1  -1.145454  0  -0.306413  -0.537345  0  2.272173  0
O  O143  1  0.95113457  0.41121753  0.49844135  1  -1.146265  0  -0.309238  -0.551107  0  2.297136  0
O  O144  1  0.88549829  0.43939617  0.62542868  1  -1.146505  0  -0.316863  -0.557938  0  2.222087  0
O  O145  1  0.11446576  0.56059426  0.37457851  1  -1.145706  0  -0.316877  -0.557929  0  2.222279  0
O  O146  1  0.98870402  0.43609713  0.62746476  1  -1.142398  0  -0.312978  -0.542695  0  2.221653  0
O  O147  1  0.01126585  0.56388510  0.37253007  1  -1.141718  0  -0.312936  -0.542474  0  2.220974  0
O  O148  1  0.40901260  0.04684086  0.50422915  1  -1.153809  0  -0.310747  -0.555512  0  2.306983  0
O  O149  1  0.59098553  0.95315514  0.49575850  1  -1.152616  0  -0.31078  -0.55562  0  2.306998  0
O  O150  1  0.40593142  0.94556694  0.49987754  1  -1.141928  0  -0.313903  -0.543228  0  2.259904  0
O  O151  1  0.59404881  0.05442020  0.50012796  1  -1.1418  0  -0.313836  -0.543149  0  2.259877  0
O  O152  1  0.56310871  0.11251807  0.37503812  1  -1.118714  0  -0.314149  -0.549424  0  2.218218  0
O  O153  1  0.05190048  0.40479890  0.50392880  1  -1.146129  0  -0.306582  -0.53747  0  2.271932  0
O  O154  1  0.43688823  0.88750266  0.62494578  1  -1.118678  0  -0.314389  -0.549574  0  2.21836  0
O  O155  1  0.56070584  0.00976674  0.37231584  1  -1.118579  0  -0.316197  -0.550923  0  2.215188  0
O  O156  1  0.43927043  0.99024791  0.62767870  1  -1.118641  0  -0.316171  -0.550856  0  2.215049  0
O  O157  1  0.05591899  0.96923329  0.56633723  1  -1.165034  0  -0.311076  -0.555388  0  2.310786  0
O  O158  1  0.94406774  0.03076813  0.43366905  1  -1.16455  0  -0.310985  -0.555318  0  2.310532  0
O  O159  1  0.13202794  0.04127975  0.42451342  1  -1.142719  0  -0.317474  -0.548544  0  2.258867  0
O  O160  1  0.86795932  0.95872167  0.57549124  1  -1.142504  0  -0.317522  -0.548536  0  2.258907  0
O  O161  1  0.96447885  0.86949938  0.57407287  1  -1.145364  0  -0.316267  -0.545057  0  2.267983  0
O  O162  1  0.03550618  0.13049487  0.42593769  1  -1.145771  0  -0.316244  -0.544974  0  2.267991  0
O  O163  1  0.03888583  0.94423722  0.43242073  1  -1.153339  0  -0.312775  -0.55767  0  2.324514  0
O  O164  1  0.96109869  0.05575539  0.56759134  1  -1.153032  0  -0.312645  -0.557498  0  2.32429  0
O  O165  1  0.04887598  0.58877671  0.50157454  1  -1.146845  0  -0.309116  -0.550996  0  2.297211  0
