# generated using pymatgen
data_SnH17C16ClO2
_symmetry_space_group_name_H-M   'P 1'
_cell_length_a   8.65431009
_cell_length_b   8.65428374
_cell_length_c   10.82716875
_cell_angle_alpha   92.58109459
_cell_angle_beta   92.58122351
_cell_angle_gamma   91.28087215
_symmetry_Int_Tables_number   1
_chemical_formula_structural   SnH17C16ClO2
_chemical_formula_sum   'Sn2 H34 C32 Cl2 O4'
_cell_volume   809.03469733
_cell_formula_units_Z   2
loop_
 _symmetry_equiv_pos_site_id
 _symmetry_equiv_pos_as_xyz
  1  'x, y, z'
loop_
 _atom_site_type_symbol
 _atom_site_label
 _atom_site_symmetry_multiplicity
 _atom_site_fract_x
 _atom_site_fract_y
 _atom_site_fract_z
 _atom_site_occupancy
 _atom_site_hle17_bader_spin_density
 _atom_site_hle17_ddec_charge
 _atom_site_hle17_ddec_spin_density
 _atom_site_hle17_ddec_sum_bond_order
 _atom_site_hle17_magmom
 _atom_site_hse06_10hf_bader_spin_density
 _atom_site_hse06_10hf_ddec_charge
 _atom_site_hse06_10hf_ddec_spin_density
 _atom_site_hse06_10hf_ddec_sum_bond_order
 _atom_site_hse06_10hf_magmom
 _atom_site_hse06_bader_spin_density
 _atom_site_hse06_ddec_charge
 _atom_site_hse06_ddec_spin_density
 _atom_site_hse06_ddec_sum_bond_order
 _atom_site_hse06_magmom
 _atom_site_pbe_bader_spin_density
 _atom_site_pbe_cm5_charge
 _atom_site_pbe_ddec_charge
 _atom_site_pbe_ddec_spin_density
 _atom_site_pbe_ddec_sum_bond_order
 _atom_site_pbe_magmom
Sn  Sn0  1  0.05334407  0.94139440  0.49577786  1  0  1.228432  0  2.849824  0  0  1.056843  0  3.316749  0  0  1.099268  0  3.302619  0  0  0.534084  1.028162  0  3.325658  0
Sn  Sn1  1  0.94139509  0.05334385  0.99577852  1  0  1.2284  0  2.849837  0  0  1.056805  0  3.316759  0  0  1.099235  0  3.302617  0  0  0.534085  1.02813  0  3.325674  0
H  H2  1  0.99287077  0.68691814  0.27693869  1  0  0.076772  0  0.96595  0  0  0.089554  0  1.027926  0  0  0.091753  0  1.027158  0  0  0.095187  0.087883  0  1.028635  0
H  H3  1  0.68691790  0.99287317  0.77693736  1  0  0.076803  0  0.965946  0  0  0.089577  0  1.027925  0  0  0.091776  0  1.027155  0  0  0.095218  0.087901  0  1.028636  0
H  H4  1  0.15352119  0.52768057  0.13844212  1  0  0.084012  0  0.95384  0  0  0.095992  0  1.012007  0  0  0.098604  0  1.011478  0  0  0.096242  0.094101  0  1.012524  0
H  H5  1  0.52767980  0.15352619  0.63844336  1  0  0.083974  0  0.953833  0  0  0.095943  0  1.012011  0  0  0.098555  0  1.011483  0  0  0.096203  0.094053  0  1.012526  0
H  H6  1  0.43933645  0.55514252  0.15542505  1  0  0.079666  0  0.983739  0  0  0.088447  0  1.050135  0  0  0.09065  0  1.049904  0  0  0.09414  0.086888  0  1.050304  0
H  H7  1  0.55514594  0.43934191  0.65542805  1  0  0.079714  0  0.983751  0  0  0.08849  0  1.050157  0  0  0.090694  0  1.049924  0  0  0.094155  0.086935  0  1.050311  0
H  H8  1  0.56654275  0.73440663  0.31772979  1  0  0.073927  0  0.984807  0  0  0.086265  0  1.047141  0  0  0.088297  0  1.046886  0  0  0.091914  0.084693  0  1.0476  0
H  H9  1  0.73440978  0.56654631  0.81773369  1  0  0.073895  0  0.984864  0  0  0.086258  0  1.047179  0  0  0.088289  0  1.046925  0  0  0.091913  0.084685  0  1.047632  0
H  H10  1  0.40853180  0.88863608  0.46011938  1  0  0.078297  0  0.949681  0  0  0.0925  0  1.007571  0  0  0.095126  0  1.006219  0  0  0.098052  0.09045  0  1.008903  0
H  H11  1  0.88863931  0.40853085  0.96012065  1  0  0.078342  0  0.94961  0  0  0.092528  0  1.007516  0  0  0.095164  0  1.006153  0  0  0.098059  0.090469  0  1.00886  0
H  H12  1  0.99598070  0.22315516  0.68995846  1  0  0.079757  0  0.990526  0  0  0.087784  0  1.061103  0  0  0.089438  0  1.062023  0  0  0.092926  0.086505  0  1.060628  0
H  H13  1  0.22315693  0.99597856  0.18995790  1  0  0.079754  0  0.990575  0  0  0.087778  0  1.061155  0  0  0.089438  0  1.06206  0  0  0.092934  0.086502  0  1.060681  0
H  H14  1  0.09079617  0.49474395  0.72041863  1  0  0.078974  0  0.950898  0  0  0.093266  0  1.006144  0  0  0.095595  0  1.005808  0  0  0.094717  0.091628  0  1.006396  0
H  H15  1  0.49474540  0.09079546  0.22041924  1  0  0.078945  0  0.950947  0  0  0.093236  0  1.006198  0  0  0.095566  0  1.005862  0  0  0.094697  0.091604  0  1.006445  0
H  H16  1  0.29052644  0.59822104  0.58683307  1  0  0.086149  0  0.995472  0  0  0.089402  0  1.070866  0  0  0.092503  0  1.069217  0  0  0.091067  0.08713  0  1.072171  0
H  H17  1  0.59821937  0.29052714  0.08683352  1  0  0.086183  0  0.995461  0  0  0.089442  0  1.070849  0  0  0.092537  0  1.06921  0  0  0.091103  0.087174  0  1.072155  0
H  H18  1  0.39677265  0.42798132  0.42017301  1  0  0.079113  0  0.98047  0  0  0.085934  0  1.048198  0  0  0.088176  0  1.048506  0  0  0.090656  0.08429  0  1.048147  0
H  H19  1  0.42797970  0.39677340  0.92017466  1  0  0.079125  0  0.980463  0  0  0.085948  0  1.048185  0  0  0.08819  0  1.048492  0  0  0.090671  0.084305  0  1.048127  0
H  H20  1  0.30111039  0.15781641  0.38716112  1  0  0.073736  0  0.988059  0  0  0.083746  0  1.056958  0  0  0.085517  0  1.057102  0  0  0.09321  0.082502  0  1.056864  0
H  H21  1  0.15781385  0.30111116  0.88716257  1  0  0.07378  0  0.988104  0  0  0.083794  0  1.056986  0  0  0.085566  0  1.057126  0  0  0.093236  0.082551  0  1.056889  0
H  H22  1  0.76274548  0.96634167  0.56766657  1  0  0.101879  0  1.001757  0  0  0.114495  0  1.066118  0  0  0.116338  0  1.067936  0  0  0.084095  0.113169  0  1.064927  0
H  H23  1  0.96634245  0.76274521  0.06766882  1  0  0.101862  0  1.001791  0  0  0.114478  0  1.066153  0  0  0.11632  0  1.067972  0  0  0.084084  0.113151  0  1.064964  0
H  H24  1  0.76770245  0.85035638  0.42871346  1  0  0.104085  0  0.989065  0  0  0.118714  0  1.048527  0  0  0.121073  0  1.049208  0  0  0.085352  0.116809  0  1.048543  0
H  H25  1  0.85035854  0.76770193  0.92871525  1  0  0.104104  0  0.989072  0  0  0.11873  0  1.048539  0  0  0.121087  0  1.049221  0  0  0.085367  0.116829  0  1.048549  0
H  H26  1  0.67912674  0.69043566  0.60442009  1  0  0.089463  0  0.950292  0  0  0.111372  0  1.012145  0  0  0.111948  0  1.012855  0  0  0.08038  0.110937  0  1.011652  0
H  H27  1  0.69043822  0.67912741  0.10442041  1  0  0.089497  0  0.950221  0  0  0.111383  0  1.01211  0  0  0.111958  0  1.01282  0  0  0.080385  0.110949  0  1.011614  0
H  H28  1  0.85372452  0.74079810  0.69079207  1  0  0.084605  0  0.977971  0  0  0.103402  0  1.047437  0  0  0.104764  0  1.04722  0  0  0.080182  0.102144  0  1.048073  0
H  H29  1  0.74079800  0.85372490  0.19079401  1  0  0.084592  0  0.977954  0  0  0.103392  0  1.047419  0  0  0.104754  0  1.047202  0  0  0.080174  0.102136  0  1.048062  0
H  H30  1  0.85763587  0.62249394  0.55295073  1  0  0.086997  0  0.965091  0  0  0.105949  0  1.032783  0  0  0.106707  0  1.034121  0  0  0.080019  0.105386  0  1.031785  0
H  H31  1  0.62249604  0.85763577  0.05295078  1  0  0.087  0  0.965107  0  0  0.105967  0  1.032776  0  0  0.106724  0  1.034117  0  0  0.080029  0.105407  0  1.031779  0
H  H32  1  0.32126949  0.94497735  0.91570395  1  0  0.130598  0  0.950608  0  0  0.142283  0  1.006499  0  0  0.143857  0  1.007912  0  0  0.111569  0.141173  0  1.00565  0
H  H33  1  0.94497669  0.32127042  0.41570475  1  0  0.13062  0  0.950556  0  0  0.142301  0  1.006446  0  0  0.143879  0  1.007857  0  0  0.111568  0.141186  0  1.005595  0
H  H34  1  0.21797275  0.77016388  0.93818689  1  0  0.12044  0  0.92202  0  0  0.133547  0  0.979145  0  0  0.13547  0  0.978557  0  0  0.111491  0.132414  0  0.979217  0
H  H35  1  0.77016470  0.21797282  0.43818856  1  0  0.120416  0  0.922027  0  0  0.13352  0  0.979154  0  0  0.135445  0  0.978569  0  0  0.111476  0.132381  0  0.979225  0
C  C36  1  0.18910603  0.80190209  0.37647313  1  0  -0.294174  0  3.687418  0  0  -0.24365  0  3.94655  0  0  -0.255377  0  3.975362  0  0  -0.102336  -0.235841  0  3.926855  0
C  C37  1  0.80190210  0.18910811  0.87647452  1  0  -0.294158  0  3.687528  0  0  -0.243635  0  3.946635  0  0  -0.255361  0  3.975448  0  0  -0.102347  -0.235828  0  3.926941  0
C  C38  1  0.11878090  0.69914193  0.28594604  1  0  -0.053132  0  3.820538  0  0  -0.07088  0  4.061399  0  0  -0.070805  0  4.084996  0  0  -0.092562  -0.070514  0  4.045135  0
C  C39  1  0.69914185  0.11878143  0.78594734  1  0  -0.053173  0  3.82052  0  0  -0.070911  0  4.061375  0  0  -0.070835  0  4.084967  0  0  -0.092604  -0.070539  0  4.045109  0
C  C40  1  0.20852560  0.61020614  0.20692643  1  0  -0.077175  0  3.767459  0  0  -0.085119  0  4.008188  0  0  -0.088064  0  4.030016  0  0  -0.094266  -0.083028  0  3.993165  0
C  C41  1  0.61020750  0.20853062  0.70692777  1  0  -0.077173  0  3.767529  0  0  -0.085108  0  4.00825  0  0  -0.088056  0  4.030084  0  0  -0.094243  -0.083021  0  3.993228  0
C  C42  1  0.36973628  0.62471202  0.21701712  1  0  -0.068003  0  3.773165  0  0  -0.080528  0  4.016124  0  0  -0.081994  0  4.038614  0  0  -0.092127  -0.079686  0  4.000731  0
C  C43  1  0.62471332  0.36973919  0.71701917  1  0  -0.068026  0  3.773348  0  0  -0.080551  0  4.016293  0  0  -0.082017  0  4.038781  0  0  -0.092135  -0.079709  0  4.0009  0
C  C44  1  0.44077367  0.72511363  0.30815818  1  0  -0.076148  0  3.772076  0  0  -0.084944  0  4.012816  0  0  -0.088239  0  4.035999  0  0  -0.094668  -0.082531  0  3.997189  0
C  C45  1  0.72511566  0.44077783  0.80815940  1  0  -0.076212  0  3.771842  0  0  -0.085031  0  4.012605  0  0  -0.088327  0  4.035789  0  0  -0.094735  -0.082608  0  3.996969  0
C  C46  1  0.35119850  0.81257610  0.38798031  1  0  -0.049569  0  3.810565  0  0  -0.067385  0  4.052312  0  0  -0.067373  0  4.075491  0  0  -0.091272  -0.067624  0  4.037009  0
C  C47  1  0.81257895  0.35119932  0.88798346  1  0  -0.049508  0  3.810309  0  0  -0.067307  0  4.052052  0  0  -0.067302  0  4.075228  0  0  -0.091191  -0.067548  0  4.036758  0
C  C48  1  0.14405266  0.17017341  0.53787492  1  0  -0.317811  0  3.740194  0  0  -0.266089  0  3.99763  0  0  -0.279032  0  4.027889  0  0  -0.109819  -0.257505  0  3.9772  0
C  C49  1  0.17017294  0.14405178  0.03787509  1  0  -0.317792  0  3.740168  0  0  -0.266072  0  3.997608  0  0  -0.279017  0  4.02787  0  0  -0.109831  -0.257492  0  3.977185  0
C  C50  1  0.08512077  0.26647839  0.63138772  1  0  -0.062166  0  3.827954  0  0  -0.081134  0  4.071998  0  0  -0.080957  0  4.096258  0  0  -0.09836  -0.081157  0  4.055763  0
C  C51  1  0.26647890  0.08511821  0.13138801  1  0  -0.062164  0  3.827956  0  0  -0.081123  0  4.071983  0  0  -0.080945  0  4.096249  0  0  -0.098351  -0.081146  0  4.055753  0
C  C52  1  0.13853551  0.41988698  0.64850707  1  0  -0.07218  0  3.762373  0  0  -0.081031  0  4.00546  0  0  -0.084022  0  4.027124  0  0  -0.095837  -0.078997  0  3.990818  0
C  C53  1  0.41988744  0.13853415  0.14850750  1  0  -0.072126  0  3.762443  0  0  -0.080975  0  4.005525  0  0  -0.083966  0  4.027189  0  0  -0.095801  -0.078938  0  3.990884  0
C  C54  1  0.25079076  0.47824094  0.57311344  1  0  -0.068829  0  3.759274  0  0  -0.083723  0  4.007156  0  0  -0.084957  0  4.028657  0  0  -0.093996  -0.08277  0  3.992659  0
C  C55  1  0.47824004  0.25079082  0.07311474  1  0  -0.068913  0  3.759368  0  0  -0.083824  0  4.007276  0  0  -0.085055  0  4.028776  0  0  -0.094085  -0.082877  0  3.992786  0
C  C56  1  0.31016340  0.38277979  0.48006276  1  0  -0.065907  0  3.754488  0  0  -0.072283  0  3.992478  0  0  -0.075423  0  4.014746  0  0  -0.093858  -0.070137  0  3.977399  0
C  C57  1  0.38277894  0.31016289  0.98006351  1  0  -0.065877  0  3.754474  0  0  -0.072248  0  3.992461  0  0  -0.075388  0  4.014727  0  0  -0.093845  -0.070097  0  3.977374  0
C  C58  1  0.25672318  0.22952815  0.46245765  1  0  -0.065044  0  3.832075  0  0  -0.08336  0  4.072004  0  0  -0.083302  0  4.096111  0  0  -0.099214  -0.083279  0  4.05563  0
C  C59  1  0.22952674  0.25672342  0.96245739  1  0  -0.0651  0  3.832089  0  0  -0.083416  0  4.072021  0  0  -0.083358  0  4.096129  0  0  -0.099204  -0.083331  0  4.05564  0
C  C60  1  0.81872158  0.86715893  0.52326899  1  0  -0.419924  0  3.631789  0  0  -0.421898  0  3.89233  0  0  -0.432829  0  3.90792  0  0  -0.240567  -0.414392  0  3.881604  0
C  C61  1  0.86715857  0.81872120  0.02327013  1  0  -0.419935  0  3.63179  0  0  -0.421906  0  3.892328  0  0  -0.432836  0  3.907921  0  0  -0.240569  -0.4144  0  3.881602  0
C  C62  1  0.80201724  0.72231603  0.59677503  1  0  -0.234414  0  3.796235  0  0  -0.311158  0  4.047733  0  0  -0.311916  0  4.061595  0  0  -0.254074  -0.310239  0  4.038141  0
C  C63  1  0.72231622  0.80201799  0.09677610  1  0  -0.234427  0  3.796181  0  0  -0.311168  0  4.047686  0  0  -0.311924  0  4.061549  0  0  -0.254072  -0.310247  0  4.038085  0
C  C64  1  0.15800593  0.87921065  0.76783077  1  0  0.698632  0  3.835094  0  0  0.644972  0  4.136751  0  0  0.679708  0  4.12794  0  0  0.229668  0.621407  0  4.142082  0
C  C65  1  0.87920918  0.15800658  0.26783070  1  0  0.698725  0  3.834925  0  0  0.645025  0  4.136635  0  0  0.679766  0  4.127826  0  0  0.229683  0.621461  0  4.141965  0
C  C66  1  0.27559980  0.83727804  0.86913162  1  0  -0.203876  0  3.617618  0  0  -0.246101  0  3.885327  0  0  -0.247434  0  3.886659  0  0  -0.120728  -0.245279  0  3.884182  0
C  C67  1  0.83727777  0.27559896  0.36913231  1  0  -0.203887  0  3.61747  0  0  -0.246079  0  3.885155  0  0  -0.247429  0  3.886507  0  0  -0.120704  -0.245241  0  3.883988  0
Cl  Cl68  1  0.43572221  0.72967618  0.81852932  1  0  -0.091858  0  1.285107  0  0  -0.066703  0  1.520347  0  0  -0.069328  0  1.511917  0  0  -0.016673  -0.064654  0  1.526105  0
Cl  Cl69  1  0.72967208  0.43572203  0.31852964  1  0  -0.091884  0  1.285064  0  0  -0.066711  0  1.520269  0  0  -0.06933  0  1.511847  0  0  -0.01669  -0.064667  0  1.526016  0
O  O70  1  0.18651838  0.84470528  0.65545488  1  0  -0.592794  0  2.069196  0  0  -0.521083  0  2.311499  0  0  -0.548208  0  2.304452  0  0  -0.269681  -0.502315  0  2.315562  0
O  O71  1  0.84470438  0.18651709  0.15545562  1  0  -0.592826  0  2.06922  0  0  -0.521106  0  2.311548  0  0  -0.548231  0  2.304498  0  0  -0.269682  -0.502345  0  2.315619  0
O  O72  1  0.03851353  0.94791172  0.80136995  1  0  -0.622528  0  2.021579  0  0  -0.557388  0  2.265924  0  0  -0.585529  0  2.260845  0  0  -0.274929  -0.537725  0  2.26877  0
O  O73  1  0.94791135  0.03851152  0.30137093  1  0  -0.622551  0  2.021421  0  0  -0.557434  0  2.265838  0  0  -0.585568  0  2.260735  0  0  -0.274938  -0.537774  0  2.268689  0
