# generated using pymatgen
data_ZnH17C23NCl2O5
_symmetry_space_group_name_H-M   'P 1'
_cell_length_a   13.96839779
_cell_length_b   15.32226237
_cell_length_c   17.14250079
_cell_angle_alpha   90.66408665
_cell_angle_beta   79.53103378
_cell_angle_gamma   87.88554522
_symmetry_Int_Tables_number   1
_chemical_formula_structural   ZnH17C23NCl2O5
_chemical_formula_sum   'Zn2 H34 C46 N2 Cl4 O10'
_cell_volume   3604.80888801
_cell_formula_units_Z   2
loop_
 _symmetry_equiv_pos_site_id
 _symmetry_equiv_pos_as_xyz
  1  'x, y, z'
loop_
 _atom_site_type_symbol
 _atom_site_label
 _atom_site_symmetry_multiplicity
 _atom_site_fract_x
 _atom_site_fract_y
 _atom_site_fract_z
 _atom_site_occupancy
 _atom_site_pbe_bader_charge
 _atom_site_pbe_bader_spin_density
 _atom_site_pbe_cm5_charge
 _atom_site_pbe_ddec_charge
 _atom_site_pbe_ddec_spin_density
 _atom_site_pbe_ddec_sum_bond_order
 _atom_site_pbe_magmom
Zn  Zn0  1  0.60305374  0.49874744  0.50038487  1  1.285997  0  0.670881  0.830525  0  2.393403  0
Zn  Zn1  1  0.39953652  0.50239897  0.50332711  1  1.28819  0  0.672547  0.829831  0  2.410013  0
H  H2  1  0.39182494  0.41435055  0.28570851  1  0.086762  0  0.104456  0.10588  0  1.008378  0
H  H3  1  0.60936387  0.40229043  0.97986151  1  0.038606  0  0.101098  0.099135  0  1.003027  0
H  H4  1  0.68605335  0.45251561  0.08178114  1  0.087149  0  0.102316  0.11529  0  1.000145  0
H  H5  1  0.30783060  0.46064082  0.92070689  1  0.083957  0  0.101683  0.114891  0  1.001258  0
H  H6  1  0.60670834  0.36505020  0.85622650  1  0.038466  0  0.100951  0.101194  0  1.004915  0
H  H7  1  0.39036226  0.36991390  0.14640666  1  0.042607  0  0.09911  0.097166  0  1.014081  0
H  H8  1  0.64609517  0.93154537  0.53391145  1  0.09177  0  0.101142  0.103705  0  1.003053  0
H  H9  1  0.36156790  0.06953718  0.56791501  1  0.054638  0  0.103779  0.107096  0  0.995342  0
H  H10  1  0.63851860  0.76920661  0.53286482  1  0.089558  0  0.106203  0.108838  0  0.999088  0
H  H11  1  0.36654328  0.23209932  0.56154165  1  0.101789  0  0.110096  0.116107  0  0.982305  0
H  H12  1  0.36259208  0.94856637  0.46803843  1  0.087556  0  0.103352  0.116353  0  1.004402  0
H  H13  1  0.60547574  0.40890059  0.71756490  1  0.111746  0  0.106639  0.113954  0  0.989841  0
H  H14  1  0.65205672  0.04949550  0.42931243  1  0.056715  0  0.104451  0.11714  0  1.004096  0
H  H15  1  0.01835374  0.52379799  0.27541223  1  0.056126  0  0.110536  0.083283  0  0.950704  0
H  H16  1  0.01743110  0.44253863  0.34891056  1  0.037322  0  0.09562  0.055504  0  1.006767  0
H  H17  1  0.19452572  0.48840115  0.22412611  1  0.035123  0  0.095514  0.092044  0  0.967021  0
H  H18  1  0.19693730  0.41008817  0.29881948  1  0.007489  0  0.091379  0.083137  0  0.982866  0
H  H19  1  0.07590251  0.32072851  0.24301727  1  0.029194  0  0.08616  0.110459  0  1.002804  0
H  H20  1  0.18022514  0.33732749  0.16960417  1  0.006104  0  0.089141  0.116614  0  1.003014  0
H  H21  1  0.07061192  0.39931674  0.16852191  1  0.033  0  0.088886  0.113857  0  1.000478  0
H  H22  1  0.99397835  0.23086724  0.45054473  1  0.026255  0  0.10797  0.077679  0  0.953681  0
H  H23  1  0.87970273  0.27651629  0.43525558  1  0.064613  0  0.096058  0.056062  0  1.017749  0
H  H24  1  0.27479048  0.55044406  0.38556033  1  0.146878  0  0.129688  0.122304  0  0.989224  0
H  H25  1  0.91499074  0.20455091  0.59419411  1  0.03351  0  0.095405  0.09205  0  0.96463  0
H  H26  1  0.80038189  0.23214667  0.56899049  1  0.036664  0  0.093103  0.089504  0  0.98049  0
H  H27  1  0.82956423  0.11213400  0.46245222  1  0.024891  0  0.077326  0.101439  0  1.046966  0
H  H28  1  0.83140712  0.06974193  0.55810774  1  0.029755  0  0.090287  0.121323  0  0.992925  0
H  H29  1  0.94246459  0.08333257  0.49101616  1  0.040508  0  0.086107  0.109879  0  1.002119  0
H  H30  1  0.75694928  0.36347768  0.51164746  1  0.155018  0  0.121316  0.111276  0  1.033401  0
H  H31  1  0.22244639  0.45927795  0.61573296  1  0.156453  0  0.120601  0.102366  0  1.010609  0
H  H32  1  0.75277429  0.63014398  0.47758262  1  0.144679  0  0.124183  0.104779  0  1.003933  0
H  H33  1  0.04308059  0.44989433  0.61470341  1  0.082603  0  0.116939  0.127654  0  0.97341  0
H  H34  1  0.93404811  0.63628827  0.47423280  1  0.097442  0  0.119243  0.131103  0  0.971177  0
H  H35  1  0.38552742  0.40716933  0.02252594  1  0.058047  0  0.099689  0.097731  0  1.00562  0
C  C36  1  0.49964981  0.66901380  0.50361117  1  1.584264  0  0.215954  0.608709  0  4.166231  0
C  C37  1  0.59145035  0.17962812  0.45739602  1  -0.000609  0  0.017497  0.137206  0  4.027048  0
C  C38  1  0.42300011  0.91009146  0.48413493  1  0.023873  0  -0.097577  -0.208804  0  3.963921  0
C  C39  1  0.58981124  0.08877746  0.46041201  1  0.047762  0  -0.096591  -0.209227  0  3.971083  0
C  C40  1  0.50439031  0.95175805  0.50159803  1  0.047445  0  -0.004279  0.090158  0  4.009906  0
C  C41  1  0.50697455  0.04809361  0.50015890  1  -0.024247  0  -0.004096  0.089098  0  4.009547  0
C  C42  1  0.12247553  0.52722893  0.42991457  1  0.554645  0  0.091069  0.164549  0  4.051444  0
C  C43  1  0.90036016  0.41928144  0.50349945  1  0.510595  0  0.092945  0.167138  0  4.066813  0
C  C44  1  0.22094881  0.52933228  0.43536181  1  0.53605  0  0.052423  -0.006221  0  3.895811  0
C  C45  1  0.79986485  0.42184558  0.50439188  1  0.478974  0  0.038089  -0.037488  0  3.912095  0
C  C46  1  0.19097589  0.47738179  0.56414665  1  0.469986  0  0.049023  0.083429  0  3.923471  0
C  C47  1  0.51059463  0.33021357  0.49694958  1  1.601714  0  0.2108  0.60255  0  4.186825  0
C  C48  1  0.79762520  0.57226747  0.48515234  1  0.425804  0  0.04374  0.070127  0  3.941467  0
C  C49  1  0.09222244  0.47289165  0.56291493  1  -0.009361  0  -0.074619  -0.151031  0  3.966198  0
C  C50  1  0.89722485  0.57483636  0.48385805  1  -0.001182  0  -0.074627  -0.150468  0  3.97426  0
C  C51  1  0.52848968  0.48506389  0.34891450  1  1.597723  0  0.209145  0.601684  0  4.175104  0
C  C52  1  0.46681791  0.48333863  0.65432611  1  1.599856  0  0.211537  0.605085  0  4.172864  0
C  C53  1  0.05569082  0.49877212  0.49552153  1  -0.039597  0  0.008301  0.019012  0  3.985846  0
C  C54  1  0.95012944  0.49816189  0.49456163  1  0.044245  0  0.002353  0.00724  0  3.99615  0
C  C55  1  0.53779998  0.45803895  0.26346521  1  0.031614  0  -0.017142  -0.083616  0  3.917839  0
C  C56  1  0.45762761  0.45807756  0.73961621  1  0.015152  0  -0.018277  -0.086232  0  3.920456  0
C  C57  1  0.45588545  0.42223267  0.23988008  1  -0.036132  0  -0.082095  -0.07546  0  3.999333  0
C  C58  1  0.58277912  0.90017313  0.51897640  1  -0.059781  0  -0.09593  -0.148432  0  4.00406  0
C  C59  1  0.54053249  0.41921221  0.76315324  1  -0.067948  0  -0.081924  -0.075684  0  3.996603  0
C  C60  1  0.45523421  0.39790083  0.16196287  1  -0.062785  0  -0.095926  -0.145979  0  3.989058  0
C  C61  1  0.54102308  0.39547353  0.84075754  1  0.00876  0  -0.094905  -0.145259  0  3.988359  0
C  C62  1  0.53754152  0.41067385  0.10276632  1  0.02157  0  -0.009784  0.132479  0  4.05657  0
C  C63  1  0.45773558  0.41201456  0.89981476  1  0.00145  0  -0.009538  0.132842  0  4.058328  0
C  C64  1  0.62124580  0.44235881  0.12632396  1  0.032195  0  -0.097881  -0.210394  0  3.951729  0
C  C65  1  0.37334332  0.44726315  0.87632733  1  -0.057999  0  -0.097446  -0.209198  0  3.956072  0
C  C66  1  0.62174128  0.46559838  0.20516439  1  0.018339  0  0.020107  0.148999  0  4.021424  0
C  C67  1  0.37300217  0.46977772  0.79776477  1  0.068339  0  0.01821  0.144707  0  4.024287  0
C  C68  1  0.53768440  0.40092851  0.01815099  1  -0.016932  0  -0.087633  -0.124647  0  3.987902  0
C  C69  1  0.42608069  0.10044382  0.53637323  1  -0.019467  0  -0.09289  -0.141835  0  3.997362  0
C  C70  1  0.45738478  0.40253557  0.98428890  1  -0.051849  0  -0.091758  -0.133637  0  3.992085  0
C  C71  1  0.06373746  0.48865112  0.31181473  1  0.412803  0  -0.062813  0.036578  0  3.878047  0
C  C72  1  0.15032391  0.44051500  0.26040132  1  -0.009927  0  -0.169435  -0.141385  0  3.988206  0
C  C73  1  0.11740829  0.37076246  0.20750113  1  -0.04331  0  -0.239739  -0.347783  0  3.977751  0
C  C74  1  0.92508305  0.26309582  0.48027189  1  0.40833  0  -0.061419  0.035872  0  3.875155  0
C  C75  1  0.87409636  0.20512421  0.54501250  1  -0.008137  0  -0.168693  -0.1404  0  3.982673  0
C  C76  1  0.86900952  0.11234640  0.51235254  1  -0.079436  0  -0.243383  -0.3492  0  3.972124  0
C  C77  1  0.57846649  0.80979837  0.51882473  1  -0.054048  0  -0.082122  -0.072546  0  3.997667  0
C  C78  1  0.42883356  0.19090467  0.53344630  1  -0.080742  0  -0.081926  -0.07742  0  3.993674  0
C  C79  1  0.49728230  0.76701297  0.50168455  1  0.075767  0  -0.017654  -0.088451  0  3.918418  0
C  C80  1  0.51168841  0.23231030  0.49484806  1  0.061393  0  -0.01759  -0.083489  0  3.948655  0
C  C81  1  0.41926655  0.81913992  0.48380924  1  -0.022084  0  0.021654  0.15013  0  4.008469  0
N  N82  1  0.25376716  0.50504413  0.50105021  1  -1.248265  0  -0.319478  -0.178012  0  3.551257  0
N  N83  1  0.75061575  0.49714175  0.49606021  1  -1.222142  0  -0.318996  -0.168904  0  3.558533  0
Cl  Cl84  1  0.26593276  0.51777151  0.77743973  1  -0.21571  0  -0.02976  -0.102927  0  1.46516  0
Cl  Cl85  1  0.72755177  0.50882968  0.22588866  1  -0.218282  0  -0.036145  -0.102865  0  1.454351  0
Cl  Cl86  1  0.31733778  0.77558510  0.45616831  1  -0.208741  0  -0.027739  -0.092175  0  1.469082  0
Cl  Cl87  1  0.69205275  0.22555483  0.40002537  1  -0.223293  0  -0.001932  -0.081139  0  1.527449  0
O  O88  1  0.58388292  0.63089890  0.48760072  1  -1.170978  0  -0.316904  -0.551235  0  2.328274  0
O  O89  1  0.95456304  0.34520299  0.50986163  1  -1.073837  0  -0.184906  -0.211611  0  2.558731  0
O  O90  1  0.43425275  0.36908679  0.48216192  1  -1.161543  0  -0.314836  -0.542407  0  2.294529  0
O  O91  1  0.41937348  0.63176814  0.52195142  1  -1.157149  0  -0.314816  -0.540453  0  2.372416  0
O  O92  1  0.58441885  0.36551877  0.51569838  1  -1.165162  0  -0.317486  -0.551786  0  2.34285  0
O  O93  1  0.60222174  0.47398407  0.38183839  1  -1.154751  0  -0.313856  -0.544619  0  2.367919  0
O  O94  1  0.39330236  0.47451566  0.62107936  1  -1.161705  0  -0.31567  -0.547279  0  2.363397  0
O  O95  1  0.44447286  0.51508458  0.38245521  1  -1.163215  0  -0.320057  -0.555534  0  2.322107  0
O  O96  1  0.54979985  0.50929149  0.62145626  1  -1.164269  0  -0.321426  -0.550303  0  2.29434  0
O  O97  1  0.09382753  0.55585649  0.36189276  1  -1.071216  0  -0.203  -0.23921  0  2.49573  0
