# generated using pymatgen
data_NaH11C4O5
_symmetry_space_group_name_H-M   'P 1'
_cell_length_a   5.90438935
_cell_length_b   11.75445772
_cell_length_c   12.08121818
_cell_angle_alpha   65.18533363
_cell_angle_beta   75.52286483
_cell_angle_gamma   75.08369687
_symmetry_Int_Tables_number   1
_chemical_formula_structural   NaH11C4O5
_chemical_formula_sum   'Na4 H44 C16 O20'
_cell_volume   725.71298195
_cell_formula_units_Z   4
loop_
 _symmetry_equiv_pos_site_id
 _symmetry_equiv_pos_as_xyz
  1  'x, y, z'
loop_
 _atom_site_type_symbol
 _atom_site_label
 _atom_site_symmetry_multiplicity
 _atom_site_fract_x
 _atom_site_fract_y
 _atom_site_fract_z
 _atom_site_occupancy
 _atom_site_hle17_bader_spin_density
 _atom_site_hle17_ddec_charge
 _atom_site_hle17_ddec_spin_density
 _atom_site_hle17_ddec_sum_bond_order
 _atom_site_hle17_magmom
 _atom_site_hse06_10hf_bader_spin_density
 _atom_site_hse06_10hf_ddec_charge
 _atom_site_hse06_10hf_ddec_spin_density
 _atom_site_hse06_10hf_ddec_sum_bond_order
 _atom_site_hse06_10hf_magmom
 _atom_site_hse06_bader_spin_density
 _atom_site_hse06_ddec_charge
 _atom_site_hse06_ddec_spin_density
 _atom_site_hse06_ddec_sum_bond_order
 _atom_site_hse06_magmom
 _atom_site_pbe_bader_spin_density
 _atom_site_pbe_cm5_charge
 _atom_site_pbe_ddec_charge
 _atom_site_pbe_ddec_spin_density
 _atom_site_pbe_ddec_sum_bond_order
 _atom_site_pbe_magmom
Na  Na0  1  0.88637917  0.73002737  0.76127121  1  0  0.884546  0  0.431186  0  0  0.839561  0  0.588933  0  0  0.849817  0  0.566815  0  0  0.695759  0.832131  0  0.604647  0
Na  Na1  1  0.37707379  0.76962383  0.73892186  1  0  0.884016  0  0.431532  0  0  0.838803  0  0.589648  0  0  0.848881  0  0.56777  0  0  0.695975  0.831473  0  0.605166  0
Na  Na2  1  0.11363103  0.26997172  0.23873427  1  0  0.884537  0  0.431167  0  0  0.839555  0  0.588913  0  0  0.849816  0  0.566792  0  0  0.695734  0.832126  0  0.604626  0
Na  Na3  1  0.62293483  0.23036639  0.26106855  1  0  0.883987  0  0.431612  0  0  0.838818  0  0.589682  0  0  0.848898  0  0.56778  0  0  0.696004  0.831484  0  0.605203  0
H  H4  1  0.46766084  0.75754173  0.04533990  1  0  0.358642  0  0.914373  0  0  0.327204  0  0.998171  0  0  0.339118  0  0.984817  0  0  0.289448  0.318665  0  1.007871  0
H  H5  1  0.27500788  0.74263000  0.45536009  1  0  0.358126  0  0.916255  0  0  0.326584  0  1.000307  0  0  0.338516  0  0.986947  0  0  0.288682  0.318033  0  1.010019  0
H  H6  1  0.53228177  0.24245943  0.95468602  1  0  0.358802  0  0.914159  0  0  0.327279  0  0.998097  0  0  0.339194  0  0.984739  0  0  0.289529  0.318742  0  1.007794  0
H  H7  1  0.72506349  0.25738668  0.54462200  1  0  0.358176  0  0.915943  0  0  0.326535  0  1.000185  0  0  0.338464  0  0.986828  0  0  0.288669  0.317983  0  1.009902  0
H  H8  1  0.00854669  0.96867811  0.61541850  1  0  0.408251  0  0.91497  0  0  0.378691  0  0.977827  0  0  0.389107  0  0.962841  0  0  0.280007  0.371429  0  0.988254  0
H  H9  1  0.59466409  0.53153302  0.88471266  1  0  0.408337  0  0.914501  0  0  0.378705  0  0.977612  0  0  0.389087  0  0.962657  0  0  0.280405  0.371467  0  0.988009  0
H  H10  1  0.99144110  0.03133987  0.38459338  1  0  0.408307  0  0.914924  0  0  0.378718  0  0.977838  0  0  0.389138  0  0.962843  0  0  0.279991  0.371458  0  0.988265  0
H  H11  1  0.40530984  0.46847463  0.11527996  1  0  0.408358  0  0.914486  0  0  0.378692  0  0.977635  0  0  0.389081  0  0.96268  0  0  0.280376  0.371453  0  0.988034  0
H  H12  1  0.11014830  0.88374818  0.53153467  1  0  0.406874  0  0.916942  0  0  0.374298  0  0.98489  0  0  0.385457  0  0.968687  0  0  0.278301  0.366481  0  0.996235  0
H  H13  1  0.52534485  0.61605767  0.96890695  1  0  0.406257  0  0.917569  0  0  0.373976  0  0.985191  0  0  0.385119  0  0.968996  0  0  0.278141  0.366175  0  0.996522  0
H  H14  1  0.88984145  0.11626575  0.46848134  1  0  0.406915  0  0.916873  0  0  0.374285  0  0.984884  0  0  0.385439  0  0.96869  0  0  0.278311  0.36647  0  0.996224  0
H  H15  1  0.47465178  0.38394211  0.03109078  1  0  0.406235  0  0.917623  0  0  0.373975  0  0.985214  0  0  0.385121  0  0.969018  0  0  0.278138  0.366174  0  0.996546  0
H  H16  1  0.26353344  0.59080669  0.64815612  1  0  0.413417  0  0.892707  0  0  0.383295  0  0.956036  0  0  0.3939  0  0.940359  0  0  0.288555  0.375812  0  0.967095  0
H  H17  1  0.49611610  0.90798456  0.85305409  1  0  0.412687  0  0.894251  0  0  0.382432  0  0.957808  0  0  0.393094  0  0.942061  0  0  0.2881  0.374934  0  0.968874  0
H  H18  1  0.73651596  0.40922082  0.35180790  1  0  0.413418  0  0.892684  0  0  0.383388  0  0.955847  0  0  0.393991  0  0.940174  0  0  0.288682  0.375912  0  0.966895  0
H  H19  1  0.50387768  0.09197945  0.14697301  1  0  0.412605  0  0.894368  0  0  0.382342  0  0.957938  0  0  0.393003  0  0.94219  0  0  0.288154  0.374844  0  0.969004  0
H  H20  1  0.37323232  0.50755706  0.77289874  1  0  0.427826  0  0.86159  0  0  0.39803  0  0.923529  0  0  0.408526  0  0.907869  0  0  0.295516  0.390499  0  0.934787  0
H  H21  1  0.64845139  0.99132577  0.72860145  1  0  0.428175  0  0.860244  0  0  0.398348  0  0.922291  0  0  0.408828  0  0.906635  0  0  0.296248  0.390854  0  0.933502  0
H  H22  1  0.62674937  0.49244865  0.22708407  1  0  0.427995  0  0.861346  0  0  0.398186  0  0.92331  0  0  0.408681  0  0.907657  0  0  0.295542  0.390654  0  0.934571  0
H  H23  1  0.35150025  0.00865791  0.27142343  1  0  0.428197  0  0.86022  0  0  0.398408  0  0.922195  0  0  0.408888  0  0.90654  0  0  0.296293  0.390917  0  0.9334  0
H  H24  1  0.80461522  0.88566351  0.98384357  1  0  0.072549  0  0.924345  0  0  0.084791  0  0.989248  0  0  0.086066  0  0.98793  0  0  0.104399  0.083711  0  0.990473  0
H  H25  1  0.68072131  0.61433454  0.51653544  1  0  0.072939  0  0.925977  0  0  0.085403  0  0.990273  0  0  0.086658  0  0.989005  0  0  0.104956  0.08434  0  0.991451  0
H  H26  1  0.19533119  0.11432011  0.01616070  1  0  0.072533  0  0.924372  0  0  0.0848  0  0.989255  0  0  0.086071  0  0.987935  0  0  0.104413  0.083716  0  0.990488  0
H  H27  1  0.31935693  0.38565050  0.48347065  1  0  0.072927  0  0.92615  0  0  0.085381  0  0.990377  0  0  0.086636  0  0.989108  0  0  0.104878  0.08432  0  0.991555  0
H  H28  1  0.05025070  0.94596259  0.86944118  1  0  0.074509  0  0.936969  0  0  0.089167  0  1.000726  0  0  0.089872  0  0.999685  0  0  0.114323  0.088599  0  1.001537  0
H  H29  1  0.87093970  0.55408992  0.63097452  1  0  0.074518  0  0.93655  0  0  0.088694  0  1.001071  0  0  0.089424  0  0.99997  0  0  0.113746  0.088097  0  1.001944  0
H  H30  1  0.94970697  0.05402553  0.13057491  1  0  0.074406  0  0.937037  0  0  0.089049  0  1.00081  0  0  0.08975  0  0.999768  0  0  0.11426  0.088483  0  1.001623  0
H  H31  1  0.12916819  0.44592702  0.36901447  1  0  0.074655  0  0.936282  0  0  0.088721  0  1.00088  0  0  0.089451  0  0.999779  0  0  0.113832  0.088127  0  1.00175  0
H  H32  1  0.04776846  0.86021791  0.12416211  1  0  0.026546  0  0.953984  0  0  0.036203  0  1.018665  0  0  0.036757  0  1.017865  0  0  0.095092  0.035731  0  1.0194  0
H  H33  1  0.04224115  0.63955927  0.37634672  1  0  0.026773  0  0.952983  0  0  0.035871  0  1.017826  0  0  0.036341  0  1.017143  0  0  0.095055  0.035443  0  1.018473  0
H  H34  1  0.95217241  0.13976917  0.87585569  1  0  0.026502  0  0.953844  0  0  0.036149  0  1.018632  0  0  0.036708  0  1.01782  0  0  0.095003  0.035674  0  1.019372  0
H  H35  1  0.95783584  0.36045450  0.62363688  1  0  0.026816  0  0.952952  0  0  0.035944  0  1.017843  0  0  0.036413  0  1.017169  0  0  0.095044  0.035511  0  1.018485  0
H  H36  1  0.06446684  0.63708452  0.20601246  1  0  0.014059  0  0.95153  0  0  0.021697  0  1.023232  0  0  0.022611  0  1.021095  0  0  0.08676  0.020937  0  1.0249  0
H  H37  1  0.91355348  0.86288514  0.29431844  1  0  0.013304  0  0.953342  0  0  0.021012  0  1.025168  0  0  0.021846  0  1.023055  0  0  0.08675  0.020335  0  1.026796  0
H  H38  1  0.93548978  0.36291477  0.79400259  1  0  0.014076  0  0.951662  0  0  0.021699  0  1.023359  0  0  0.022646  0  1.021191  0  0  0.086789  0.02094  0  1.025025  0
H  H39  1  0.08649072  0.13711649  0.70566742  1  0  0.013183  0  0.953476  0  0  0.020846  0  1.025258  0  0  0.021684  0  1.023134  0  0  0.086703  0.02017  0  1.026888  0
H  H40  1  0.11677010  0.56296187  0.00544086  1  0  0.080263  0  0.952897  0  0  0.095641  0  1.014979  0  0  0.096474  0  1.014235  0  0  0.118754  0.094971  0  1.015607  0
H  H41  1  0.68461924  0.93713183  0.49486311  1  0  0.07991  0  0.951971  0  0  0.094835  0  1.014959  0  0  0.095689  0  1.014176  0  0  0.118179  0.094136  0  1.015632  0
H  H42  1  0.88321070  0.43702104  0.99458163  1  0  0.080217  0  0.952695  0  0  0.095654  0  1.014812  0  0  0.096487  0  1.014068  0  0  0.11873  0.094973  0  1.015433  0
H  H43  1  0.31538378  0.06287774  0.50510653  1  0  0.079741  0  0.951868  0  0  0.094794  0  1.014802  0  0  0.095638  0  1.01401  0  0  0.118164  0.094095  0  1.015469  0
H  H44  1  0.84557447  0.64151509  0.06867907  1  0  0.058947  0  0.950091  0  0  0.070914  0  1.018678  0  0  0.072161  0  1.017114  0  0  0.100822  0.069631  0  1.02041  0
H  H45  1  0.55855032  0.85867882  0.43154797  1  0  0.059492  0  0.950541  0  0  0.071435  0  1.019279  0  0  0.072701  0  1.017683  0  0  0.101136  0.070125  0  1.021061  0
H  H46  1  0.15438403  0.35847271  0.93131920  1  0  0.058771  0  0.949704  0  0  0.070734  0  1.018464  0  0  0.071982  0  1.016899  0  0  0.100709  0.069445  0  1.0202  0
H  H47  1  0.44148834  0.14130886  0.56842828  1  0  0.0595  0  0.950459  0  0  0.071381  0  1.019335  0  0  0.072638  0  1.017752  0  0  0.101137  0.070065  0  1.021124  0
C  C48  1  0.99628183  0.86362878  0.95025089  1  0  0.019504  0  3.605112  0  0  -0.040727  0  3.87584  0  0  -0.035184  0  3.881351  0  0  -0.075509  -0.044332  0  3.872077  0
C  C49  1  0.81549979  0.63640384  0.55008782  1  0  0.018963  0  3.607299  0  0  -0.041114  0  3.877492  0  0  -0.035595  0  3.883042  0  0  -0.075028  -0.04471  0  3.873697  0
C  C50  1  0.00367242  0.13635689  0.04976154  1  0  0.019587  0  3.605116  0  0  -0.04059  0  3.875829  0  0  -0.03503  0  3.881321  0  0  -0.075444  -0.044207  0  3.872078  0
C  C51  1  0.18457228  0.36360281  0.44990350  1  0  0.018936  0  3.607444  0  0  -0.040873  0  3.877413  0  0  -0.035356  0  3.882973  0  0  -0.074937  -0.044477  0  3.873618  0
C  C52  1  0.13940780  0.81956077  0.05437805  1  0  0.157904  0  3.573177  0  0  0.134758  0  3.83061  0  0  0.138931  0  3.841627  0  0  -0.014176  0.131835  0  3.823093  0
C  C53  1  0.02025287  0.68035440  0.44608844  1  0  0.157067  0  3.572878  0  0  0.135762  0  3.827828  0  0  0.139944  0  3.838762  0  0  -0.013858  0.132895  0  3.820264  0
C  C54  1  0.86053269  0.18043214  0.94563636  1  0  0.157794  0  3.573355  0  0  0.134507  0  3.831006  0  0  0.138674  0  3.842031  0  0  -0.014243  0.13159  0  3.823493  0
C  C55  1  0.97980934  0.31965933  0.55389597  1  0  0.156757  0  3.572925  0  0  0.13518  0  3.828144  0  0  0.13935  0  3.839088  0  0  -0.014017  0.132345  0  3.82052  0
C  C56  1  0.16276265  0.66854709  0.11056505  1  0  0.164564  0  3.670684  0  0  0.138033  0  3.923523  0  0  0.143367  0  3.936258  0  0  -0.018849  0.134371  0  3.914569  0
C  C57  1  0.94639123  0.83144298  0.38976791  1  0  0.167588  0  3.668234  0  0  0.140803  0  3.920876  0  0  0.146352  0  3.933321  0  0  -0.019341  0.136954  0  3.912108  0
C  C58  1  0.83719228  0.33144682  0.88944826  1  0  0.164234  0  3.670643  0  0  0.137853  0  3.923551  0  0  0.143169  0  3.936294  0  0  -0.018933  0.134192  0  3.914594  0
C  C59  1  0.05364701  0.16856595  0.61021910  1  0  0.16775  0  3.668552  0  0  0.141327  0  3.920719  0  0  0.146885  0  3.93315  0  0  -0.01922  0.137466  0  3.911949  0
C  C60  1  0.03306483  0.64747861  0.02674065  1  0  0.00293  0  3.608394  0  0  -0.056676  0  3.875861  0  0  -0.050964  0  3.880309  0  0  -0.082813  -0.060348  0  3.872981  0
C  C61  1  0.70930156  0.85261899  0.47351688  1  0  0.003033  0  3.607427  0  0  -0.056826  0  3.875686  0  0  -0.051151  0  3.880113  0  0  -0.08203  -0.060451  0  3.872808  0
C  C62  1  0.96689915  0.35250795  0.97327196  1  0  0.003531  0  3.607244  0  0  -0.056337  0  3.875114  0  0  -0.050632  0  3.879578  0  0  -0.082657  -0.059976  0  3.872193  0
C  C63  1  0.29072517  0.14738330  0.52646165  1  0  0.003414  0  3.607166  0  0  -0.056691  0  3.875619  0  0  -0.051  0  3.880025  0  0  -0.081965  -0.060311  0  3.872737  0
O  O64  1  0.04235744  0.75762712  0.91178550  1  0  -0.396111  0  2.256529  0  0  -0.329632  0  2.516675  0  0  -0.344002  0  2.514347  0  0  -0.328947  -0.319558  0  2.518061  0
O  O65  1  0.71365572  0.74245417  0.58848143  1  0  -0.396757  0  2.257713  0  0  -0.330268  0  2.517906  0  0  -0.344658  0  2.515594  0  0  -0.32989  -0.320183  0  2.519278  0
O  O66  1  0.95762483  0.24235865  0.08822510  1  0  -0.396166  0  2.256454  0  0  -0.329593  0  2.516653  0  0  -0.343967  0  2.514322  0  0  -0.328899  -0.319518  0  2.518027  0
O  O67  1  0.28638425  0.25755507  0.41150195  1  0  -0.396856  0  2.25779  0  0  -0.330393  0  2.518003  0  0  -0.34478  0  2.515677  0  0  -0.329954  -0.32031  0  2.519374  0
O  O68  1  0.37473756  0.84733101  0.01186420  1  0  -0.572689  0  2.040102  0  0  -0.516415  0  2.254192  0  0  -0.533639  0  2.241221  0  0  -0.400509  -0.504205  0  2.263271  0
O  O69  1  0.24013545  0.65274940  0.48889456  1  0  -0.573451  0  2.040429  0  0  -0.517768  0  2.254177  0  0  -0.534907  0  2.241058  0  0  -0.400564  -0.505638  0  2.263383  0
O  O70  1  0.62520130  0.15266846  0.98814930  1  0  -0.572707  0  2.040292  0  0  -0.516296  0  2.254488  0  0  -0.533519  0  2.241517  0  0  -0.4005  -0.504086  0  2.263563  0
O  O71  1  0.75993847  0.34726767  0.51108305  1  0  -0.573251  0  2.040092  0  0  -0.517539  0  2.254029  0  0  -0.534675  0  2.240917  0  0  -0.400524  -0.505421  0  2.263222  0
O  O72  1  0.40385710  0.61236373  0.10702939  1  0  -0.730141  0  1.95444  0  0  -0.64793  0  2.159861  0  0  -0.673236  0  2.151765  0  0  -0.393227  -0.62983  0  2.165263  0
O  O73  1  0.12639514  0.88755437  0.39324690  1  0  -0.731738  0  1.954012  0  0  -0.649366  0  2.159301  0  0  -0.67484  0  2.151183  0  0  -0.394324  -0.631147  0  2.16473  0
O  O74  1  0.59609809  0.38763575  0.89298352  1  0  -0.729977  0  1.954323  0  0  -0.647841  0  2.159769  0  0  -0.673161  0  2.151687  0  0  -0.393238  -0.629763  0  2.165188  0
O  O75  1  0.87361924  0.11246695  0.60674699  1  0  -0.731859  0  1.954219  0  0  -0.649469  0  2.159331  0  0  -0.674937  0  2.151208  0  0  -0.394354  -0.631248  0  2.164765  0
O  O76  1  0.09819690  0.88256259  0.61712148  1  0  -0.96932  0  1.820411  0  0  -0.921762  0  2.019852  0  0  -0.939613  0  1.985583  0  0  -0.76751  -0.909014  0  2.043623  0
O  O77  1  0.59925174  0.61728479  0.88324363  1  0  -0.968014  0  1.821964  0  0  -0.920646  0  2.020555  0  0  -0.938467  0  1.986414  0  0  -0.766795  -0.907918  0  2.044237  0
O  O78  1  0.90177462  0.11745049  0.38289410  1  0  -0.969427  0  1.820377  0  0  -0.921741  0  2.019809  0  0  -0.939594  0  1.985541  0  0  -0.767481  -0.908993  0  2.043576  0
O  O79  1  0.40075332  0.38271479  0.11675627  1  0  -0.968038  0  1.821919  0  0  -0.920664  0  2.020543  0  0  -0.938503  0  1.986374  0  0  -0.766794  -0.907939  0  2.044233  0
O  O80  1  0.25221529  0.58052343  0.73529613  1  0  -0.902557  0  1.759912  0  0  -0.858427  0  1.931441  0  0  -0.874729  0  1.898503  0  0  -0.666313  -0.846838  0  1.954577  0
O  O81  1  0.56299966  0.91873570  0.76572071  1  0  -0.901834  0  1.760087  0  0  -0.857441  0  1.931125  0  0  -0.873715  0  1.898098  0  0  -0.665402  -0.845936  0  1.954336  0
O  O82  1  0.74778725  0.41948857  0.26467758  1  0  -0.902724  0  1.75974  0  0  -0.858698  0  1.931309  0  0  -0.874988  0  1.898326  0  0  -0.666435  -0.847114  0  1.954439  0
O  O83  1  0.43696348  0.08124754  0.23429830  1  0  -0.901763  0  1.760127  0  0  -0.857423  0  1.931219  0  0  -0.873698  0  1.898187  0  0  -0.665514  -0.845921  0  1.954427  0
