# generated using pymatgen
data_HgH18C18S2(BrN)2
_symmetry_space_group_name_H-M   'P 1'
_cell_length_a   14.90738153
_cell_length_b   16.16433049
_cell_length_c   16.16435260
_cell_angle_alpha   69.25680656
_cell_angle_beta   74.69866518
_cell_angle_gamma   74.69915846
_symmetry_Int_Tables_number   1
_chemical_formula_structural   HgH18C18S2(BrN)2
_chemical_formula_sum   'Hg6 H108 C108 S12 Br12 N12'
_cell_volume   3450.19708685
_cell_formula_units_Z   6
loop_
 _symmetry_equiv_pos_site_id
 _symmetry_equiv_pos_as_xyz
  1  'x, y, z'
loop_
 _atom_site_type_symbol
 _atom_site_label
 _atom_site_symmetry_multiplicity
 _atom_site_fract_x
 _atom_site_fract_y
 _atom_site_fract_z
 _atom_site_occupancy
 _atom_site_pbe_bader_charge
 _atom_site_pbe_bader_spin_density
 _atom_site_pbe_cm5_charge
 _atom_site_pbe_ddec_charge
 _atom_site_pbe_ddec_spin_density
 _atom_site_pbe_ddec_sum_bond_order
 _atom_site_pbe_magmom
Hg  Hg0  1  0.75000012  0.91247358  0.08752782  1  0.675762  0  0.447123  0.434413  0  2.68903  0
Hg  Hg1  1  0.24999948  0.08752781  0.91247190  1  0.675738  0  0.447132  0.434414  0  2.689003  0
Hg  Hg2  1  0.52995862  0.76712987  0.54759454  1  0.691266  0  0.457178  0.445899  0  2.678765  0
Hg  Hg3  1  0.97003896  0.45240465  0.23287079  1  0.691209  0  0.457128  0.445804  0  2.678821  0
Hg  Hg4  1  0.47004041  0.23287084  0.45240433  1  0.691183  0  0.457157  0.445888  0  2.678757  0
Hg  Hg5  1  0.02995896  0.54759471  0.76713131  1  0.691292  0  0.457171  0.445878  0  2.678821  0
H  H6  1  0.66245966  0.74154190  0.71951380  1  0.129031  0  0.086286  0.111595  0  1.045931  0
H  H7  1  0.83753929  0.28048575  0.25845697  1  0.128945  0  0.08629  0.111612  0  1.045928  0
H  H8  1  0.33753937  0.25845881  0.28048445  1  0.128925  0  0.086299  0.111611  0  1.045916  0
H  H9  1  0.16245974  0.71951496  0.74154189  1  0.128966  0  0.086301  0.11163  0  1.045937  0
H  H10  1  0.65350216  0.81401713  0.78351864  1  0.058711  0  0.101216  0.120495  0  0.993069  0
H  H11  1  0.84649555  0.21647959  0.18598371  1  0.058976  0  0.101225  0.120538  0  0.993034  0
H  H12  1  0.34649771  0.18598292  0.21648088  1  0.058969  0  0.101231  0.120537  0  0.993081  0
H  H13  1  0.15350223  0.78352044  0.81401633  1  0.058974  0  0.101199  0.12049  0  0.993035  0
H  H14  1  0.62238855  0.63732305  0.71977570  1  0.050791  0  0.074587  0.116478  0  1.085758  0
H  H15  1  0.87760958  0.28022469  0.36267631  1  0.050754  0  0.074568  0.116438  0  1.085787  0
H  H16  1  0.37760854  0.36267699  0.28022451  1  0.05077  0  0.074575  0.116463  0  1.085727  0
H  H17  1  0.12238945  0.71977603  0.63732317  1  0.05079  0  0.074602  0.116516  0  1.085756  0
H  H18  1  0.56389852  0.54662572  0.78390372  1  0.055304  0  0.087912  0.125503  0  1.025168  0
H  H19  1  0.93609989  0.21609817  0.45337249  1  0.055337  0  0.087921  0.125499  0  1.025123  0
H  H20  1  0.43609857  0.45337432  0.21609773  1  0.055339  0  0.087891  0.125437  0  1.025169  0
H  H21  1  0.06389900  0.78390322  0.54662618  1  0.055319  0  0.087909  0.125502  0  1.02517  0
H  H22  1  0.68885391  0.52949485  0.76262523  1  0.062502  0  0.085721  0.131208  0  1.007601  0
H  H23  1  0.81114520  0.23737493  0.47050394  1  0.062489  0  0.085716  0.131203  0  1.007598  0
H  H24  1  0.31114414  0.47050384  0.23737460  1  0.062478  0  0.085711  0.131171  0  1.0076  0
H  H25  1  0.18885467  0.76262511  0.52949558  1  0.062494  0  0.085711  0.131199  0  1.007601  0
H  H26  1  0.33769933  0.08878072  0.59246049  1  0.090869  0  0.101292  0.073265  0  1.03222  0
H  H27  1  0.16229722  0.40754002  0.91121916  1  0.090942  0  0.101276  0.073257  0  1.032232  0
H  H28  1  0.66229984  0.91121932  0.40753858  1  0.090861  0  0.101303  0.073294  0  1.03219  0
H  H29  1  0.83770182  0.59245732  0.08878338  1  0.090905  0  0.101301  0.073315  0  1.032233  0
H  H30  1  0.62971612  0.05545973  0.52631911  1  0.117963  0  0.100462  0.066649  0  1.045393  0
H  H31  1  0.87028029  0.47368235  0.94454307  1  0.117993  0  0.100443  0.066573  0  1.045351  0
H  H32  1  0.37028236  0.94454031  0.47368199  1  0.117964  0  0.1005  0.066732  0  1.045336  0
H  H33  1  0.12971917  0.52631635  0.05546012  1  0.117942  0  0.100463  0.066595  0  1.045343  0
H  H34  1  0.34405397  0.93817075  0.71004201  1  0.119764  0  0.103001  0.121463  0  1.002142  0
H  H35  1  0.15594427  0.28995899  0.06182921  1  0.119918  0  0.102985  0.121452  0  1.002152  0
H  H36  1  0.65594340  0.06183131  0.28995741  1  0.119788  0  0.102993  0.121479  0  1.002161  0
H  H37  1  0.84405462  0.71003903  0.93817251  1  0.119988  0  0.102931  0.121287  0  1.002091  0
H  H38  1  0.57958541  0.43342510  0.89660086  1  0.074746  0  0.091776  0.098523  0  1.052967  0
H  H39  1  0.92041523  0.10340082  0.56657249  1  0.074718  0  0.091759  0.098476  0  1.052988  0
H  H40  1  0.42041626  0.56657293  0.10339893  1  0.07475  0  0.091762  0.09849  0  1.05298  0
H  H41  1  0.07958645  0.89660058  0.43342610  1  0.074747  0  0.091792  0.098537  0  1.052964  0
H  H42  1  0.58817922  0.39176178  0.01239237  1  0.100695  0  0.101656  0.112594  0  1.027421  0
H  H43  1  0.91182295  0.98760864  0.60823777  1  0.100699  0  0.101644  0.112601  0  1.0274  0
H  H44  1  0.41182370  0.60823693  0.98760810  1  0.100669  0  0.1016  0.112578  0  1.027438  0
H  H45  1  0.08817900  0.01239141  0.39176185  1  0.100694  0  0.101642  0.112586  0  1.027418  0
H  H46  1  0.67282445  0.68221129  0.38968494  1  0.088962  0  0.104062  0.075657  0  1.024272  0
H  H47  1  0.82717592  0.61031495  0.31778829  1  0.089112  0  0.104043  0.075663  0  1.024317  0
H  H48  1  0.32717597  0.31778606  0.61031663  1  0.089123  0  0.104031  0.075616  0  1.024321  0
H  H49  1  0.17282520  0.38968241  0.68221373  1  0.089113  0  0.104051  0.075678  0  1.024361  0
H  H50  1  0.36732637  0.72345546  0.30458514  1  0.060952  0  0.106408  0.119978  0  0.990582  0
H  H51  1  0.13267412  0.69541602  0.27654197  1  0.061025  0  0.106378  0.119926  0  0.990603  0
H  H52  1  0.63267653  0.27654325  0.69541163  1  0.06094  0  0.106389  0.119967  0  0.99057  0
H  H53  1  0.86732438  0.30458739  0.72346040  1  0.060949  0  0.106396  0.119966  0  0.990639  0
H  H54  1  0.60061523  0.10183948  0.07707176  1  0.098078  0  0.097905  0.064009  0  1.05393  0
H  H55  1  0.89938445  0.92292740  0.89816284  1  0.098055  0  0.097899  0.063984  0  1.05399  0
H  H56  1  0.39938464  0.89816394  0.92292532  1  0.098008  0  0.097946  0.064087  0  1.054103  0
H  H57  1  0.10061708  0.07707130  0.10183736  1  0.098091  0  0.097913  0.064006  0  1.053966  0
H  H58  1  0.66887870  0.58070093  0.15550903  1  0.095276  0  0.089475  0.105154  0  1.056254  0
H  H59  1  0.83112306  0.84448806  0.41930107  1  0.095229  0  0.089445  0.105107  0  1.056292  0
H  H60  1  0.33112450  0.41929981  0.84448818  1  0.095293  0  0.089446  0.105112  0  1.056215  0
H  H61  1  0.16887389  0.15551265  0.58069955  1  0.09528  0  0.089439  0.105089  0  1.056263  0
H  H62  1  0.66372212  0.69745916  0.09755645  1  0.071537  0  0.098686  0.114193  0  1.001624  0
H  H63  1  0.83627547  0.90244266  0.30254252  1  0.071536  0  0.098671  0.114197  0  1.001609  0
H  H64  1  0.33627843  0.30254089  0.90244228  1  0.071517  0  0.098682  0.114182  0  1.00167  0
H  H65  1  0.16372204  0.09755873  0.69745711  1  0.071564  0  0.098679  0.114198  0  1.001627  0
H  H66  1  0.67408230  0.64812812  0.25109163  1  0.078297  0  0.097448  0.107814  0  1.04883  0
H  H67  1  0.82591790  0.74890971  0.35186955  1  0.078317  0  0.097455  0.107838  0  1.048792  0
H  H68  1  0.32592146  0.35186992  0.74890888  1  0.078354  0  0.097468  0.107838  0  1.048819  0
H  H69  1  0.17407974  0.25109100  0.64812967  1  0.078359  0  0.097477  0.107819  0  1.04878  0
H  H70  1  0.89316784  0.06076128  0.00273001  1  0.108645  0  0.102053  0.074853  0  1.023985  0
H  H71  1  0.60683276  0.99726918  0.93923951  1  0.108786  0  0.102054  0.074863  0  1.024099  0
H  H72  1  0.10683329  0.93923944  0.99727142  1  0.108705  0  0.102086  0.074902  0  1.024003  0
H  H73  1  0.39316892  0.00273222  0.06075970  1  0.108723  0  0.102047  0.074852  0  1.024103  0
H  H74  1  0.89145291  0.22495649  0.93268177  1  0.105853  0  0.09392  0.12443  0  1.030159  0
H  H75  1  0.60854840  0.06731727  0.77504481  1  0.105893  0  0.09393  0.124463  0  1.030126  0
H  H76  1  0.10855169  0.77504425  0.06731880  1  0.10592  0  0.093933  0.124574  0  1.030182  0
H  H77  1  0.39145327  0.93268413  0.22495316  1  0.105841  0  0.093917  0.124446  0  1.030185  0
H  H78  1  0.65027268  0.90433617  0.64031238  1  0.068652  0  0.101055  0.112919  0  1.038463  0
H  H79  1  0.84972571  0.35968506  0.09566614  1  0.068502  0  0.101045  0.112897  0  1.038557  0
H  H80  1  0.34972413  0.09566521  0.35968803  1  0.068594  0  0.101036  0.112888  0  1.03843  0
H  H81  1  0.15027484  0.64031161  0.90433503  1  0.068481  0  0.101043  0.112891  0  1.038476  0
H  H82  1  0.58450548  0.26705804  0.00804733  1  0.093685  0  0.100263  0.111461  0  1.047202  0
H  H83  1  0.91549557  0.99195186  0.73294502  1  0.093443  0  0.100248  0.111459  0  1.047204  0
H  H84  1  0.41549730  0.73294471  0.99194864  1  0.093462  0  0.10027  0.111437  0  1.04719  0
H  H85  1  0.08450763  0.00804551  0.26705524  1  0.093517  0  0.100262  0.111477  0  1.047279  0
H  H86  1  0.63542946  0.47179635  0.16840377  1  0.066277  0  0.084873  0.131544  0  1.041703  0
H  H87  1  0.86456760  0.83159576  0.52820508  1  0.066268  0  0.084875  0.131531  0  1.041743  0
H  H88  1  0.36456915  0.52820301  0.83159630  1  0.066252  0  0.084887  0.131541  0  1.041718  0
H  H89  1  0.13543158  0.16840428  0.47179522  1  0.066269  0  0.08488  0.13154  0  1.041726  0
H  H90  1  0.69251580  0.40384623  0.09770168  1  0.063365  0  0.08685  0.126353  0  1.018539  0
H  H91  1  0.80748170  0.90229993  0.59615404  1  0.063372  0  0.086885  0.126392  0  1.01858  0
H  H92  1  0.30748309  0.59615179  0.90230003  1  0.063382  0  0.08685  0.126352  0  1.01855  0
H  H93  1  0.19251748  0.09770011  0.40384688  1  0.063387  0  0.086893  0.12644  0  1.018561  0
H  H94  1  0.56835589  0.42492631  0.12779160  1  0.048367  0  0.090586  0.131943  0  1.02686  0
H  H95  1  0.93164218  0.87220685  0.57507630  1  0.048316  0  0.090592  0.131971  0  1.026834  0
H  H96  1  0.43164314  0.57507440  0.87220665  1  0.048382  0  0.090568  0.131933  0  1.02688  0
H  H97  1  0.06835700  0.12779319  0.42492462  1  0.04831  0  0.090595  0.131954  0  1.026862  0
H  H98  1  0.38063514  0.75017162  0.44336338  1  0.088968  0  0.097975  0.06457  0  1.059531  0
H  H99  1  0.11936534  0.55663587  0.24982841  1  0.088962  0  0.097958  0.06455  0  1.059544  0
H  H100  1  0.61936581  0.24982641  0.55663411  1  0.088913  0  0.09795  0.064542  0  1.05955  0
H  H101  1  0.88063566  0.44336553  0.75017406  1  0.088932  0  0.097949  0.064577  0  1.059507  0
H  H102  1  0.59926881  0.80023847  0.01212550  1  0.066997  0  0.080577  0.117044  0  1.066841  0
H  H103  1  0.90073042  0.98787347  0.19976176  1  0.067029  0  0.08056  0.117027  0  1.06685  0
H  H104  1  0.40073202  0.19976023  0.98787364  1  0.066989  0  0.080564  0.117017  0  1.066855  0
H  H105  1  0.09926792  0.01212725  0.80023852  1  0.067008  0  0.080564  0.117014  0  1.066825  0
H  H106  1  0.56654882  0.84057215  0.90581289  1  0.051483  0  0.085894  0.12293  0  1.03155  0
H  H107  1  0.93345104  0.09418536  0.15942832  1  0.051501  0  0.085892  0.122928  0  1.031543  0
H  H108  1  0.43345188  0.15942723  0.09418728  1  0.051476  0  0.085885  0.122925  0  1.031554  0
H  H109  1  0.06654757  0.90581400  0.84057237  1  0.051479  0  0.085895  0.122927  0  1.031545  0
H  H110  1  0.68745351  0.81309385  0.91295886  1  0.068198  0  0.089484  0.131551  0  1.006047  0
H  H111  1  0.81254693  0.08703991  0.18690674  1  0.068206  0  0.089487  0.131553  0  1.006041  0
H  H112  1  0.31254718  0.18690553  0.08704069  1  0.068206  0  0.089494  0.13156  0  1.006045  0
H  H113  1  0.18745294  0.91296014  0.81309340  1  0.068231  0  0.089501  0.131571  0  1.006024  0
C  C114  1  0.62322953  0.76094129  0.77963156  1  -0.150879  0  -0.149687  -0.217947  0  3.902498  0
C  C115  1  0.87676919  0.22036676  0.23905869  1  -0.151012  0  -0.14971  -0.21803  0  3.902453  0
C  C116  1  0.37676977  0.23905807  0.22036772  1  -0.151017  0  -0.149724  -0.218056  0  3.902533  0
C  C117  1  0.12322859  0.77963328  0.76094134  1  -0.151045  0  -0.149702  -0.218055  0  3.902571  0
C  C118  1  0.62385819  0.57709020  0.77836838  1  -0.096407  0  -0.250728  -0.413554  0  3.957663  0
C  C119  1  0.87614063  0.22163245  0.42290956  1  -0.096387  0  -0.250735  -0.4135  0  3.957635  0
C  C120  1  0.37614028  0.42290984  0.22163211  1  -0.096353  0  -0.25071  -0.413399  0  3.957552  0
C  C121  1  0.12385841  0.77836827  0.57709054  1  -0.096399  0  -0.250742  -0.413599  0  3.95773  0
C  C122  1  0.40530362  0.04546523  0.60643905  1  0.462044  0  0.034433  0.093277  0  3.978487  0
C  C123  1  0.09469727  0.39356041  0.95453672  1  0.461683  0  0.03445  0.093357  0  3.978267  0
C  C124  1  0.59469360  0.95453750  0.39355955  1  0.462089  0  0.034397  0.093206  0  3.97857  0
C  C125  1  0.90530121  0.60643962  0.04546438  1  0.461711  0  0.03439  0.09319  0  3.978364  0
C  C126  1  0.49830323  0.90892282  0.68722195  1  -0.188936  0  0.002182  0.087977  0  4.063554  0
C  C127  1  0.00169809  0.31277678  0.09107756  1  -0.188999  0  0.002188  0.087877  0  4.063411  0
C  C128  1  0.50169289  0.09107856  0.31277864  1  -0.189036  0  0.002146  0.087854  0  4.063696  0
C  C129  1  0.99830080  0.68722124  0.90892415  1  -0.189009  0  0.002179  0.087917  0  4.063398  0
C  C130  1  0.62177140  0.59580115  0.86386778  1  -0.014129  0  -0.011417  0.0819  0  3.930966  0
C  C131  1  0.87822784  0.13613146  0.40419779  1  -0.014086  0  -0.011433  0.081836  0  3.93113  0
C  C132  1  0.37822873  0.40419755  0.13613091  1  -0.014177  0  -0.011436  0.081818  0  3.93112  0
C  C133  1  0.12177132  0.86386859  0.59580128  1  -0.014119  0  -0.01142  0.081904  0  3.931068  0
C  C134  1  0.56824432  0.02724916  0.56947178  1  0.480434  0  0.036758  0.095178  0  3.984072  0
C  C135  1  0.93175675  0.43052697  0.97275391  1  0.480475  0  0.036794  0.095249  0  3.984384  0
C  C136  1  0.43175305  0.97275290  0.43052765  1  0.480368  0  0.036752  0.095037  0  3.984033  0
C  C137  1  0.06824243  0.56947307  0.02724763  1  0.480489  0  0.036749  0.095227  0  3.984564  0
C  C138  1  0.52005273  0.68312629  0.26533631  1  -0.18266  0  0.005999  0.101225  0  4.046441  0
C  C139  1  0.97994677  0.73466463  0.31687120  1  -0.182608  0  0.005972  0.101222  0  4.046427  0
C  C140  1  0.47994836  0.31687106  0.73466200  1  -0.182589  0  0.00602  0.101318  0  4.046461  0
C  C141  1  0.02005547  0.26533745  0.68312886  1  -0.18258  0  0.006009  0.101297  0  4.04644  0
C  C142  1  0.40914769  0.96219605  0.67180560  1  -0.028759  0  -0.096262  -0.179806  0  3.96956  0
C  C143  1  0.09084654  0.32819564  0.03780540  1  -0.028626  0  -0.096192  -0.179732  0  3.969694  0
C  C144  1  0.59085079  0.03780399  0.32819550  1  -0.028725  0  -0.096264  -0.179794  0  3.969633  0
C  C145  1  0.90915417  0.67180037  0.96219905  1  -0.028874  0  -0.096166  -0.179544  0  3.969652  0
C  C146  1  0.61929030  0.43169632  0.94554665  1  -0.131306  0  -0.146055  -0.211462  0  3.908275  0
C  C147  1  0.88071144  0.05445338  0.56830308  1  -0.131313  0  -0.146035  -0.211416  0  3.908237  0
C  C148  1  0.38071247  0.56830306  0.05445176  1  -0.13135  0  -0.146014  -0.21143  0  3.908257  0
C  C149  1  0.11928967  0.94554735  0.43169526  1  -0.131322  0  -0.14605  -0.211456  0  3.908234  0
C  C150  1  0.60670706  0.68972698  0.36820582  1  0.538605  0  0.040374  0.098  0  3.972443  0
C  C151  1  0.89329253  0.63179427  0.31027305  1  0.538431  0  0.040371  0.097974  0  3.972615  0
C  C152  1  0.39329392  0.31027105  0.63179538  1  0.538579  0  0.040481  0.098113  0  3.972491  0
C  C153  1  0.10670984  0.36820376  0.68972842  1  0.53836  0  0.040372  0.097898  0  3.97231  0
C  C154  1  0.43672604  0.71229615  0.32124903  1  0.063756  0  -0.094895  -0.184227  0  3.963616  0
C  C155  1  0.06327540  0.67875109  0.28770070  1  0.063656  0  -0.094821  -0.184088  0  3.963605  0
C  C156  1  0.56327714  0.28770121  0.67874876  1  0.063732  0  -0.094877  -0.184265  0  3.963599  0
C  C157  1  0.93671990  0.32125096  0.71230171  1  0.063812  0  -0.094811  -0.184155  0  3.963456  0
C  C158  1  0.62249899  0.69740273  0.94583219  1  -0.040572  0  -0.012655  0.074275  0  3.933471  0
C  C159  1  0.87750073  0.05416611  0.30259669  1  -0.04057  0  -0.012605  0.074395  0  3.933386  0
C  C160  1  0.37750266  0.30259529  0.05416636  1  -0.040685  0  -0.012622  0.074338  0  3.933413  0
C  C161  1  0.12249760  0.94583460  0.69740235  1  -0.040685  0  -0.012659  0.074241  0  3.933601  0
C  C162  1  0.66329049  0.13226870  0.04414604  1  0.449236  0  0.037327  0.095479  0  3.98736  0
C  C163  1  0.83670611  0.95585340  0.86773593  1  0.449663  0  0.037257  0.095413  0  3.987681  0
C  C164  1  0.33671313  0.86773676  0.95584877  1  0.449576  0  0.037293  0.095323  0  3.987309  0
C  C165  1  0.16329527  0.04414598  0.13226221  1  0.449409  0  0.037257  0.095416  0  3.987536  0
C  C166  1  0.62318533  0.68226813  0.86484225  1  0.014933  0  -0.025843  -0.000921  0  3.93261  0
C  C167  1  0.87681334  0.13515723  0.31773306  1  0.014891  0  -0.025845  -0.000902  0  3.932573  0
C  C168  1  0.37681427  0.31773326  0.13515809  1  0.015074  0  -0.025862  -0.000906  0  3.932567  0
C  C169  1  0.12318445  0.86484281  0.68226821  1  0.015055  0  -0.025837  -0.000858  0  3.932535  0
C  C170  1  0.63033710  0.63990676  0.11107069  1  -0.138153  0  -0.147761  -0.220585  0  3.934858  0
C  C171  1  0.86966380  0.88892770  0.36009354  1  -0.138114  0  -0.147734  -0.220538  0  3.934766  0
C  C172  1  0.36966664  0.36009128  0.88892673  1  -0.138342  0  -0.147722  -0.220486  0  3.9347  0
C  C173  1  0.13033371  0.11107368  0.63990670  1  -0.138275  0  -0.14772  -0.220487  0  3.93466  0
C  C174  1  0.60696330  0.67142594  0.29041345  1  -0.037952  0  -0.097631  -0.182819  0  3.973061  0
C  C175  1  0.89303739  0.70958638  0.32857159  1  -0.037923  0  -0.097657  -0.182886  0  3.973192  0
C  C176  1  0.39303920  0.32857141  0.70958699  1  -0.037978  0  -0.097711  -0.182926  0  3.973247  0
C  C177  1  0.10695857  0.29041230  0.67142938  1  -0.037976  0  -0.097692  -0.182809  0  3.973287  0
C  C178  1  0.62139203  0.52431193  0.94518724  1  -0.02618  0  -0.027201  -0.013231  0  3.93885  0
C  C179  1  0.87860853  0.05481283  0.47568867  1  -0.026143  0  -0.027209  -0.01324  0  3.938845  0
C  C180  1  0.37860839  0.47568879  0.05481313  1  -0.026142  0  -0.02719  -0.013234  0  3.938851  0
C  C181  1  0.12139272  0.94518723  0.52431112  1  -0.026297  0  -0.027177  -0.013236  0  3.938901  0
C  C182  1  0.82631271  0.10915405  0.00278939  1  0.392551  0  0.037601  0.1013  0  3.966816  0
C  C183  1  0.67368452  0.99721041  0.89084980  1  0.392375  0  0.037576  0.101223  0  3.96674  0
C  C184  1  0.17369107  0.89085073  0.99720871  1  0.392592  0  0.037641  0.101399  0  3.966716  0
C  C185  1  0.32631714  0.00279099  0.10914570  1  0.392456  0  0.037652  0.101313  0  3.966474  0
C  C186  1  0.62632841  0.53680716  0.02579604  1  -0.024769  0  -0.010344  0.079577  0  3.927365  0
C  C187  1  0.87367235  0.97420215  0.46319213  1  -0.024513  0  -0.010326  0.079598  0  3.927395  0
C  C188  1  0.37367311  0.46319155  0.97420169  1  -0.024518  0  -0.010308  0.079627  0  3.927484  0
C  C189  1  0.12632681  0.02579789  0.53680694  1  -0.024599  0  -0.010336  0.079592  0  3.927385  0
C  C190  1  0.73744574  0.26110329  0.96503991  1  -0.156701  0  0.003693  0.08993  0  4.056051  0
C  C191  1  0.76255351  0.03496049  0.73889887  1  -0.1568  0  0.003675  0.089917  0  4.056142  0
C  C192  1  0.26256052  0.73889948  0.03495705  1  -0.156814  0  0.003576  0.089863  0  4.056436  0
C  C193  1  0.23744788  0.96503888  0.26109989  1  -0.156707  0  0.003635  0.090001  0  4.056038  0
C  C194  1  0.82503638  0.20060980  0.96346488  1  0.042402  0  -0.098492  -0.185386  0  3.948364  0
C  C195  1  0.67496627  0.03653516  0.79938883  1  0.042515  0  -0.098534  -0.185455  0  3.948376  0
C  C196  1  0.17496390  0.79938822  0.03653649  1  0.042558  0  -0.098595  -0.185774  0  3.948269  0
C  C197  1  0.32503596  0.96346355  0.20061305  1  0.042745  0  -0.098536  -0.185509  0  3.94806  0
C  C198  1  0.57933580  0.94297334  0.63384056  1  0.031655  0  -0.100219  -0.195212  0  3.977944  0
C  C199  1  0.92065804  0.36616141  0.05702808  1  0.03172  0  -0.100268  -0.195183  0  3.97774  0
C  C200  1  0.42066268  0.05702670  0.36616115  1  0.031723  0  -0.100226  -0.195135  0  3.978144  0
C  C201  1  0.07934128  0.63383458  0.94297734  1  0.031851  0  -0.100277  -0.195232  0  3.97786  0
C  C202  1  0.65476561  0.22501503  0.00565949  1  -0.012567  0  -0.099867  -0.195709  0  3.986494  0
C  C203  1  0.84523797  0.99433956  0.77498588  1  -0.012377  0  -0.099843  -0.195728  0  3.986277  0
C  C204  1  0.34523564  0.77498502  0.99433906  1  -0.012446  0  -0.099779  -0.19552  0  3.986585  0
C  C205  1  0.15476454  0.00565780  0.22501518  1  -0.012733  0  -0.099864  -0.195831  0  3.986268  0
C  C206  1  0.62715833  0.62404776  0.02553668  1  0.000173  0  -0.026009  -0.008831  0  3.931358  0
C  C207  1  0.87284163  0.97446289  0.37595344  1  0.000163  0  -0.026029  -0.008899  0  3.931414  0
C  C208  1  0.37284348  0.37595297  0.97446273  1  0.000184  0  -0.026042  -0.008892  0  3.931463  0
C  C209  1  0.12715672  0.02553782  0.62404745  1  0.00018  0  -0.026033  -0.008852  0  3.93142  0
C  C210  1  0.63079103  0.45636076  0.10927529  1  -0.115665  0  -0.244901  -0.413916  0  3.955511  0
C  C211  1  0.86920706  0.89072473  0.54363982  1  -0.115907  0  -0.24494  -0.41398  0  3.955614  0
C  C212  1  0.36920814  0.54363928  0.89072502  1  -0.11597  0  -0.244894  -0.413907  0  3.955598  0
C  C213  1  0.13079267  0.10927599  0.45635949  1  -0.115662  0  -0.24494  -0.414006  0  3.95563  0
C  C214  1  0.44365148  0.72796436  0.39809257  1  0.460857  0  0.035393  0.09124  0  3.981315  0
C  C215  1  0.05634853  0.60190810  0.27203491  1  0.460833  0  0.035371  0.09119  0  3.981378  0
C  C216  1  0.55634948  0.27203366  0.60190615  1  0.460837  0  0.035399  0.091264  0  3.98122  0
C  C217  1  0.94365442  0.39809398  0.72796745  1  0.46083  0  0.035339  0.091107  0  3.981652  0
C  C218  1  0.61874418  0.79191584  0.94492698  1  -0.143092  0  -0.248894  -0.417819  0  3.969061  0
C  C219  1  0.88125574  0.05507207  0.20808479  1  -0.143177  0  -0.248896  -0.417846  0  3.969054  0
C  C220  1  0.38125638  0.20808420  0.05507237  1  -0.143105  0  -0.248897  -0.417839  0  3.969117  0
C  C221  1  0.11874259  0.94492865  0.79191487  1  -0.143118  0  -0.248918  -0.417816  0  3.969092  0
S  S222  1  0.49923298  0.80501709  0.77019732  1  0.103782  0  0.031019  0.031318  0  2.789989  0
S  S223  1  0.00076504  0.22979952  0.19498246  1  0.103751  0  0.031015  0.031364  0  2.790006  0
S  S224  1  0.50076522  0.19498429  0.22980214  1  0.10376  0  0.03106  0.031404  0  2.789983  0
S  S225  1  0.99923397  0.77019782  0.80501761  1  0.103821  0  0.031039  0.03139  0  2.789994  0
S  S226  1  0.50842373  0.66500851  0.16900199  1  0.096265  0  0.02722  0.026293  0  2.701753  0
S  S227  1  0.99157657  0.83100047  0.33498748  1  0.096246  0  0.027231  0.026277  0  2.701738  0
S  S228  1  0.49157904  0.33498750  0.83099886  1  0.096439  0  0.027212  0.026244  0  2.701708  0
S  S229  1  0.00842038  0.16900024  0.66501376  1  0.096344  0  0.027245  0.026271  0  2.701622  0
S  S230  1  0.74128880  0.37512270  0.91740335  1  0.10664  0  0.043949  0.039866  0  2.748963  0
S  S231  1  0.75871231  0.08259614  0.62487920  1  0.106703  0  0.043951  0.039892  0  2.748937  0
S  S232  1  0.25871343  0.62487938  0.08259548  1  0.106759  0  0.04398  0.039916  0  2.748887  0
S  S233  1  0.24128950  0.91740459  0.37512021  1  0.106674  0  0.04394  0.039863  0  2.748895  0
Br  Br234  1  0.70830022  0.73136334  0.54151891  1  -0.456083  0  -0.219989  -0.355517  0  1.298887  0
Br  Br235  1  0.79169745  0.45848126  0.26863659  1  -0.455978  0  -0.219958  -0.355497  0  1.298908  0
Br  Br236  1  0.29169926  0.26864884  0.45847639  1  -0.455969  0  -0.21998  -0.355508  0  1.298873  0
Br  Br237  1  0.20830033  0.54151878  0.73136407  1  -0.456108  0  -0.219994  -0.355533  0  1.29889  0
Br  Br238  1  0.57703177  0.90938323  0.15039785  1  -0.437689  0  -0.229579  -0.353279  0  1.338459  0
Br  Br239  1  0.92296822  0.84960293  0.09061565  1  -0.437722  0  -0.229583  -0.353312  0  1.338475  0
Br  Br240  1  0.42296810  0.09061681  0.84960228  1  -0.437693  0  -0.229572  -0.353281  0  1.338479  0
Br  Br241  1  0.07703095  0.15039711  0.90938466  1  -0.437694  0  -0.229575  -0.353289  0  1.338484  0
Br  Br242  1  0.36093193  0.76183486  0.62931310  1  -0.434126  0  -0.243592  -0.360131  0  1.312239  0
Br  Br243  1  0.13906378  0.37068573  0.23816899  1  -0.434089  0  -0.243593  -0.360104  0  1.312235  0
Br  Br244  1  0.63906723  0.23816518  0.37068598  1  -0.434133  0  -0.243598  -0.360143  0  1.312235  0
Br  Br245  1  0.86093277  0.62931363  0.76183530  1  -0.434114  0  -0.24359  -0.360123  0  1.31224  0
N  N246  1  0.74686509  0.07507979  0.04366272  1  -1.210174  0  -0.329921  -0.22717  0  3.510888  0
N  N247  1  0.75313759  0.95633632  0.92492065  1  -1.210583  0  -0.3298  -0.226991  0  3.511248  0
N  N248  1  0.25313325  0.92492093  0.95633694  1  -1.210588  0  -0.329895  -0.227117  0  3.511196  0
N  N249  1  0.24686381  0.04366306  0.07507934  1  -1.210368  0  -0.329797  -0.226943  0  3.511308  0
N  N250  1  0.52718480  0.71731817  0.42133596  1  -1.210265  0  -0.322814  -0.211291  0  3.509214  0
N  N251  1  0.97281682  0.57866310  0.28268120  1  -1.210135  0  -0.322744  -0.211188  0  3.509153  0
N  N252  1  0.47281630  0.28267918  0.57866359  1  -1.210251  0  -0.322833  -0.211296  0  3.509143  0
N  N253  1  0.02718168  0.42133694  0.71732237  1  -1.210268  0  -0.322768  -0.211172  0  3.509256  0
N  N254  1  0.48322579  0.07811076  0.55592287  1  -1.219494  0  -0.323322  -0.215283  0  3.507558  0
N  N255  1  0.01676583  0.44407954  0.92189167  1  -1.219374  0  -0.323329  -0.215346  0  3.507776  0
N  N256  1  0.51677338  0.92188928  0.44407744  1  -1.219374  0  -0.323306  -0.215201  0  3.507406  0
N  N257  1  0.98323432  0.55591916  0.07811135  1  -1.219376  0  -0.323262  -0.215238  0  3.507579  0
