# generated using pymatgen
data_SnPH4C5NO3
_symmetry_space_group_name_H-M   'P 1'
_cell_length_a   4.98162370
_cell_length_b   10.77183400
_cell_length_c   14.06506083
_cell_angle_alpha   90.00002759
_cell_angle_beta   94.06830120
_cell_angle_gamma   90.00008684
_symmetry_Int_Tables_number   1
_chemical_formula_structural   SnPH4C5NO3
_chemical_formula_sum   'Sn4 P4 H16 C20 N4 O12'
_cell_volume   752.84654815
_cell_formula_units_Z   4
loop_
 _symmetry_equiv_pos_site_id
 _symmetry_equiv_pos_as_xyz
  1  'x, y, z'
loop_
 _atom_site_type_symbol
 _atom_site_label
 _atom_site_symmetry_multiplicity
 _atom_site_fract_x
 _atom_site_fract_y
 _atom_site_fract_z
 _atom_site_occupancy
 _atom_site_hle17_bader_spin_density
 _atom_site_hle17_ddec_charge
 _atom_site_hle17_ddec_spin_density
 _atom_site_hle17_ddec_sum_bond_order
 _atom_site_hle17_magmom
 _atom_site_hse06_10hf_bader_spin_density
 _atom_site_hse06_10hf_ddec_charge
 _atom_site_hse06_10hf_ddec_spin_density
 _atom_site_hse06_10hf_ddec_sum_bond_order
 _atom_site_hse06_10hf_magmom
 _atom_site_hse06_bader_spin_density
 _atom_site_hse06_ddec_charge
 _atom_site_hse06_ddec_spin_density
 _atom_site_hse06_ddec_sum_bond_order
 _atom_site_hse06_magmom
 _atom_site_pbe_bader_spin_density
 _atom_site_pbe_cm5_charge
 _atom_site_pbe_ddec_charge
 _atom_site_pbe_ddec_spin_density
 _atom_site_pbe_ddec_sum_bond_order
 _atom_site_pbe_magmom
Sn  Sn0  1  0.27076489  0.14929606  0.38586769  1  0  1.096767  0  2.020175  0  0  0.908462  0  2.481983  0  0  0.945664  0  2.457428  0  0  0.538189  0.882264  0  2.497501  0
Sn  Sn1  1  0.72923204  0.64929548  0.11413193  1  0  1.096754  0  2.020173  0  0  0.908457  0  2.481982  0  0  0.945656  0  2.457422  0  0  0.538193  0.882267  0  2.497497  0
Sn  Sn2  1  0.72923060  0.85070424  0.61413150  1  0  1.096801  0  2.020181  0  0  0.908502  0  2.481958  0  0  0.945715  0  2.457403  0  0  0.538206  0.882295  0  2.497487  0
Sn  Sn3  1  0.27076749  0.35070389  0.88586808  1  0  1.096781  0  2.020156  0  0  0.908488  0  2.481942  0  0  0.945689  0  2.457383  0  0  0.538191  0.882281  0  2.497473  0
P  P4  1  0.82627855  0.15271726  0.55044124  1  0  1.461463  0  4.870825  0  0  1.297014  0  5.347829  0  0  1.350991  0  5.30679  0  0  0.370719  1.260201  0  5.374827  0
P  P5  1  0.17371887  0.65271651  0.94955896  1  0  1.461417  0  4.87084  0  0  1.296989  0  5.347845  0  0  1.350952  0  5.306804  0  0  0.370728  1.26019  0  5.374837  0
P  P6  1  0.17371896  0.84728303  0.44955871  1  0  1.461476  0  4.87081  0  0  1.297034  0  5.347814  0  0  1.351004  0  5.306777  0  0  0.370731  1.260225  0  5.374813  0
P  P7  1  0.82628066  0.34728286  0.05044175  1  0  1.461492  0  4.870814  0  0  1.29705  0  5.347824  0  0  1.351018  0  5.306785  0  0  0.370734  1.260239  0  5.374819  0
H  H8  1  0.48371298  0.21961388  0.70391549  1  0  0.065157  0  0.977857  0  0  0.06871  0  1.057069  0  0  0.071269  0  1.054591  0  0  0.111502  0.066724  0  1.059008  0
H  H9  1  0.51628667  0.71961234  0.79608408  1  0  0.06513  0  0.97782  0  0  0.0687  0  1.057018  0  0  0.071251  0  1.054562  0  0  0.111501  0.066714  0  1.058957  0
H  H10  1  0.51628653  0.78038735  0.29608380  1  0  0.065141  0  0.977819  0  0  0.068708  0  1.057024  0  0  0.071264  0  1.054558  0  0  0.111506  0.066722  0  1.058963  0
H  H11  1  0.48371486  0.28038610  0.20391598  1  0  0.065164  0  0.977857  0  0  0.068703  0  1.057076  0  0  0.071262  0  1.054599  0  0  0.111506  0.066717  0  1.059015  0
H  H12  1  0.06806026  0.58007323  0.66338760  1  0  0.0997  0  0.959556  0  0  0.106684  0  1.026049  0  0  0.109604  0  1.026326  0  0  0.106336  0.105544  0  1.023761  0
H  H13  1  0.93193893  0.08007145  0.83661262  1  0  0.099697  0  0.959564  0  0  0.106716  0  1.026035  0  0  0.109624  0  1.026323  0  0  0.106357  0.105581  0  1.023731  0
H  H14  1  0.93194127  0.41992707  0.33661245  1  0  0.099708  0  0.959538  0  0  0.106688  0  1.026051  0  0  0.109604  0  1.026331  0  0  0.106347  0.105554  0  1.02374  0
H  H15  1  0.06806059  0.91992792  0.16338739  1  0  0.099704  0  0.959568  0  0  0.106723  0  1.026033  0  0  0.109633  0  1.026319  0  0  0.106358  0.105585  0  1.023736  0
H  H16  1  0.11203671  0.39443258  0.55683494  1  0  0.096766  0  0.927837  0  0  0.111653  0  0.981371  0  0  0.11425  0  0.979795  0  0  0.110273  0.109656  0  0.982809  0
H  H17  1  0.88796555  0.89443140  0.94316547  1  0  0.096744  0  0.927866  0  0  0.111614  0  0.981421  0  0  0.114217  0  0.97984  0  0  0.110271  0.109618  0  0.982858  0
H  H18  1  0.88796078  0.60556864  0.44316359  1  0  0.096762  0  0.92785  0  0  0.111632  0  0.981407  0  0  0.114236  0  0.979824  0  0  0.110275  0.109636  0  0.982844  0
H  H19  1  0.11203800  0.10556890  0.05683534  1  0  0.096803  0  0.9278  0  0  0.11166  0  0.981373  0  0  0.114258  0  0.979797  0  0  0.110288  0.109664  0  0.98281  0
H  H20  1  0.74093488  0.56841532  0.79170957  1  0  0.08735  0  0.958541  0  0  0.092626  0  1.028506  0  0  0.095816  0  1.024715  0  0  0.117004  0.090319  0  1.031202  0
H  H21  1  0.25906427  0.06841485  0.70829064  1  0  0.087351  0  0.958537  0  0  0.092619  0  1.028505  0  0  0.09581  0  1.024712  0  0  0.116992  0.090311  0  1.031203  0
H  H22  1  0.25906667  0.43158404  0.20829190  1  0  0.087389  0  0.958611  0  0  0.092667  0  1.028558  0  0  0.095858  0  1.024766  0  0  0.117019  0.090359  0  1.031256  0
H  H23  1  0.74093726  0.93158452  0.29170941  1  0  0.087334  0  0.958551  0  0  0.092605  0  1.028514  0  0  0.095798  0  1.024719  0  0  0.116983  0.090297  0  1.031212  0
C  C24  1  0.80109904  0.29144574  0.62246593  1  0  -0.280018  0  3.745456  0  0  -0.237348  0  3.990851  0  0  -0.251751  0  4.013456  0  0  -0.018682  -0.228188  0  3.975453  0
C  C25  1  0.19890489  0.79144496  0.87753448  1  0  -0.279992  0  3.745411  0  0  -0.237303  0  3.990781  0  0  -0.251704  0  4.013384  0  0  -0.018676  -0.228143  0  3.975383  0
C  C26  1  0.19890047  0.70855548  0.37753337  1  0  -0.28002  0  3.745434  0  0  -0.237347  0  3.990825  0  0  -0.251749  0  4.013433  0  0  -0.0187  -0.228188  0  3.975428  0
C  C27  1  0.80110068  0.20855441  0.12246637  1  0  -0.279984  0  3.745447  0  0  -0.237303  0  3.990811  0  0  -0.251707  0  4.013419  0  0  -0.018682  -0.228143  0  3.975413  0
C  C28  1  0.61737591  0.29772225  0.69290488  1  0  0.131884  0  3.744362  0  0  0.092998  0  3.994732  0  0  0.100257  0  4.014598  0  0  0.053522  0.088651  0  3.980848  0
C  C29  1  0.38262603  0.79772156  0.80709620  1  0  0.131945  0  3.744263  0  0  0.093047  0  3.994631  0  0  0.100303  0  4.014501  0  0  0.053553  0.088701  0  3.980747  0
C  C30  1  0.38262362  0.70227804  0.30709584  1  0  0.13193  0  3.744213  0  0  0.093034  0  3.994589  0  0  0.10029  0  4.014455  0  0  0.053539  0.088686  0  3.980706  0
C  C31  1  0.61737752  0.20227781  0.19290461  1  0  0.131898  0  3.744388  0  0  0.093032  0  3.994754  0  0  0.10029  0  4.014625  0  0  0.053545  0.088685  0  3.980871  0
C  C32  1  0.94137355  0.49835115  0.66966153  1  0  -0.145718  0  3.779116  0  0  -0.154956  0  4.032539  0  0  -0.163571  0  4.056096  0  0  -0.084484  -0.149454  0  4.015878  0
C  C33  1  0.05862505  0.99835024  0.83033954  1  0  -0.145663  0  3.778957  0  0  -0.154943  0  4.032374  0  0  -0.163546  0  4.055931  0  0  -0.084454  -0.149438  0  4.015718  0
C  C34  1  0.05862598  0.50164915  0.33033847  1  0  -0.145711  0  3.779002  0  0  -0.154945  0  4.03241  0  0  -0.163557  0  4.055967  0  0  -0.084503  -0.149439  0  4.015754  0
C  C35  1  0.94137649  0.00164913  0.16966122  1  0  -0.145705  0  3.778966  0  0  -0.154985  0  4.032378  0  0  -0.163589  0  4.055936  0  0  -0.084481  -0.149481  0  4.01572  0
C  C36  1  0.96440329  0.39553485  0.61054641  1  0  0.013532  0  3.72155  0  0  -0.013598  0  3.961814  0  0  -0.008848  0  3.980853  0  0  -0.060346  -0.016834  0  3.949472  0
C  C37  1  0.03559898  0.89553210  0.88945471  1  0  0.013559  0  3.72141  0  0  -0.013576  0  3.961707  0  0  -0.008832  0  3.980739  0  0  -0.06035  -0.016814  0  3.949368  0
C  C38  1  0.03559622  0.60446730  0.38945288  1  0  0.013551  0  3.721478  0  0  -0.013577  0  3.961763  0  0  -0.008834  0  3.980799  0  0  -0.060324  -0.016815  0  3.949423  0
C  C39  1  0.96440457  0.10446633  0.11054610  1  0  0.013498  0  3.721505  0  0  -0.013623  0  3.961803  0  0  -0.008874  0  3.980838  0  0  -0.060354  -0.016862  0  3.949462  0
C  C40  1  0.75702693  0.49390711  0.73993993  1  0  0.117905  0  3.716768  0  0  0.087613  0  3.970548  0  0  0.094836  0  3.987738  0  0  0.052163  0.082992  0  3.959135  0
C  C41  1  0.24297164  0.99390629  0.76006043  1  0  0.117866  0  3.716735  0  0  0.087603  0  3.970495  0  0  0.094826  0  3.987684  0  0  0.052162  0.082982  0  3.959085  0
C  C42  1  0.24297460  0.50609226  0.26006012  1  0  0.11785  0  3.716864  0  0  0.08756  0  3.97064  0  0  0.094782  0  3.98783  0  0  0.052154  0.082939  0  3.959228  0
C  C43  1  0.75702789  0.00609308  0.23994028  1  0  0.117913  0  3.716607  0  0  0.087646  0  3.970385  0  0  0.094869  0  3.98757  0  0  0.052151  0.083025  0  3.958974  0
N  N44  1  0.59556268  0.39586525  0.75033255  1  0  -0.324182  0  3.249892  0  0  -0.251074  0  3.50135  0  0  -0.268417  0  3.523133  0  0  -0.296131  -0.239462  0  3.486635  0
N  N45  1  0.40443758  0.89586454  0.74966781  1  0  -0.324215  0  3.249842  0  0  -0.251127  0  3.501318  0  0  -0.268468  0  3.523099  0  0  -0.296168  -0.239515  0  3.486605  0
N  N46  1  0.40443685  0.60413504  0.24966745  1  0  -0.324197  0  3.249814  0  0  -0.251089  0  3.50127  0  0  -0.26843  0  3.523052  0  0  -0.296143  -0.239478  0  3.486557  0
N  N47  1  0.59556396  0.10413576  0.25033295  1  0  -0.324232  0  3.249888  0  0  -0.251132  0  3.501326  0  0  -0.268473  0  3.523107  0  0  -0.296143  -0.23952  0  3.486612  0
O  O48  1  0.66430167  0.17747712  0.45460451  1  0  -0.827484  0  2.08789  0  0  -0.720756  0  2.355602  0  0  -0.748216  0  2.33774  0  0  -0.33805  -0.70116  0  2.367021  0
O  O49  1  0.33568935  0.67747344  0.04539782  1  0  -0.827476  0  2.087933  0  0  -0.720739  0  2.355628  0  0  -0.748204  0  2.337771  0  0  -0.338008  -0.701142  0  2.367041  0
O  O50  1  0.33568981  0.82252411  0.54539602  1  0  -0.827505  0  2.087946  0  0  -0.720777  0  2.355662  0  0  -0.748237  0  2.337798  0  0  -0.338036  -0.701176  0  2.367078  0
O  O51  1  0.66430818  0.32252407  0.95460355  1  0  -0.827514  0  2.08793  0  0  -0.72079  0  2.355645  0  0  -0.74825  0  2.337781  0  0  -0.338036  -0.701188  0  2.367061  0
O  O52  1  0.70843884  0.04911464  0.61020872  1  0  -0.7819  0  2.058508  0  0  -0.673668  0  2.322008  0  0  -0.700686  0  2.304621  0  0  -0.325941  -0.655606  0  2.333341  0
O  O53  1  0.29155822  0.54911486  0.88979073  1  0  -0.781861  0  2.058492  0  0  -0.673662  0  2.322032  0  0  -0.700643  0  2.304618  0  0  -0.325944  -0.65561  0  2.333367  0
O  O54  1  0.29155866  0.95088566  0.38979124  1  0  -0.781869  0  2.058476  0  0  -0.673651  0  2.322001  0  0  -0.700648  0  2.3046  0  0  -0.325948  -0.655602  0  2.333342  0
O  O55  1  0.70844130  0.45088543  0.11020927  1  0  -0.781857  0  2.05848  0  0  -0.673649  0  2.322012  0  0  -0.700638  0  2.304602  0  0  -0.325939  -0.655602  0  2.333354  0
O  O56  1  0.12633493  0.13724704  0.53497728  1  0  -0.81122  0  2.001571  0  0  -0.714355  0  2.262723  0  0  -0.741203  0  2.244749  0  0  -0.336078  -0.69564  0  2.274452  0
O  O57  1  0.87365840  0.63724771  0.96502140  1  0  -0.811249  0  2.001555  0  0  -0.714402  0  2.262729  0  0  -0.741242  0  2.244753  0  0  -0.336148  -0.695702  0  2.274461  0
O  O58  1  0.87365854  0.86275326  0.46502116  1  0  -0.811308  0  2.001584  0  0  -0.714441  0  2.262733  0  0  -0.741296  0  2.244767  0  0  -0.336132  -0.69572  0  2.274456  0
O  O59  1  0.12634112  0.36275258  0.03497860  1  0  -0.811302  0  2.001575  0  0  -0.714421  0  2.26271  0  0  -0.741282  0  2.244753  0  0  -0.336118  -0.695699  0  2.274433  0
