# generated using pymatgen
data_Cd3H10(C4O7)2
_symmetry_space_group_name_H-M   'P 1'
_cell_length_a   9.07166324
_cell_length_b   14.36310059
_cell_length_c   15.53363754
_cell_angle_alpha   90.00113692
_cell_angle_beta   90.00075122
_cell_angle_gamma   90.00289741
_symmetry_Int_Tables_number   1
_chemical_formula_structural   Cd3H10(C4O7)2
_chemical_formula_sum   'Cd12 H40 C32 O56'
_cell_volume   2023.98965522
_cell_formula_units_Z   4
loop_
 _symmetry_equiv_pos_site_id
 _symmetry_equiv_pos_as_xyz
  1  'x, y, z'
loop_
 _atom_site_type_symbol
 _atom_site_label
 _atom_site_symmetry_multiplicity
 _atom_site_fract_x
 _atom_site_fract_y
 _atom_site_fract_z
 _atom_site_occupancy
 _atom_site_pbe_bader_charge
 _atom_site_pbe_bader_spin_density
 _atom_site_pbe_cm5_charge
 _atom_site_pbe_ddec_charge
 _atom_site_pbe_ddec_spin_density
 _atom_site_pbe_ddec_sum_bond_order
 _atom_site_pbe_magmom
Cd  Cd0  1  0.39118469  0.12508353  0.50030852  1  1.311043  0  0.750963  0.998446  0  2.110885  0
Cd  Cd1  1  0.39118335  0.87490073  0.49967558  1  1.31106  0  0.750929  0.998337  0  2.110942  0
Cd  Cd2  1  0.60881933  0.37491779  0.00031159  1  1.310884  0  0.750947  0.998386  0  2.110909  0
Cd  Cd3  1  0.60881949  0.62509025  0.99968319  1  1.310967  0  0.750959  0.998375  0  2.110829  0
Cd  Cd4  1  0.10450183  0.00707007  0.61565150  1  1.34038  0  0.760554  1.049331  0  2.065764  0
Cd  Cd5  1  0.10447411  0.99290281  0.38434265  1  1.340457  0  0.760593  1.049463  0  2.065608  0
Cd  Cd6  1  0.89550369  0.49293092  0.11566668  1  1.340609  0  0.760574  1.049398  0  2.065745  0
Cd  Cd7  1  0.89550518  0.50708782  0.88434446  1  1.340174  0  0.760577  1.049425  0  2.065765  0
Cd  Cd8  1  0.23275534  0.27024154  0.21099970  1  1.300096  0  0.772149  1.015036  0  2.024579  0
Cd  Cd9  1  0.23277884  0.72975639  0.78900509  1  1.300159  0  0.772114  1.015036  0  2.024586  0
Cd  Cd10  1  0.76723468  0.22975520  0.71099565  1  1.300074  0  0.772118  1.014979  0  2.024505  0
Cd  Cd11  1  0.76721043  0.77025032  0.28900035  1  1.300011  0  0.772153  1.015004  0  2.024498  0
H  H12  1  0.31719766  0.31617334  0.56208627  1  0.609709  0  0.342024  0.376012  0  0.857809  0
H  H13  1  0.31717767  0.68380435  0.43792431  1  0.609654  0  0.342105  0.376021  0  0.857672  0
H  H14  1  0.68280555  0.18382094  0.06207606  1  0.60964  0  0.34198  0.375986  0  0.857579  0
H  H15  1  0.68281826  0.81618672  0.93792637  1  0.609708  0  0.342051  0.376087  0  0.857537  0
H  H16  1  0.18799358  0.09767685  0.77875869  1  0.608631  0  0.337791  0.373288  0  0.864072  0
H  H17  1  0.18795285  0.90230987  0.22123288  1  0.608181  0  0.337782  0.373278  0  0.864031  0
H  H18  1  0.81203656  0.40233386  0.27876640  1  0.608331  0  0.337763  0.373273  0  0.864049  0
H  H19  1  0.81202939  0.59768078  0.72123058  1  0.608315  0  0.337852  0.373346  0  0.864022  0
H  H20  1  0.61162881  0.22341648  0.39901398  1  0.622369  0  0.323707  0.411892  0  0.870669  0
H  H21  1  0.61160987  0.77658400  0.60098533  1  0.622279  0  0.323719  0.411944  0  0.870679  0
H  H22  1  0.38837096  0.27658007  0.89900984  1  0.622297  0  0.323741  0.411929  0  0.870626  0
H  H23  1  0.38839170  0.72341455  0.10099099  1  0.622275  0  0.323674  0.411849  0  0.870565  0
H  H24  1  0.70630532  0.20891786  0.48321985  1  0.648225  0  0.298601  0.397315  0  0.926548  0
H  H25  1  0.70630327  0.79106062  0.51677954  1  0.647998  0  0.298534  0.3972  0  0.926707  0
H  H26  1  0.29368974  0.29108396  0.98321204  1  0.648255  0  0.298567  0.39731  0  0.926576  0
H  H27  1  0.29370413  0.70892639  0.01677969  1  0.647802  0  0.298579  0.3973  0  0.926587  0
H  H28  1  0.79666815  0.99790975  0.67294355  1  0.628996  0  0.293159  0.39173  0  0.93584  0
H  H29  1  0.79664378  0.00207027  0.32705202  1  0.628643  0  0.293299  0.392013  0  0.935479  0
H  H30  1  0.20335488  0.50208057  0.17296171  1  0.628601  0  0.293238  0.391881  0  0.935634  0
H  H31  1  0.20335216  0.49793032  0.82704929  1  0.628574  0  0.293241  0.391927  0  0.935601  0
H  H32  1  0.78944367  0.90831275  0.61332562  1  0.639461  0  0.28848  0.391038  0  0.935546  0
H  H33  1  0.78943321  0.09166356  0.38667183  1  0.639669  0  0.288634  0.391103  0  0.935425  0
H  H34  1  0.21057362  0.59167979  0.11333391  1  0.639521  0  0.288455  0.390948  0  0.935615  0
H  H35  1  0.21056187  0.40833273  0.88666813  1  0.639677  0  0.288503  0.390914  0  0.935635  0
H  H36  1  0.08028303  0.33503244  0.49846104  1  0.099404  0  0.116829  0.088509  0  0.954217  0
H  H37  1  0.08025637  0.66494661  0.50155739  1  0.099689  0  0.116796  0.08856  0  0.954192  0
H  H38  1  0.91973111  0.16498223  0.99845051  1  0.099397  0  0.116865  0.088647  0  0.954337  0
H  H39  1  0.91975289  0.83504983  0.00155308  1  0.099695  0  0.11676  0.08849  0  0.954038  0
H  H40  1  0.97771514  0.19066942  0.43473369  1  0.075145  0  0.109698  0.074283  0  0.983428  0
H  H41  1  0.97769578  0.80931230  0.56527743  1  0.074552  0  0.109843  0.074552  0  0.9833  0
H  H42  1  0.02228984  0.30933972  0.93473315  1  0.075341  0  0.109843  0.074645  0  0.98358  0
H  H43  1  0.02230610  0.69068827  0.06527968  1  0.07469  0  0.109856  0.074594  0  0.983185  0
H  H44  1  0.43085860  0.03329734  0.80497632  1  0.088763  0  0.114193  0.085737  0  0.960337  0
H  H45  1  0.43081133  0.96669727  0.19500165  1  0.088574  0  0.114087  0.085507  0  0.959972  0
H  H46  1  0.56917103  0.46670070  0.30498659  1  0.088839  0  0.114196  0.085626  0  0.960206  0
H  H47  1  0.56917142  0.53329770  0.69500403  1  0.088701  0  0.114137  0.085592  0  0.960355  0
H  H48  1  0.52293231  0.94146145  0.68053325  1  0.099313  0  0.109749  0.075799  0  0.973548  0
H  H49  1  0.52292324  0.05854032  0.31945122  1  0.099231  0  0.109666  0.075638  0  0.973125  0
H  H50  1  0.47706995  0.55853112  0.18054553  1  0.09935  0  0.10971  0.075729  0  0.973236  0
H  H51  1  0.47705821  0.44147055  0.81944953  1  0.099213  0  0.109791  0.075884  0  0.973325  0
C  C52  1  0.22116107  0.27368900  0.40138458  1  1.572873  0  0.190827  0.554003  0  4.218154  0
C  C53  1  0.22115797  0.72630854  0.59862140  1  1.573165  0  0.190769  0.554044  0  4.218218  0
C  C54  1  0.77883655  0.22630760  0.90137991  1  1.573393  0  0.190988  0.554321  0  4.217903  0
C  C55  1  0.77884356  0.77370527  0.09862132  1  1.572925  0  0.190705  0.553851  0  4.21808  0
C  C56  1  0.14901760  0.27257899  0.49032225  1  0.419808  0  -0.011807  0.023492  0  3.867825  0
C  C57  1  0.14900596  0.72739742  0.50968962  1  0.419566  0  -0.011892  0.023104  0  3.8682  0
C  C58  1  0.85098754  0.22741532  0.99031880  1  0.420533  0  -0.012028  0.023061  0  3.868125  0
C  C59  1  0.85099466  0.77259640  0.00968620  1  0.419634  0  -0.011877  0.023306  0  3.867761  0
C  C60  1  0.04826086  0.18471194  0.49239269  1  0.536716  0  -0.01914  0.059566  0  3.961652  0
C  C61  1  0.04823515  0.81526050  0.50762099  1  0.537323  0  -0.019106  0.059755  0  3.961816  0
C  C62  1  0.95176086  0.31528937  0.99238455  1  0.536009  0  -0.019255  0.059143  0  3.962027  0
C  C63  1  0.95176101  0.68473676  0.00761607  1  0.537142  0  -0.019087  0.059652  0  3.9619  0
C  C64  1  0.94799679  0.19421975  0.57053116  1  1.533359  0  0.197592  0.562129  0  4.148689  0
C  C65  1  0.94796307  0.80575335  0.42948037  1  1.53546  0  0.197065  0.56131  0  4.149572  0
C  C66  1  0.05201653  0.30578933  0.07053513  1  1.533929  0  0.197701  0.562206  0  4.148792  0
C  C67  1  0.05202717  0.69424033  0.92947728  1  1.535299  0  0.197137  0.561347  0  4.149541  0
C  C68  1  0.28329293  0.92358349  0.76506098  1  1.574802  0  0.186829  0.542714  0  4.23104  0
C  C69  1  0.28325140  0.07642791  0.23494161  1  1.57439  0  0.186932  0.542562  0  4.231606  0
C  C70  1  0.71671344  0.57643246  0.26505547  1  1.574547  0  0.186945  0.542733  0  4.231096  0
C  C71  1  0.71671602  0.42356864  0.73493756  1  1.574738  0  0.186894  0.54277  0  4.230959  0
C  C72  1  0.35879116  0.01672744  0.75021280  1  0.426341  0  -0.012211  0.0295  0  3.880906  0
C  C73  1  0.35873430  0.98327806  0.24979037  1  0.427009  0  -0.012091  0.029939  0  3.880304  0
C  C74  1  0.64122841  0.48328267  0.25021041  1  0.42686  0  -0.012158  0.029653  0  3.880892  0
C  C75  1  0.64123094  0.51672016  0.74977883  1  0.42696  0  -0.012069  0.029746  0  3.880794  0
C  C76  1  0.45584471  0.00420021  0.66822968  1  0.502582  0  -0.020453  0.055161  0  3.980314  0
C  C77  1  0.45581494  0.99578268  0.33175621  1  0.503337  0  -0.020333  0.055426  0  3.980135  0
C  C78  1  0.54417191  0.49578867  0.16824287  1  0.502676  0  -0.020464  0.055384  0  3.980016  0
C  C79  1  0.54416538  0.50420544  0.83174691  1  0.502948  0  -0.020528  0.055118  0  3.98011  0
C  C80  1  0.56205227  0.08640491  0.66609484  1  1.56518  0  0.198747  0.556617  0  4.168154  0
C  C81  1  0.56201165  0.91358699  0.33388092  1  1.564576  0  0.198824  0.556559  0  4.168413  0
C  C82  1  0.43797202  0.41358531  0.16609990  1  1.564876  0  0.19869  0.556459  0  4.168065  0
C  C83  1  0.43798635  0.58641440  0.83388907  1  1.564769  0  0.198711  0.556389  0  4.16801  0
O  O84  1  0.35092641  0.24105670  0.39285297  1  -1.176156  0  -0.337297  -0.587437  0  2.224826  0
O  O85  1  0.35090954  0.75896247  0.60714564  1  -1.17613  0  -0.337223  -0.587342  0  2.224957  0
O  O86  1  0.64907212  0.25895434  0.89286143  1  -1.176227  0  -0.337408  -0.587597  0  2.224631  0
O  O87  1  0.64909328  0.74104874  0.10713945  1  -1.176026  0  -0.337129  -0.587244  0  2.224867  0
O  O88  1  0.13843029  0.30267450  0.34126533  1  -1.147738  0  -0.328305  -0.533416  0  2.228795  0
O  O89  1  0.13843618  0.69731271  0.65874003  1  -1.148016  0  -0.32828  -0.533409  0  2.228879  0
O  O90  1  0.86156377  0.19732153  0.84126654  1  -1.148167  0  -0.328294  -0.533421  0  2.228947  0
O  O91  1  0.86157111  0.80270795  0.15873789  1  -1.147853  0  -0.328305  -0.533339  0  2.228719  0
O  O92  1  0.25238490  0.26214424  0.55956647  1  -1.100414  0  -0.380568  -0.461308  0  2.314879  0
O  O93  1  0.25236591  0.73783205  0.44044104  1  -1.100373  0  -0.380502  -0.461077  0  2.314811  0
O  O94  1  0.74763369  0.23784581  0.05956677  1  -1.100664  0  -0.380422  -0.461102  0  2.314659  0
O  O95  1  0.74763228  0.76215977  0.94043422  1  -1.1004  0  -0.380512  -0.461253  0  2.314534  0
O  O96  1  0.13138461  0.10265441  0.49242958  1  -1.12252  0  -0.40141  -0.626972  0  2.404626  0
O  O97  1  0.13136537  0.89732491  0.50756799  1  -1.122406  0  -0.401554  -0.627236  0  2.404786  0
O  O98  1  0.86861947  0.39734551  0.99242427  1  -1.122763  0  -0.401443  -0.627045  0  2.404909  0
O  O99  1  0.86863410  0.60267305  0.00756799  1  -1.122483  0  -0.401589  -0.627281  0  2.404859  0
O  O100  1  0.97330640  0.14737654  0.63864301  1  -1.155419  0  -0.316058  -0.537385  0  2.282088  0
O  O101  1  0.97327703  0.85260156  0.36136808  1  -1.156129  0  -0.315838  -0.536925  0  2.281988  0
O  O102  1  0.02668641  0.35262214  0.13864830  1  -1.155472  0  -0.316073  -0.537371  0  2.282404  0
O  O103  1  0.02671056  0.64739694  0.86136585  1  -1.15609  0  -0.315848  -0.536878  0  2.281998  0
O  O104  1  0.84183435  0.25205507  0.56520865  1  -1.15615  0  -0.326423  -0.565949  0  2.206362  0
O  O105  1  0.84179289  0.74791737  0.43481044  1  -1.157149  0  -0.326125  -0.565695  0  2.206979  0
O  O106  1  0.15817885  0.24794763  0.06520721  1  -1.156348  0  -0.326509  -0.566009  0  2.206329  0
O  O107  1  0.15820959  0.75207502  0.93480859  1  -1.156901  0  -0.326167  -0.565754  0  2.206862  0
O  O108  1  0.15486908  0.91018146  0.73458393  1  -1.155464  0  -0.327381  -0.562175  0  2.233468  0
O  O109  1  0.15484032  0.08982855  0.26543185  1  -1.155296  0  -0.327528  -0.562306  0  2.233596  0
O  O110  1  0.84512668  0.58983732  0.23458608  1  -1.15529  0  -0.32736  -0.562178  0  2.233848  0
O  O111  1  0.84512779  0.41016795  0.76541694  1  -1.155324  0  -0.32736  -0.562174  0  2.233669  0
O  O112  1  0.36016439  0.86227317  0.80336275  1  -1.140288  0  -0.331502  -0.53524  0  2.21569  0
O  O113  1  0.36014887  0.13773307  0.19665395  1  -1.140669  0  -0.331509  -0.535109  0  2.216212  0
O  O114  1  0.63982410  0.63773941  0.30334813  1  -1.140432  0  -0.331685  -0.535288  0  2.21551  0
O  O115  1  0.63982540  0.36226198  0.69664238  1  -1.140538  0  -0.331636  -0.535337  0  2.215489  0
O  O116  1  0.25803947  0.09088020  0.73156647  1  -1.097033  0  -0.381788  -0.468395  0  2.307394  0
O  O117  1  0.25797719  0.90912759  0.26843400  1  -1.096246  0  -0.381792  -0.468494  0  2.307357  0
O  O118  1  0.74199622  0.40913716  0.23156926  1  -1.096909  0  -0.381745  -0.468364  0  2.307426  0
O  O119  1  0.74200170  0.59086545  0.76843104  1  -1.096825  0  -0.381837  -0.468445  0  2.307466  0
O  O120  1  0.37006626  0.99609807  0.59406663  1  -1.130826  0  -0.402164  -0.62556  0  2.428099  0
O  O121  1  0.37005924  0.00389317  0.40591796  1  -1.130637  0  -0.402114  -0.625597  0  2.428387  0
O  O122  1  0.62994839  0.50390730  0.09408292  1  -1.130882  0  -0.40212  -0.625586  0  2.428169  0
O  O123  1  0.62994068  0.49610282  0.90591588  1  -1.130246  0  -0.402112  -0.625578  0  2.427899  0
O  O124  1  0.54597012  0.15257434  0.61297648  1  -1.158749  0  -0.31599  -0.529788  0  2.296031  0
O  O125  1  0.54596849  0.84743584  0.38700946  1  -1.158556  0  -0.316085  -0.529756  0  2.296528  0
O  O126  1  0.45403093  0.34743007  0.11297077  1  -1.158693  0  -0.315916  -0.529685  0  2.29637  0
O  O127  1  0.45403291  0.65256738  0.88701639  1  -1.158551  0  -0.31592  -0.52956  0  2.296608  0
O  O128  1  0.66475506  0.08472509  0.72232802  1  -1.173892  0  -0.326316  -0.55839  0  2.255331  0
O  O129  1  0.66470339  0.91526806  0.27763886  1  -1.174203  0  -0.326415  -0.558516  0  2.255202  0
O  O130  1  0.33527160  0.41526076  0.22234070  1  -1.173983  0  -0.326377  -0.55846  0  2.255022  0
O  O131  1  0.33528453  0.58475163  0.77763590  1  -1.174294  0  -0.326423  -0.558487  0  2.254769  0
O  O132  1  0.65371334  0.17559849  0.43626189  1  -1.234106  0  -0.556343  -0.744347  0  1.998832  0
O  O133  1  0.65370946  0.82439708  0.56373516  1  -1.233752  0  -0.556324  -0.744315  0  1.998863  0
O  O134  1  0.34627294  0.32440233  0.93625574  1  -1.234088  0  -0.556347  -0.744361  0  1.998745  0
O  O135  1  0.34629018  0.67559580  0.06373510  1  -1.233615  0  -0.5563  -0.744278  0  1.998742  0
O  O136  1  0.85600584  0.95672562  0.63598167  1  -1.254966  0  -0.596741  -0.775243  0  2.031142  0
O  O137  1  0.85597452  0.04323474  0.36404010  1  -1.254739  0  -0.597003  -0.775551  0  2.030906  0
O  O138  1  0.14399983  0.54326949  0.13599499  1  -1.25458  0  -0.596763  -0.775292  0  2.030903  0
O  O139  1  0.14401344  0.45676176  0.86403229  1  -1.254679  0  -0.596808  -0.775309  0  2.031077  0
