# generated using pymatgen
data_CdH9C17(NO)4
_symmetry_space_group_name_H-M   'P 1'
_cell_length_a   10.37930806
_cell_length_b   12.52673621
_cell_length_c   13.47740000
_cell_angle_alpha   111.03525566
_cell_angle_beta   90.00000000
_cell_angle_gamma   90.00000000
_symmetry_Int_Tables_number   1
_chemical_formula_structural   CdH9C17(NO)4
_chemical_formula_sum   'Cd4 H36 C68 N16 O16'
_cell_volume   1635.54129760
_cell_formula_units_Z   4
loop_
 _symmetry_equiv_pos_site_id
 _symmetry_equiv_pos_as_xyz
  1  'x, y, z'
loop_
 _atom_site_type_symbol
 _atom_site_label
 _atom_site_symmetry_multiplicity
 _atom_site_fract_x
 _atom_site_fract_y
 _atom_site_fract_z
 _atom_site_occupancy
 _atom_site_hle17_bader_spin_density
 _atom_site_hle17_ddec_charge
 _atom_site_hle17_ddec_spin_density
 _atom_site_hle17_ddec_sum_bond_order
 _atom_site_hle17_magmom
 _atom_site_hse06_10hf_bader_spin_density
 _atom_site_hse06_10hf_ddec_charge
 _atom_site_hse06_10hf_ddec_spin_density
 _atom_site_hse06_10hf_ddec_sum_bond_order
 _atom_site_hse06_10hf_magmom
 _atom_site_hse06_bader_spin_density
 _atom_site_hse06_ddec_charge
 _atom_site_hse06_ddec_spin_density
 _atom_site_hse06_ddec_sum_bond_order
 _atom_site_hse06_magmom
 _atom_site_pbe_bader_charge
 _atom_site_pbe_bader_spin_density
 _atom_site_pbe_cm5_charge
 _atom_site_pbe_ddec_charge
 _atom_site_pbe_ddec_spin_density
 _atom_site_pbe_ddec_sum_bond_order
 _atom_site_pbe_magmom
Cd  Cd0  1  0.72457817  0.56945841  0.82554047  1  0  1.093411  0  1.737373  0  0  0.894062  0  2.188182  0  0  0.947569  0  2.142035  0  1.261821  0  0.8031  0.856116  0  2.219825  0
Cd  Cd1  1  0.22457855  0.43054148  0.67445920  1  0  1.093436  0  1.73733  0  0  0.894072  0  2.188135  0  0  0.947581  0  2.141987  0  1.261826  0  0.803108  0.856128  0  2.219776  0
Cd  Cd2  1  0.27542202  0.43054148  0.17445994  1  0  1.093404  0  1.737343  0  0  0.894059  0  2.188149  0  0  0.947567  0  2.142003  0  1.261827  0  0.803096  0.856114  0  2.219791  0
Cd  Cd3  1  0.77542163  0.56945841  0.32554047  1  0  1.093411  0  1.737376  0  0  0.894051  0  2.18818  0  0  0.94756  0  2.142034  0  1.261822  0  0.80309  0.856106  0  2.219821  0
H  H4  1  0.50749915  0.59341079  0.43295131  1  0  0.11343  0  0.950522  0  0  0.122273  0  1.015107  0  0  0.125288  0  1.013728  0  0.132868  0  0.107966  0.120153  0  1.015978  0
H  H5  1  0.00750146  0.40659082  0.06704967  1  0  0.113452  0  0.950456  0  0  0.122312  0  1.015022  0  0  0.12532  0  1.013649  0  0.132824  0  0.107982  0.120191  0  1.015893  0
H  H6  1  0.49250008  0.40658996  0.56704864  1  0  0.113429  0  0.950481  0  0  0.122281  0  1.015054  0  0  0.125269  0  1.013706  0  0.132849  0  0.107966  0.120161  0  1.015925  0
H  H7  1  0.99249969  0.59340908  0.93295074  1  0  0.113448  0  0.950461  0  0  0.122309  0  1.015021  0  0  0.125288  0  1.013684  0  0.132831  0  0.107985  0.120188  0  1.015892  0
H  H8  1  0.70254394  0.80957231  0.03347096  1  0  0.088836  0  0.91438  0  0  0.101969  0  0.967377  0  0  0.104224  0  0.965783  0  0.106002  0  0.123195  0.100307  0  0.968599  0
H  H9  1  0.20254144  0.19042587  0.46653036  1  0  0.088848  0  0.914362  0  0  0.101974  0  0.967367  0  0  0.104229  0  0.965771  0  0.10602  0  0.12319  0.100313  0  0.96859  0
H  H10  1  0.29745817  0.19042502  0.96652934  1  0  0.088867  0  0.914378  0  0  0.101986  0  0.967389  0  0  0.104241  0  0.965794  0  0.10601  0  0.123207  0.100326  0  0.968611  0
H  H11  1  0.79745586  0.80957231  0.53347022  1  0  0.088848  0  0.914388  0  0  0.101944  0  0.967427  0  0  0.104198  0  0.965832  0  0.106011  0  0.123196  0.100285  0  0.968645  0
H  H12  1  0.83784776  0.97961408  0.11769727  1  0  0.108829  0  0.967115  0  0  0.118449  0  1.028045  0  0  0.121166  0  1.027823  0  0.093157  0  0.109279  0.116487  0  1.028391  0
H  H13  1  0.33784718  0.02038582  0.38230240  1  0  0.108813  0  0.967109  0  0  0.118433  0  1.028044  0  0  0.121152  0  1.027822  0  0.093152  0  0.109262  0.116471  0  1.028389  0
H  H14  1  0.16215243  0.02038496  0.88230211  1  0  0.108822  0  0.967117  0  0  0.118439  0  1.028046  0  0  0.121157  0  1.027825  0  0.09374  0  0.109267  0.116476  0  1.028392  0
H  H15  1  0.66215300  0.97961408  0.61769802  1  0  0.108831  0  0.967114  0  0  0.118453  0  1.028034  0  0  0.121174  0  1.027812  0  0.093422  0  0.109267  0.116491  0  1.02838  0
H  H16  1  0.32705552  0.73035714  0.46384987  1  0  0.10479  0  0.935644  0  0  0.117506  0  0.989579  0  0  0.120127  0  0.988939  0  0.09949  0  0.108172  0.115588  0  0.990262  0
H  H17  1  0.82705610  0.26964533  0.03615213  1  0  0.104783  0  0.935632  0  0  0.117517  0  0.989547  0  0  0.120138  0  0.988907  0  0.099447  0  0.108163  0.115598  0  0.990231  0
H  H18  1  0.67294467  0.26964362  0.53615082  1  0  0.104789  0  0.935624  0  0  0.117509  0  0.989553  0  0  0.120131  0  0.988912  0  0.099486  0  0.108161  0.115591  0  0.990236  0
H  H19  1  0.17294313  0.73035543  0.96384782  1  0  0.104775  0  0.935636  0  0  0.117512  0  0.98955  0  0  0.120133  0  0.98891  0  0.099435  0  0.108163  0.115592  0  0.990234  0
H  H20  1  0.90198691  0.72355331  0.74841421  1  0  0.086786  0  0.970271  0  0  0.088472  0  1.04381  0  0  0.091498  0  1.040916  0  0.160941  0  0.11404  0.086222  0  1.045948  0
H  H21  1  0.40198730  0.27644573  0.75158591  1  0  0.086804  0  0.970245  0  0  0.088493  0  1.043778  0  0  0.091519  0  1.040883  0  0.160957  0  0.114054  0.086243  0  1.045916  0
H  H22  1  0.09801328  0.27644573  0.25158443  1  0  0.086733  0  0.97035  0  0  0.088433  0  1.043864  0  0  0.091459  0  1.040969  0  0.160975  0  0.114035  0.086183  0  1.046002  0
H  H23  1  0.59801289  0.72355417  0.24841524  1  0  0.086784  0  0.970273  0  0  0.088476  0  1.043806  0  0  0.091502  0  1.040911  0  0.160962  0  0.114043  0.086226  0  1.045944  0
H  H24  1  0.62322074  0.75442669  0.76121626  1  0  0.093793  0  0.981778  0  0  0.099687  0  1.051999  0  0  0.102558  0  1.050616  0  0.113843  0  0.102033  0.097625  0  1.053151  0
H  H25  1  0.12322016  0.24557321  0.73878415  1  0  0.0938  0  0.981776  0  0  0.09971  0  1.051979  0  0  0.102577  0  1.050609  0  0.113857  0  0.102041  0.097648  0  1.053131  0
H  H26  1  0.37677945  0.24557321  0.23878415  1  0  0.093814  0  0.98177  0  0  0.099717  0  1.051987  0  0  0.102587  0  1.050607  0  0.113854  0  0.102046  0.097655  0  1.053139  0
H  H27  1  0.87678003  0.75442669  0.26121552  1  0  0.093808  0  0.981785  0  0  0.099714  0  1.051986  0  0  0.102582  0  1.050614  0  0.113861  0  0.102036  0.097652  0  1.053139  0
H  H28  1  0.04329287  0.89003964  0.81751398  1  0  0.114918  0  0.954932  0  0  0.12463  0  1.014313  0  0  0.127743  0  1.013382  0  0.089026  0  0.111744  0.122366  0  1.015235  0
H  H29  1  0.54329344  0.10996026  0.68248495  1  0  0.114929  0  0.954952  0  0  0.124642  0  1.014335  0  0  0.127755  0  1.013405  0  0.089019  0  0.111756  0.122377  0  1.015257  0
H  H30  1  0.95670636  0.10996112  0.18248524  1  0  0.114921  0  0.954961  0  0  0.124635  0  1.014341  0  0  0.127749  0  1.01341  0  0.089021  0  0.111757  0.12237  0  1.015264  0
H  H31  1  0.45670771  0.89003964  0.31751472  1  0  0.114919  0  0.954953  0  0  0.124631  0  1.014331  0  0  0.127744  0  1.013401  0  0.089021  0  0.111753  0.122366  0  1.015254  0
H  H32  1  0.44269810  0.88921941  0.79264879  1  0  0.108814  0  0.926274  0  0  0.121684  0  0.978237  0  0  0.124945  0  0.976429  0  0.107383  0  0.112472  0.119288  0  0.979696  0
H  H33  1  0.94269675  0.11078219  0.70735293  1  0  0.108849  0  0.926267  0  0  0.121701  0  0.978248  0  0  0.124979  0  0.976419  0  0.107428  0  0.112487  0.119306  0  0.979705  0
H  H34  1  0.55730305  0.11078134  0.20735190  1  0  0.108828  0  0.926276  0  0  0.121681  0  0.978257  0  0  0.124958  0  0.976429  0  0.107397  0  0.112474  0.119285  0  0.979716  0
H  H35  1  0.05730343  0.88921856  0.29264702  1  0  0.108845  0  0.926269  0  0  0.121694  0  0.978254  0  0  0.124972  0  0.976426  0  0.107427  0  0.11248  0.119298  0  0.979711  0
H  H36  1  0.99602497  0.32488760  0.49360165  1  0  0.387007  0  0.918787  0  0  0.354095  0  1.001244  0  0  0.367085  0  0.986961  0  0.639317  0  0.291855  0.345061  0  1.010078  0
H  H37  1  0.49602439  0.67511315  0.00639831  1  0  0.386996  0  0.918807  0  0  0.354079  0  1.001278  0  0  0.367068  0  0.98699  0  0.639317  0  0.291825  0.345045  0  1.01011  0
H  H38  1  0.00397522  0.67511315  0.50639831  1  0  0.387012  0  0.918777  0  0  0.354094  0  1.001248  0  0  0.367084  0  0.986964  0  0.639316  0  0.291841  0.34506  0  1.010082  0
H  H39  1  0.50397483  0.32488846  0.99360193  1  0  0.387003  0  0.918795  0  0  0.354088  0  1.001261  0  0  0.367078  0  0.986974  0  0.639317  0  0.29185  0.345053  0  1.010094  0
C  C40  1  0.92244299  0.42467847  0.65932480  1  0  0.627824  0  3.935226  0  0  0.576414  0  4.229569  0  0  0.61078  0  4.221901  0  1.562713  0  0.203444  0.553068  0  4.234027  0
C  C41  1  0.42244242  0.57532142  0.84067487  1  0  0.6278  0  3.935281  0  0  0.576397  0  4.229617  0  0  0.610763  0  4.221947  0  1.562707  0  0.203412  0.553052  0  4.234075  0
C  C42  1  0.07755719  0.57532142  0.34067487  1  0  0.627814  0  3.93528  0  0  0.57641  0  4.229617  0  0  0.610777  0  4.22195  0  1.562705  0  0.203439  0.553065  0  4.234077  0
C  C43  1  0.57755777  0.42467847  0.15932480  1  0  0.62781  0  3.93536  0  0  0.576417  0  4.229675  0  0  0.610784  0  4.222008  0  1.562406  0  0.203447  0.553072  0  4.234133  0
C  C44  1  0.68513045  0.58279494  0.57554760  1  0  0.34269  0  3.74614  0  0  0.310479  0  4.017769  0  0  0.324654  0  4.033148  0  0.976021  0  0.216332  0.30107  0  4.006628  0
C  C45  1  0.18513276  0.41720496  0.92445281  1  0  0.342735  0  3.746175  0  0  0.310497  0  4.017827  0  0  0.324672  0  4.033206  0  0.976437  0  0.216368  0.301089  0  4.006686  0
C  C46  1  0.31486877  0.41720496  0.42445281  1  0  0.34269  0  3.746245  0  0  0.310474  0  4.017858  0  0  0.32465  0  4.033238  0  0.976017  0  0.216324  0.301067  0  4.006715  0
C  C47  1  0.81486935  0.58279408  0.07554731  1  0  0.342664  0  3.746196  0  0  0.310433  0  4.017868  0  0  0.32461  0  4.033247  0  0.97603  0  0.216296  0.301024  0  4.006729  0
C  C48  1  0.83217204  0.46939214  0.59866840  1  0  -0.00874  0  3.796824  0  0  -0.015674  0  4.053101  0  0  -0.01727  0  4.074646  0  0.387471  0  0.069533  -0.014848  0  4.038764  0
C  C49  1  0.33217243  0.53060776  0.90133126  1  0  -0.008692  0  3.79691  0  0  -0.015624  0  4.053173  0  0  -0.017218  0  4.074715  0  0.387447  0  0.069549  -0.014798  0  4.038834  0
C  C50  1  0.16782718  0.53060776  0.40133126  1  0  -0.008742  0  3.796922  0  0  -0.015675  0  4.053202  0  0  -0.017273  0  4.074747  0  0.387464  0  0.069516  -0.01485  0  4.038866  0
C  C51  1  0.66782775  0.46939214  0.09866840  1  0  -0.008709  0  3.796849  0  0  -0.015649  0  4.053119  0  0  -0.017245  0  4.074662  0  0.387763  0  0.069555  -0.014824  0  4.038782  0
C  C52  1  0.83178859  0.45915262  0.49150673  1  0  -0.032697  0  3.832876  0  0  -0.039576  0  4.092297  0  0  -0.043445  0  4.11632  0  0.459445  0  0.064527  -0.037058  0  4.076216  0
C  C53  1  0.33178898  0.54084642  0.00849265  1  0  -0.032751  0  3.832999  0  0  -0.039618  0  4.092394  0  0  -0.043487  0  4.116416  0  0.459546  0  0.064523  -0.037099  0  4.076311  0
C  C54  1  0.16821064  0.54084728  0.50849294  1  0  -0.032731  0  3.832886  0  0  -0.039614  0  4.092312  0  0  -0.043484  0  4.116337  0  0.459435  0  0.064526  -0.037096  0  4.076231  0
C  C55  1  0.66821025  0.45915262  0.99150599  1  0  -0.032761  0  3.832921  0  0  -0.039616  0  4.092326  0  0  -0.043486  0  4.11635  0  0.459512  0  0.064514  -0.037097  0  4.076245  0
C  C56  1  0.57801926  0.66379340  0.59507581  1  0  0.013221  0  3.757473  0  0  0.030148  0  3.99735  0  0  0.029634  0  4.01789  0  -0.003983  0  0.004815  0.030443  0  3.983412  0
C  C57  1  0.07801965  0.33620650  0.90492460  1  0  0.013182  0  3.757501  0  0  0.030134  0  3.997379  0  0  0.029622  0  4.017917  0  -0.004039  0  0.004822  0.030431  0  3.983439  0
C  C58  1  0.42197996  0.33620650  0.40492460  1  0  0.013174  0  3.757562  0  0  0.03014  0  3.9974  0  0  0.029628  0  4.017936  0  -0.003949  0  0.004846  0.030437  0  3.983462  0
C  C59  1  0.92198150  0.66379340  0.09507507  1  0  0.013254  0  3.757479  0  0  0.030163  0  3.997406  0  0  0.029653  0  4.017938  0  -0.003982  0  0.004848  0.030461  0  3.983467  0
C  C60  1  0.49363117  0.65850172  0.51158171  1  0  -0.077945  0  3.685993  0  0  -0.103407  0  3.941622  0  0  -0.105892  0  3.962655  0  -0.015312  0  -0.081772  -0.101282  0  3.927052  0
C  C61  1  0.99363271  0.34150074  0.98841956  1  0  -0.077885  0  3.686011  0  0  -0.103358  0  3.941616  0  0  -0.105838  0  3.962653  0  -0.015326  0  -0.08176  -0.101235  0  3.927047  0
C  C62  1  0.50636805  0.34149903  0.48841824  1  0  -0.077852  0  3.685932  0  0  -0.10332  0  3.941531  0  0  -0.105785  0  3.962575  0  -0.015345  0  -0.08175  -0.101197  0  3.926962  0
C  C63  1  0.00636748  0.65850001  0.01158040  1  0  -0.077882  0  3.685987  0  0  -0.103342  0  3.941605  0  0  -0.105801  0  3.962653  0  -0.015354  0  -0.08176  -0.101219  0  3.927035  0
C  C64  1  0.77938336  0.83095198  0.98855733  1  0  0.137851  0  3.714436  0  0  0.107133  0  3.966569  0  0  0.114194  0  3.98527  0  0.442859  0  0.051421  0.102536  0  3.953773  0
C  C65  1  0.27938279  0.16904706  0.51144354  1  0  0.13782  0  3.714427  0  0  0.107106  0  3.966581  0  0  0.114167  0  3.985281  0  0.442892  0  0.05139  0.102506  0  3.953788  0
C  C66  1  0.22061779  0.16904706  0.01144280  1  0  0.137846  0  3.714494  0  0  0.107132  0  3.966637  0  0  0.114193  0  3.985337  0  0.442844  0  0.051393  0.102531  0  3.953845  0
C  C67  1  0.72061644  0.83095198  0.48855733  1  0  0.137831  0  3.714492  0  0  0.107124  0  3.966633  0  0  0.114187  0  3.985333  0  0.44283  0  0.051387  0.102524  0  3.953842  0
C  C68  1  0.95613214  0.95096616  0.97607784  1  0  0.09098  0  3.750504  0  0  0.101242  0  3.984418  0  0  0.104767  0  4.00685  0  -0.006332  0  0.016077  0.099074  0  3.969027  0
C  C69  1  0.45613156  0.04903288  0.52392080  1  0  0.091019  0  3.750472  0  0  0.101259  0  3.984421  0  0  0.104784  0  4.006851  0  -0.00633  0  0.016037  0.099091  0  3.969029  0
C  C70  1  0.04386805  0.04903288  0.02392155  1  0  0.091028  0  3.750569  0  0  0.101296  0  3.984466  0  0  0.104821  0  4.006897  0  -0.050185  0  0.01609  0.099128  0  3.969074  0
C  C71  1  0.54386862  0.95096702  0.47607812  1  0  0.090946  0  3.750524  0  0  0.10123  0  3.984408  0  0  0.104756  0  4.00684  0  -0.050183  0  0.01608  0.09906  0  3.969021  0
C  C72  1  0.85565627  0.92697616  0.03495655  1  0  -0.148226  0  3.692152  0  0  -0.166604  0  3.938368  0  0  -0.174514  0  3.96107  0  0.040918  0  -0.075686  -0.161477  0  3.923092  0
C  C73  1  0.35565666  0.07302374  0.46504312  1  0  -0.14824  0  3.692139  0  0  -0.166616  0  3.938375  0  0  -0.174529  0  3.961077  0  0.040912  0  -0.075663  -0.16149  0  3.923099  0
C  C74  1  0.14434296  0.07302288  0.96504284  1  0  -0.148299  0  3.692207  0  0  -0.16666  0  3.938406  0  0  -0.174573  0  3.961109  0  0.040328  0  -0.07569  -0.161533  0  3.923131  0
C  C75  1  0.64434449  0.92697701  0.53495683  1  0  -0.148224  0  3.692152  0  0  -0.166581  0  3.938315  0  0  -0.174497  0  3.961021  0  0.040672  0  -0.075652  -0.161454  0  3.923041  0
C  C76  1  0.39146829  0.73461477  0.52890425  1  0  -0.079879  0  3.718578  0  0  -0.103934  0  3.971881  0  0  -0.105318  0  3.992952  0  -0.031844  0  -0.077428  -0.102971  0  3.957592  0
C  C77  1  0.89146983  0.26538684  0.97109747  1  0  -0.080026  0  3.718727  0  0  -0.104111  0  3.972037  0  0  -0.105496  0  3.993103  0  -0.03185  0  -0.077487  -0.103147  0  3.957748  0
C  C78  1  0.60853093  0.26538599  0.47109644  1  0  -0.079995  0  3.718595  0  0  -0.104045  0  3.971915  0  0  -0.105431  0  3.992979  0  -0.031837  0  -0.077456  -0.103083  0  3.957626  0
C  C79  1  0.10853036  0.73461306  0.02890220  1  0  -0.080016  0  3.718609  0  0  -0.104099  0  3.971918  0  0  -0.105485  0  3.992979  0  -0.031803  0  -0.077472  -0.103135  0  3.957629  0
C  C80  1  0.88990903  0.78289413  0.82971763  1  0  0.140404  0  3.697019  0  0  0.110049  0  3.950805  0  0  0.117592  0  3.967805  0  0.45352  0  0.049478  0.105164  0  3.939204  0
C  C81  1  0.38991038  0.21710491  0.67028175  1  0  0.140402  0  3.69698  0  0  0.110056  0  3.950757  0  0  0.117599  0  3.967755  0  0.453515  0  0.049476  0.105171  0  3.939156  0
C  C82  1  0.11009019  0.21710491  0.17028101  1  0  0.14047  0  3.696953  0  0  0.110112  0  3.950749  0  0  0.117654  0  3.967747  0  0.45355  0  0.049501  0.105226  0  3.939149  0
C  C83  1  0.61008980  0.78289499  0.32971792  1  0  0.140415  0  3.696974  0  0  0.110059  0  3.95076  0  0  0.117602  0  3.967758  0  0.453447  0  0.049481  0.105173  0  3.93916  0
C  C84  1  0.55793507  0.74747404  0.69611753  1  0  -0.06107  0  3.701006  0  0  -0.087014  0  3.956745  0  0  -0.088524  0  3.975379  0  0.000636  0  -0.07731  -0.086327  0  3.944467  0
C  C85  1  0.05793450  0.25252671  0.80388317  1  0  -0.061063  0  3.701043  0  0  -0.087039  0  3.956809  0  0  -0.088554  0  3.975448  0  0.000593  0  -0.077344  -0.086354  0  3.944532  0
C  C86  1  0.44206511  0.25252671  0.30388243  1  0  -0.061045  0  3.701068  0  0  -0.087028  0  3.956821  0  0  -0.088542  0  3.975463  0  0.000582  0  -0.077326  -0.086342  0  3.944545  0
C  C87  1  0.94206473  0.74747318  0.19611724  1  0  -0.061123  0  3.701085  0  0  -0.087081  0  3.95685  0  0  -0.088595  0  3.975491  0  0.000627  0  -0.077342  -0.086395  0  3.944573  0
C  C88  1  0.97012633  0.87723596  0.87005155  1  0  -0.13805  0  3.668737  0  0  -0.15711  0  3.914486  0  0  -0.164421  0  3.934908  0  -0.003114  0  -0.073211  -0.152311  0  3.900693  0
C  C89  1  0.47012671  0.12276309  0.62994858  1  0  -0.138031  0  3.668662  0  0  -0.157098  0  3.914435  0  0  -0.16441  0  3.934857  0  -0.003118  0  -0.073173  -0.152299  0  3.900642  0
C  C90  1  0.02987193  0.12276223  0.12994681  1  0  -0.13804  0  3.6687  0  0  -0.157112  0  3.914463  0  0  -0.164423  0  3.934883  0  -0.003118  0  -0.07321  -0.152314  0  3.900671  0
C  C91  1  0.52987251  0.87723681  0.37005183  1  0  -0.138008  0  3.668659  0  0  -0.157072  0  3.914399  0  0  -0.164384  0  3.93482  0  -0.002915  0  -0.073202  -0.152272  0  3.900606  0
C  C92  1  0.37115480  0.81723228  0.63092612  1  0  0.020785  0  3.881134  0  0  0.041383  0  4.113651  0  0  0.039465  0  4.13544  0  0.035815  0  -0.000743  0.042402  0  4.098847  0
C  C93  1  0.87115537  0.18277018  0.86907664  1  0  0.021011  0  3.881175  0  0  0.041645  0  4.113606  0  0  0.039732  0  4.135399  0  0.03594  0  -0.000669  0.042663  0  4.098799  0
C  C94  1  0.62884539  0.18276847  0.36907458  1  0  0.020994  0  3.881065  0  0  0.041553  0  4.113612  0  0  0.039641  0  4.135406  0  0.035816  0  -0.000676  0.042574  0  4.098807  0
C  C95  1  0.12884385  0.81723143  0.13092360  1  0  0.021054  0  3.881104  0  0  0.041676  0  4.11355  0  0  0.039764  0  4.135346  0  0.035954  0  -0.000665  0.042695  0  4.098745  0
C  C96  1  0.45584542  0.82355886  0.71435813  1  0  -0.067282  0  3.695851  0  0  -0.090014  0  3.94136  0  0  -0.090595  0  3.959587  0  -0.01633  0  -0.069581  -0.089295  0  3.928974  0
C  C97  1  0.95584406  0.17644189  0.78564331  1  0  -0.067425  0  3.695888  0  0  -0.090146  0  3.941398  0  0  -0.090741  0  3.959617  0  -0.016352  0  -0.069633  -0.089426  0  3.929012  0
C  C98  1  0.54415573  0.17644189  0.28564256  1  0  -0.067432  0  3.695949  0  0  -0.090128  0  3.941483  0  0  -0.090725  0  3.959703  0  -0.016325  0  -0.069646  -0.08941  0  3.929096  0
C  C99  1  0.04415516  0.82355800  0.21435636  1  0  -0.067398  0  3.695923  0  0  -0.090109  0  3.941423  0  0  -0.090707  0  3.959645  0  -0.016354  0  -0.069615  -0.089391  0  3.929036  0
C  C100  1  0.26551481  0.89476254  0.65120193  1  0  0.26414  0  3.763896  0  0  0.251106  0  4.035595  0  0  0.261783  0  4.052984  0  0.811342  0  0.181371  0.243847  0  4.023921  0
C  C101  1  0.76551827  0.10524163  0.84880065  1  0  0.264112  0  3.763515  0  0  0.251062  0  4.035212  0  0  0.261736  0  4.052606  0  0.811169  0  0.181358  0.243806  0  4.023534  0
C  C102  1  0.73448538  0.10523821  0.34879877  1  0  0.264123  0  3.763792  0  0  0.2511  0  4.035502  0  0  0.261772  0  4.052894  0  0.81131  0  0.181381  0.243843  0  4.023825  0
C  C103  1  0.23448095  0.89475827  0.15119901  1  0  0.26404  0  3.763491  0  0  0.250996  0  4.035186  0  0  0.261669  0  4.05258  0  0.811164  0  0.181315  0.243737  0  4.023511  0
C  C104  1  0.90338777  0.38466548  0.39809983  1  0  0.624686  0  3.872378  0  0  0.572473  0  4.177236  0  0  0.605861  0  4.170383  0  1.52115  0  0.218259  0.550116  0  4.180825  0
C  C105  1  0.40338720  0.61533527  0.10190013  1  0  0.624689  0  3.87242  0  0  0.572487  0  4.177275  0  0  0.605874  0  4.170419  0  1.521159  0  0.218243  0.550129  0  4.180862  0
C  C106  1  0.09661241  0.61533527  0.60190013  1  0  0.624701  0  3.872377  0  0  0.572486  0  4.177235  0  0  0.605873  0  4.170381  0  1.521017  0  0.218253  0.550127  0  4.180823  0
C  C107  1  0.59661299  0.38466548  0.89810057  1  0  0.624732  0  3.87234  0  0  0.572502  0  4.177233  0  0  0.60589  0  4.170378  0  1.521044  0  0.218249  0.550143  0  4.18082  0
N  N108  1  0.73915332  0.54682490  0.65006087  1  0  -0.438467  0  3.164751  0  0  -0.368092  0  3.438331  0  0  -0.389292  0  3.454786  0  -1.195103  0  -0.348778  -0.353354  0  3.426618  0
N  N109  1  0.23915371  0.45317500  0.84993954  1  0  -0.438497  0  3.164781  0  0  -0.368123  0  3.438373  0  0  -0.389322  0  3.454826  0  -1.195423  0  -0.348778  -0.353385  0  3.426659  0
N  N110  1  0.26084687  0.45317500  0.34993954  1  0  -0.438469  0  3.164777  0  0  -0.368098  0  3.438356  0  0  -0.389297  0  3.454811  0  -1.195107  0  -0.348759  -0.35336  0  3.426644  0
N  N111  1  0.76084744  0.54682490  0.15006087  1  0  -0.438486  0  3.164754  0  0  -0.368108  0  3.438344  0  0  -0.389306  0  3.454797  0  -1.195121  0  -0.348784  -0.353369  0  3.426632  0
N  N112  1  0.79716008  0.75853635  0.88797503  1  0  -0.352221  0  3.282688  0  0  -0.273345  0  3.548458  0  0  -0.293487  0  3.567224  0  -1.237341  0  -0.334603  -0.259501  0  3.53537  0
N  N113  1  0.29715950  0.24146269  0.61202584  1  0  -0.352235  0  3.282687  0  0  -0.273355  0  3.548453  0  0  -0.293499  0  3.56722  0  -1.237332  0  -0.334596  -0.259512  0  3.535367  0
N  N114  1  0.20284011  0.24146184  0.11202407  1  0  -0.352233  0  3.282713  0  0  -0.273357  0  3.548483  0  0  -0.293502  0  3.567254  0  -1.237327  0  -0.3346  -0.259514  0  3.535396  0
N  N115  1  0.70283972  0.75853721  0.38797531  1  0  -0.352234  0  3.282688  0  0  -0.273362  0  3.54846  0  0  -0.293504  0  3.567221  0  -1.23746  0  -0.334602  -0.25952  0  3.535373  0
N  N116  1  0.74062933  0.53212846  0.47903154  1  0  -0.438127  0  3.183962  0  0  -0.372187  0  3.456487  0  0  -0.392812  0  3.474992  0  -1.194292  0  -0.350677  -0.357698  0  3.443235  0
N  N117  1  0.24063068  0.46787144  0.02096813  1  0  -0.438079  0  3.184095  0  0  -0.372133  0  3.456625  0  0  -0.392753  0  3.475124  0  -1.194276  0  -0.350661  -0.357644  0  3.443371  0
N  N118  1  0.25936989  0.46787144  0.52096813  1  0  -0.438068  0  3.183957  0  0  -0.372133  0  3.456494  0  0  -0.392753  0  3.47499  0  -1.19428  0  -0.350662  -0.357643  0  3.443239  0
N  N119  1  0.75937047  0.53212846  0.97903228  1  0  -0.438076  0  3.184079  0  0  -0.372119  0  3.456586  0  0  -0.39274  0  3.475084  0  -1.194273  0  -0.350641  -0.357629  0  3.443333  0
N  N120  1  0.17899748  0.95886904  0.67047173  1  0  -0.409319  0  2.556281  0  0  -0.389833  0  2.768159  0  0  -0.399329  0  2.780187  0  -1.154062  0  -0.316838  -0.38352  0  2.76024  0
N  N121  1  0.67899613  0.04113086  0.82953016  1  0  -0.409363  0  2.555794  0  0  -0.38987  0  2.767665  0  0  -0.399367  0  2.779696  0  -1.153973  0  -0.316845  -0.383558  0  2.759744  0
N  N122  1  0.82100271  0.04113086  0.32952868  1  0  -0.409355  0  2.556222  0  0  -0.389864  0  2.768091  0  0  -0.399359  0  2.780121  0  -1.154026  0  -0.316862  -0.383553  0  2.760171  0
N  N123  1  0.32100502  0.95886989  0.17046905  1  0  -0.409318  0  2.555753  0  0  -0.389827  0  2.767617  0  0  -0.399323  0  2.779648  0  -1.153976  0  -0.316814  -0.383514  0  2.759698  0
O  O124  1  0.91308302  0.45831272  0.75871803  1  0  -0.577493  0  2.005126  0  0  -0.520817  0  2.25167  0  0  -0.546288  0  2.242707  0  -1.138558  0  -0.304544  -0.503075  0  2.257424  0
O  O125  1  0.41308245  0.54168717  0.74128164  1  0  -0.57751  0  2.005108  0  0  -0.520828  0  2.25164  0  0  -0.546301  0  2.242677  0  -1.138568  0  -0.304559  -0.503087  0  2.257393  0
O  O126  1  0.08691716  0.54168717  0.24128164  1  0  -0.577504  0  2.005117  0  0  -0.520835  0  2.251668  0  0  -0.546309  0  2.24271  0  -1.13857  0  -0.304558  -0.503095  0  2.257423  0
O  O127  1  0.58691677  0.45831272  0.25871803  1  0  -0.577484  0  2.00511  0  0  -0.5208  0  2.251627  0  0  -0.546274  0  2.24267  0  -1.13856  0  -0.304541  -0.50306  0  2.257382  0
O  O128  1  0.01304904  0.35640587  0.60583828  1  0  -0.64012  0  2.054966  0  0  -0.569573  0  2.29245  0  0  -0.597599  0  2.281131  0  -1.166533  0  -0.325696  -0.549933  0  2.299274  0
O  O129  1  0.51304865  0.64359403  0.89416139  1  0  -0.640124  0  2.054955  0  0  -0.569583  0  2.292448  0  0  -0.597608  0  2.281127  0  -1.166521  0  -0.325676  -0.549943  0  2.299272  0
O  O130  1  0.98695115  0.64359318  0.39416111  1  0  -0.6401  0  2.054964  0  0  -0.569553  0  2.292451  0  0  -0.597577  0  2.281131  0  -1.166521  0  -0.325684  -0.549913  0  2.299275  0
O  O131  1  0.48695154  0.35640672  0.10583856  1  0  -0.640122  0  2.055053  0  0  -0.569586  0  2.292541  0  0  -0.597612  0  2.28122  0  -1.166518  0  -0.32571  -0.549946  0  2.299364  0
O  O132  1  0.98435560  0.30942397  0.41108051  1  0  -0.535286  0  2.082741  0  0  -0.484797  0  2.303232  0  0  -0.507286  0  2.289954  0  -1.17285  0  -0.325784  -0.469389  0  2.311165  0
O  O133  1  0.48435502  0.69057763  0.08891972  1  0  -0.535324  0  2.082808  0  0  -0.484828  0  2.303303  0  0  -0.507316  0  2.29002  0  -1.172794  0  -0.325774  -0.469419  0  2.311233  0
O  O134  1  0.01564362  0.69057678  0.58891944  1  0  -0.535332  0  2.082747  0  0  -0.484835  0  2.303245  0  0  -0.507326  0  2.289966  0  -1.172585  0  -0.325782  -0.469427  0  2.311177  0
O  O135  1  0.51564420  0.30942397  0.91108051  1  0  -0.535325  0  2.082771  0  0  -0.484813  0  2.303269  0  0  -0.507301  0  2.289987  0  -1.172853  0  -0.325781  -0.469404  0  2.311201  0
O  O136  1  0.88654272  0.39090396  0.30859076  1  0  -0.558287  0  1.956675  0  0  -0.501286  0  2.186875  0  0  -0.524866  0  2.177924  0  -1.13816  0  -0.296461  -0.484896  0  2.192162  0
O  O137  1  0.38654214  0.60909679  0.19140919  1  0  -0.558221  0  1.956639  0  0  -0.50127  0  2.186884  0  0  -0.524852  0  2.177934  0  -1.13831  0  -0.296446  -0.484884  0  2.192179  0
O  O138  1  0.11345650  0.60909679  0.69140919  1  0  -0.558273  0  1.95667  0  0  -0.501272  0  2.186872  0  0  -0.52485  0  2.177919  0  -1.138305  0  -0.296455  -0.484888  0  2.192174  0
O  O139  1  0.61345804  0.39090396  0.80859076  1  0  -0.558239  0  1.956578  0  0  -0.501283  0  2.186837  0  0  -0.524864  0  2.177885  0  -1.138149  0  -0.296449  -0.484897  0  2.192134  0
