# generated using pymatgen
data_NiH60Pt2C56(N4Cl)2
_symmetry_space_group_name_H-M   'P 1'
_cell_length_a   9.12510694
_cell_length_b   9.99923350
_cell_length_c   15.58338560
_cell_angle_alpha   72.45723213
_cell_angle_beta   90.13080015
_cell_angle_gamma   90.42285464
_symmetry_Int_Tables_number   1
_chemical_formula_structural   NiH60Pt2C56(N4Cl)2
_chemical_formula_sum   'Ni1 H60 Pt2 C56 N8 Cl2'
_cell_volume   1355.72566593
_cell_formula_units_Z   1
loop_
 _symmetry_equiv_pos_site_id
 _symmetry_equiv_pos_as_xyz
  1  'x, y, z'
loop_
 _atom_site_type_symbol
 _atom_site_label
 _atom_site_symmetry_multiplicity
 _atom_site_fract_x
 _atom_site_fract_y
 _atom_site_fract_z
 _atom_site_occupancy
 _atom_site_hle17_bader_spin_density
 _atom_site_hle17_ddec_charge
 _atom_site_hle17_ddec_spin_density
 _atom_site_hle17_ddec_sum_bond_order
 _atom_site_hle17_magmom
 _atom_site_hse06_10hf_bader_spin_density
 _atom_site_hse06_10hf_ddec_charge
 _atom_site_hse06_10hf_ddec_spin_density
 _atom_site_hse06_10hf_ddec_sum_bond_order
 _atom_site_hse06_10hf_magmom
 _atom_site_hse06_bader_spin_density
 _atom_site_hse06_ddec_charge
 _atom_site_hse06_ddec_spin_density
 _atom_site_hse06_ddec_sum_bond_order
 _atom_site_hse06_magmom
 _atom_site_pbe_bader_charge
 _atom_site_pbe_bader_spin_density
 _atom_site_pbe_cm5_charge
 _atom_site_pbe_ddec_charge
 _atom_site_pbe_ddec_spin_density
 _atom_site_pbe_ddec_sum_bond_order
 _atom_site_pbe_magmom
Ni  Ni0  1  0.50000009  0.49999389  0.99999484  1  0  0.478748  0  2.385064  0  0  0.415749  0  2.831656  0  0  0.478179  0  2.771824  0  0.880528  0  0.649275  0.385016  0  2.867951  0
H  H1  1  0.34638072  0.58752634  0.12593451  1  0  0.098538  0  0.996085  0  0  0.102149  0  1.067777  0  0  0.104832  0  1.064301  0  0.17789  0  0.10383  0.100007  0  1.07045  0
H  H2  1  0.66067143  0.28824217  0.12436952  1  0  0.099444  0  0.989897  0  0  0.102585  0  1.062469  0  0  0.105239  0  1.059033  0  0.180285  0  0.104243  0.100476  0  1.065108  0
H  H3  1  0.65359725  0.41247575  0.87406715  1  0  0.098612  0  0.996115  0  0  0.102189  0  1.067826  0  0  0.104835  0  1.064401  0  0.17776  0  0.103867  0.10005  0  1.070494  0
H  H4  1  0.33932627  0.71175445  0.87563867  1  0  0.099484  0  0.989807  0  0  0.102745  0  1.062257  0  0  0.105401  0  1.058816  0  0.180161  0  0.104314  0.100628  0  1.064907  0
H  H5  1  0.66895104  0.75651197  0.27071245  1  0  0.096686  0  0.972996  0  0  0.105185  0  1.039893  0  0  0.106829  0  1.040148  0  0.121123  0  0.102102  0.10352  0  1.040616  0
H  H6  1  0.33815644  0.97830384  0.26326688  1  0  0.097883  0  0.967694  0  0  0.106606  0  1.033872  0  0  0.108392  0  1.033956  0  0.101069  0  0.103644  0.104877  0  1.034625  0
H  H7  1  0.33104987  0.24348623  0.72928247  1  0  0.096753  0  0.972927  0  0  0.105263  0  1.03979  0  0  0.106909  0  1.040043  0  0.121056  0  0.102131  0.103584  0  1.040529  0
H  H8  1  0.66184886  0.02169034  0.73673419  1  0  0.09795  0  0.967673  0  0  0.106622  0  1.033889  0  0  0.108407  0  1.033976  0  0.10111  0  0.10365  0.104893  0  1.034644  0
H  H9  1  0.86149613  0.69027410  0.17579399  1  0  0.112277  0  0.941901  0  0  0.125627  0  0.992555  0  0  0.128185  0  0.992447  0  0.071182  0  0.113134  0.123954  0  0.992466  0
H  H10  1  0.14521209  0.13746385  0.17160840  1  0  0.112481  0  0.937873  0  0  0.126458  0  0.987374  0  0  0.129037  0  0.987298  0  0.108716  0  0.113936  0.124747  0  0.987297  0
H  H11  1  0.13850374  0.30972635  0.82420718  1  0  0.112327  0  0.94194  0  0  0.125678  0  0.992589  0  0  0.128239  0  0.992477  0  0.071136  0  0.113142  0.124003  0  0.992501  0
H  H12  1  0.85480735  0.86252182  0.82838631  1  0  0.112442  0  0.937782  0  0  0.126391  0  0.987338  0  0  0.128964  0  0.987268  0  0.108655  0  0.113978  0.12468  0  0.987257  0
H  H13  1  0.78682497  0.56270384  0.06712332  1  0  0.099912  0  0.975695  0  0  0.103711  0  1.04418  0  0  0.10605  0  1.041042  0  0.176821  0  0.111211  0.101335  0  1.047687  0
H  H14  1  0.22020656  0.37096479  0.06742903  1  0  0.099346  0  0.977131  0  0  0.103476  0  1.045555  0  0  0.105862  0  1.042297  0  0.162954  0  0.11167  0.101052  0  1.049165  0
H  H15  1  0.21317825  0.43730140  0.93288156  1  0  0.099981  0  0.975533  0  0  0.103708  0  1.044106  0  0  0.106048  0  1.040967  0  0.176754  0  0.111166  0.101332  0  1.047611  0
H  H16  1  0.77978882  0.62902650  0.93256644  1  0  0.099338  0  0.977156  0  0  0.103448  0  1.045616  0  0  0.105833  0  1.042361  0  0.162944  0  0.11167  0.101085  0  1.049161  0
H  H17  1  0.50956637  0.65732549  0.38836161  1  0  0.08042  0  0.982428  0  0  0.09127  0  1.051315  0  0  0.093775  0  1.050131  0  0.024858  0  0.090081  0.089105  0  1.052855  0
H  H18  1  0.49127431  0.96415843  0.38300751  1  0  0.080866  0  0.980291  0  0  0.091459  0  1.049943  0  0  0.093973  0  1.048831  0  0.034643  0  0.09027  0.089305  0  1.051387  0
H  H19  1  0.49043459  0.34267813  0.61163639  1  0  0.080629  0  0.982297  0  0  0.091427  0  1.051197  0  0  0.093925  0  1.050037  0  0.02476  0  0.090127  0.089262  0  1.05274  0
H  H20  1  0.50872549  0.03583177  0.61699330  1  0  0.08084  0  0.980267  0  0  0.09147  0  1.049888  0  0  0.093989  0  1.048759  0  0.03455  0  0.090257  0.089318  0  1.051321  0
H  H21  1  0.00776029  0.75935552  0.26499655  1  0  0.078744  0  0.985598  0  0  0.091068  0  1.045674  0  0  0.092824  0  1.045606  0  0.053691  0  0.091701  0.089749  0  1.045736  0
H  H22  1  0.99611425  0.97216471  0.26510758  1  0  0.080183  0  0.982398  0  0  0.092523  0  1.041908  0  0  0.094195  0  1.042019  0  0.074465  0  0.092423  0.09117  0  1.042019  0
H  H23  1  0.99224619  0.24065716  0.73499664  1  0  0.078692  0  0.985609  0  0  0.091012  0  1.045691  0  0  0.092728  0  1.045661  0  0.053598  0  0.091693  0.089661  0  1.045791  0
H  H24  1  0.00388457  0.02784032  0.73489645  1  0  0.080192  0  0.982331  0  0  0.092527  0  1.041859  0  0  0.094198  0  1.041972  0  0.074332  0  0.092444  0.091177  0  1.041964  0
H  H25  1  0.20311032  0.71846385  0.16857398  1  0  0.105725  0  0.964586  0  0  0.114691  0  1.027115  0  0  0.117705  0  1.025178  0  0.134862  0  0.096149  0.112375  0  1.02868  0
H  H26  1  0.80512826  0.10965815  0.16739669  1  0  0.105299  0  0.955832  0  0  0.114336  0  1.017869  0  0  0.117383  0  1.015945  0  0.119019  0  0.098629  0.11207  0  1.019282  0
H  H27  1  0.79689300  0.28156303  0.83142306  1  0  0.105703  0  0.964518  0  0  0.114638  0  1.027114  0  0  0.117714  0  1.025101  0  0.13478  0  0.096118  0.11229  0  1.028709  0
H  H28  1  0.19486834  0.89034377  0.83260407  1  0  0.105318  0  0.955795  0  0  0.114327  0  1.017858  0  0  0.117373  0  1.015934  0  0.119002  0  0.098645  0.112062  0  1.019271  0
H  H29  1  0.40363828  0.63849282  0.54286899  1  0  0.058655  0  0.930388  0  0  0.077964  0  0.991261  0  0  0.078418  0  0.990965  0  0.015511  0  0.098037  0.07691  0  0.992954  0
H  H30  1  0.58978863  0.83024424  0.53765358  1  0  0.059162  0  0.931307  0  0  0.078078  0  0.993113  0  0  0.078464  0  0.993028  0  0.021824  0  0.098221  0.077167  0  0.99456  0
H  H31  1  0.59635929  0.36150416  0.45712078  1  0  0.058691  0  0.930275  0  0  0.077979  0  0.991169  0  0  0.078437  0  0.990877  0  0.015718  0  0.098073  0.076926  0  0.99286  0
H  H32  1  0.41020789  0.16974509  0.46235022  1  0  0.059153  0  0.931318  0  0  0.078071  0  0.993111  0  0  0.07846  0  0.993024  0  0.021929  0  0.098208  0.077168  0  0.99455  0
H  H33  1  0.33951431  0.81381862  0.51275241  1  0  0.068316  0  0.930107  0  0  0.087245  0  0.99268  0  0  0.087399  0  0.99283  0  0.06085  0  0.103363  0.08674  0  0.993293  0
H  H34  1  0.65176850  0.68515113  0.50471199  1  0  0.068178  0  0.93151  0  0  0.087495  0  0.993563  0  0  0.087757  0  0.993472  0  0.053774  0  0.103683  0.086899  0  0.994417  0
H  H35  1  0.66049106  0.18618415  0.48724857  1  0  0.068236  0  0.930324  0  0  0.087237  0  0.992815  0  0  0.087391  0  0.992974  0  0.060958  0  0.103336  0.08673  0  0.99343  0
H  H36  1  0.34823898  0.31484435  0.49528460  1  0  0.068186  0  0.931582  0  0  0.087506  0  0.993607  0  0  0.087773  0  0.993514  0  0.053757  0  0.1037  0.086907  0  0.994462  0
H  H37  1  0.09886821  0.66201942  0.69235022  1  0  0.09938  0  0.948444  0  0  0.124981  0  1.000517  0  0  0.12547  0  1.00092  0  0.04836  0  0.104794  0.124475  0  1.000396  0
H  H38  1  0.88655003  0.64934675  0.68933062  1  0  0.098579  0  0.951757  0  0  0.12411  0  1.004132  0  0  0.124613  0  1.004566  0  0.057568  0  0.104689  0.123555  0  1.004005  0
H  H39  1  0.90113166  0.33798293  0.30764905  1  0  0.099369  0  0.948504  0  0  0.124976  0  1.000562  0  0  0.125467  0  1.000964  0  0.048326  0  0.104793  0.12447  0  1.00044  0
H  H40  1  0.11345641  0.35065117  0.31067307  1  0  0.098532  0  0.951769  0  0  0.124072  0  1.004142  0  0  0.124574  0  1.004569  0  0.057612  0  0.104701  0.123519  0  1.004014  0
H  H41  1  0.19442026  0.81822376  0.63088563  1  0  0.09649  0  0.979285  0  0  0.111001  0  1.054076  0  0  0.111078  0  1.056234  0  0.0614  0  0.096467  0.110902  0  1.052554  0
H  H42  1  0.79026178  0.55923707  0.62304538  1  0  0.097293  0  0.972176  0  0  0.112482  0  1.046096  0  0  0.112694  0  1.047988  0  0.044166  0  0.097349  0.112259  0  1.044817  0
H  H43  1  0.80558622  0.18178151  0.36911602  1  0  0.096528  0  0.97937  0  0  0.111029  0  1.054148  0  0  0.111104  0  1.056316  0  0.061373  0  0.096475  0.11093  0  1.052629  0
H  H44  1  0.20974356  0.44076425  0.37695280  1  0  0.097215  0  0.972186  0  0  0.112417  0  1.0461  0  0  0.112629  0  1.047988  0  0.044159  0  0.0973  0.112194  0  1.04482  0
H  H45  1  0.29259055  0.65998475  0.68329476  1  0  0.088637  0  0.927779  0  0  0.111343  0  0.98877  0  0  0.11141  0  0.990111  0  0.029298  0  0.096481  0.111501  0  0.987632  0
H  H46  1  0.69340088  0.66534652  0.67818252  1  0  0.088404  0  0.926739  0  0  0.110937  0  0.987946  0  0  0.111068  0  0.98922  0  0.035154  0  0.09628  0.111017  0  0.986907  0
H  H47  1  0.70740926  0.34001366  0.31670103  1  0  0.088662  0  0.927722  0  0  0.111344  0  0.988743  0  0  0.111411  0  0.990086  0  0.02929  0  0.096464  0.111503  0  0.987604  0
H  H48  1  0.30660002  0.33464915  0.32181493  1  0  0.088377  0  0.926866  0  0  0.110905  0  0.988072  0  0  0.111035  0  0.989345  0  0.035122  0  0.096283  0.110984  0  0.987035  0
H  H49  1  0.14796751  0.47838925  0.52588929  1  0  0.084532  0  0.992582  0  0  0.08999  0  1.084892  0  0  0.09322  0  1.08096  0  0.060872  0  0.082526  0.087758  0  1.087566  0
H  H50  1  0.84971861  0.99790436  0.53071124  1  0  0.085608  0  0.995056  0  0  0.089074  0  1.08959  0  0  0.092578  0  1.085291  0  0.07919  0  0.081713  0.086739  0  1.09236  0
H  H51  1  0.85203129  0.52161370  0.47411256  1  0  0.084476  0  0.992618  0  0  0.089948  0  1.084913  0  0  0.093176  0  1.080979  0  0.061234  0  0.082514  0.087714  0  1.087585  0
H  H52  1  0.15027577  0.00208997  0.46929392  1  0  0.085581  0  0.995074  0  0  0.089049  0  1.089604  0  0  0.092556  0  1.085295  0  0.079057  0  0.081698  0.086711  0  1.092376  0
H  H53  1  0.05905326  0.47650634  0.62708648  1  0  0.098997  0  0.96525  0  0  0.11775  0  1.032851  0  0  0.118285  0  1.0338  0  0.095476  0  0.097623  0.11733  0  1.032175  0
H  H54  1  0.93211763  0.89628892  0.63183398  1  0  0.098403  0  0.96678  0  0  0.117061  0  1.03431  0  0  0.117601  0  1.035289  0  0.101005  0  0.097759  0.116635  0  1.033639  0
H  H55  1  0.94094769  0.52349815  0.37290853  1  0  0.098957  0  0.965223  0  0  0.117686  0  1.032899  0  0  0.118222  0  1.033848  0  0.095398  0  0.097604  0.117263  0  1.032223  0
H  H56  1  0.06787679  0.10371149  0.36817041  1  0  0.098384  0  0.966865  0  0  0.117066  0  1.034344  0  0  0.117594  0  1.035358  0  0.101049  0  0.097747  0.116645  0  1.033655  0
H  H57  1  0.25366096  0.45685073  0.62664945  1  0  0.07679  0  0.968466  0  0  0.097641  0  1.036444  0  0  0.097622  0  1.037735  0  0.016345  0  0.088341  0.097727  0  1.035594  0
H  H58  1  0.73821084  0.92127586  0.62855159  1  0  0.075411  0  0.971179  0  0  0.096164  0  1.038868  0  0  0.096134  0  1.040231  0  0.024777  0  0.087801  0.096181  0  1.038116  0
H  H59  1  0.74633673  0.54315139  0.37335218  1  0  0.076768  0  0.96835  0  0  0.097639  0  1.036321  0  0  0.097617  0  1.037614  0  0.016388  0  0.088347  0.097725  0  1.035467  0
H  H60  1  0.26177916  0.07872037  0.37145167  1  0  0.075481  0  0.97123  0  0  0.096217  0  1.038923  0  0  0.096192  0  1.040272  0  0.024513  0  0.087815  0.096233  0  1.038174  0
Pt  Pt61  1  0.99761696  0.76747360  0.46876761  1  0  0.112097  0  3.100489  0  0  0.112511  0  3.585277  0  0  0.113865  0  3.57215  0  0.335586  0  0.516056  0.11251  0  3.59345  0
Pt  Pt62  1  0.00237962  0.23252664  0.53123270  1  0  0.11197  0  3.100579  0  0  0.112528  0  3.585289  0  0  0.113889  0  3.572169  0  0.335579  0  0.516059  0.112501  0  3.593496  0
C  C63  1  0.45904788  0.60763299  0.14340095  1  0  0.068265  0  3.605653  0  0  0.028892  0  3.853645  0  0  0.03878  0  3.868243  0  0.459695  0  0.045742  0.02246  0  3.844436  0
C  C64  1  0.54806790  0.25117493  0.14138765  1  0  0.073254  0  3.594896  0  0  0.034606  0  3.843345  0  0  0.044736  0  3.857907  0  0.464606  0  0.048102  0.028022  0  3.834126  0
C  C65  1  0.54094102  0.39236578  0.85659978  1  0  0.068211  0  3.605579  0  0  0.02888  0  3.853604  0  0  0.038797  0  3.868211  0  0.460049  0  0.045759  0.022442  0  3.844401  0
C  C66  1  0.45192972  0.74881946  0.85861108  1  0  0.073181  0  3.594735  0  0  0.034424  0  3.843227  0  0  0.04455  0  3.857791  0  0.464988  0  0.048017  0.027848  0  3.834012  0
C  C67  1  0.49162102  0.66670145  0.21231292  1  0  0.014642  0  3.771714  0  0  0.033942  0  4.001583  0  0  0.029302  0  4.024723  0  0.001262  0  -0.00283  0.036724  0  3.985422  0
C  C68  1  0.51522331  0.12501955  0.20845440  1  0  0.012337  0  3.767433  0  0  0.030436  0  3.999308  0  0  0.025706  0  4.022469  0  -0.003054  0  -0.002966  0.033208  0  3.983301  0
C  C69  1  0.50837991  0.33330053  0.78768142  1  0  0.014822  0  3.771447  0  0  0.034019  0  4.001329  0  0  0.029378  0  4.02446  0  0.001278  0  -0.002888  0.036802  0  3.985168  0
C  C70  1  0.48478092  0.87497840  0.79154608  1  0  0.012321  0  3.767318  0  0  0.030382  0  3.999244  0  0  0.02566  0  4.022395  0  -0.003006  0  -0.002972  0.033157  0  3.983225  0
C  C71  1  0.63899501  0.70129146  0.22249546  1  0  -0.064288  0  3.704616  0  0  -0.08931  0  3.95097  0  0  -0.084205  0  3.967501  0  -0.100414  0  -0.071815  -0.092392  0  3.939643  0
C  C72  1  0.36784777  0.08072116  0.21720786  1  0  -0.063575  0  3.707507  0  0  -0.088  0  3.95362  0  0  -0.082889  0  3.969889  0  -0.14119  0  -0.071542  -0.0911  0  3.942507  0
C  C73  1  0.36101030  0.29870799  0.77750140  1  0  -0.064429  0  3.704383  0  0  -0.089417  0  3.950739  0  0  -0.084307  0  3.967267  0  -0.100361  0  -0.071798  -0.092494  0  3.939426  0
C  C74  1  0.63215432  0.91927927  0.78279652  1  0  -0.063614  0  3.707595  0  0  -0.087972  0  3.953685  0  0  -0.082866  0  3.969951  0  -0.141093  0  -0.071517  -0.091072  0  3.94257  0
C  C75  1  0.74601385  0.66656711  0.16941935  1  0  -0.10757  0  3.740837  0  0  -0.116918  0  3.987046  0  0  -0.124123  0  4.007169  0  -0.028287  0  -0.081648  -0.112361  0  3.973269  0
C  C76  1  0.26066023  0.16727154  0.16576810  1  0  -0.106626  0  3.745709  0  0  -0.11579  0  3.991538  0  0  -0.123045  0  4.011695  0  -0.034456  0  -0.080745  -0.111179  0  3.977802  0
C  C77  1  0.25398052  0.33342976  0.83058327  1  0  -0.107643  0  3.740824  0  0  -0.117012  0  3.987015  0  0  -0.124218  0  4.00714  0  -0.028218  0  -0.081676  -0.112455  0  3.97324  0
C  C78  1  0.73934298  0.83273286  0.83423655  1  0  -0.106618  0  3.745728  0  0  -0.115768  0  3.991556  0  0  -0.123018  0  4.011715  0  -0.034846  0  -0.080828  -0.111158  0  3.977829  0
C  C79  1  0.70621685  0.60038160  0.10597323  1  0  0.102321  0  3.647858  0  0  0.07042  0  3.896922  0  0  0.079648  0  3.914565  0  0.409227  0  0.046002  0.063976  0  3.887163  0
C  C80  1  0.30067776  0.29516691  0.10478627  1  0  0.101081  0  3.6532  0  0  0.06851  0  3.902852  0  0  0.077919  0  3.920201  0  0.44208  0  0.044871  0.061877  0  3.893355  0
C  C81  1  0.29377645  0.39961884  0.89402795  1  0  0.102302  0  3.64774  0  0  0.070463  0  3.896806  0  0  0.079689  0  3.91445  0  0.409184  0  0.046018  0.064036  0  3.887021  0
C  C82  1  0.69932430  0.70483418  0.89521427  1  0  0.101086  0  3.65324  0  0  0.068525  0  3.90291  0  0  0.077929  0  3.920264  0  0.442358  0  0.0449  0.06185  0  3.893374  0
C  C83  1  0.37305760  0.69000114  0.27018551  1  0  0.035774  0  3.824646  0  0  0.050283  0  4.057653  0  0  0.049542  0  4.084037  0  -0.037501  0  -0.023456  0.051496  0  4.038782  0
C  C84  1  0.63194423  0.04405632  0.26668837  1  0  0.036249  0  3.818017  0  0  0.051387  0  4.050663  0  0  0.050745  0  4.077001  0  -0.000638  0  -0.022153  0.05241  0  4.032  0
C  C85  1  0.62694439  0.30999750  0.72980792  1  0  0.035572  0  3.824667  0  0  0.050326  0  4.057381  0  0  0.049584  0  4.083777  0  -0.037513  0  -0.023404  0.051541  0  4.038504  0
C  C86  1  0.36805787  0.95594832  0.73331392  1  0  0.036251  0  3.817952  0  0  0.051438  0  4.050541  0  0  0.050792  0  4.076877  0  -0.000457  0  -0.022151  0.052462  0  4.031881  0
C  C87  1  0.39994225  0.68354424  0.36033131  1  0  -0.170444  0  3.75259  0  0  -0.197025  0  4.000901  0  0  -0.199697  0  4.022354  0  -0.123  0  -0.103395  -0.19462  0  3.986583  0
C  C88  1  0.60170477  0.96374953  0.35610413  1  0  -0.170477  0  3.746451  0  0  -0.197121  0  3.995458  0  0  -0.199792  0  4.016738  0  -0.053883  0  -0.103308  -0.194702  0  3.981237  0
C  C89  1  0.60004543  0.31643545  0.63967151  1  0  -0.170723  0  3.752627  0  0  -0.197304  0  4.000905  0  0  -0.199979  0  4.02235  0  -0.122997  0  -0.103442  -0.1949  0  3.986592  0
C  C90  1  0.39829844  0.03625594  0.64389840  1  0  -0.170421  0  3.746355  0  0  -0.197101  0  3.995328  0  0  -0.199768  0  4.016607  0  -0.05413  0  -0.103243  -0.194683  0  3.98112  0
C  C91  1  0.28857531  0.70945315  0.41435229  1  0  0.030817  0  3.807248  0  0  0.055847  0  4.042516  0  0  0.053731  0  4.068929  0  0.018233  0  -0.044741  0.056166  0  4.025835  0
C  C92  1  0.71036312  0.88361199  0.41089916  1  0  0.030793  0  3.806691  0  0  0.055186  0  4.04337  0  0  0.053243  0  4.0695  0  -0.114735  0  -0.044126  0.055558  0  4.026708  0
C  C93  1  0.71142012  0.29054251  0.58564517  1  0  0.030949  0  3.806975  0  0  0.055923  0  4.042312  0  0  0.053816  0  4.068725  0  0.017967  0  -0.044817  0.056241  0  4.025634  0
C  C94  1  0.28963675  0.11638529  0.58910518  1  0  0.030889  0  3.806605  0  0  0.055274  0  4.043263  0  0  0.053336  0  4.069388  0  -0.114706  0  -0.044076  0.055643  0  4.026613  0
C  C95  1  0.14435884  0.74254138  0.38116001  1  0  -0.145207  0  3.748293  0  0  -0.153496  0  4.059375  0  0  -0.155286  0  4.080096  0  -0.081007  0  -0.154378  -0.152745  0  4.046261  0
C  C96  1  0.85556655  0.88010505  0.37957156  1  0  -0.145511  0  3.743666  0  0  -0.154185  0  4.05645  0  0  -0.155842  0  4.076701  0  -0.058496  0  -0.153902  -0.153615  0  4.043697  0
C  C97  1  0.85564107  0.25746769  0.61883786  1  0  -0.145292  0  3.748362  0  0  -0.153577  0  4.059461  0  0  -0.155366  0  4.08017  0  -0.080814  0  -0.154366  -0.152821  0  4.046338  0
C  C98  1  0.14443216  0.11988725  0.62042821  1  0  -0.145507  0  3.743859  0  0  -0.154199  0  4.056647  0  0  -0.155856  0  4.076894  0  -0.058504  0  -0.153923  -0.153625  0  4.043892  0
C  C99  1  0.11800997  0.73990316  0.29247875  1  0  -0.097567  0  3.824953  0  0  -0.107681  0  4.076844  0  0  -0.110102  0  4.09989  0  -0.115861  0  -0.113363  -0.105425  0  4.061218  0
C  C100  1  0.88524043  0.96744170  0.29157230  1  0  -0.100262  0  3.823392  0  0  -0.109735  0  4.074983  0  0  -0.112077  0  4.097929  0  -0.094588  0  -0.112714  -0.107627  0  4.059719  0
C  C101  1  0.88199441  0.26012038  0.70751738  1  0  -0.097522  0  3.824988  0  0  -0.107629  0  4.076908  0  0  -0.11002  0  4.099986  0  -0.115561  0  -0.113366  -0.105352  0  4.061285  0
C  C102  1  0.11475834  0.03255981  0.70842674  1  0  -0.100238  0  3.823452  0  0  -0.109713  0  4.075051  0  0  -0.112054  0  4.097998  0  -0.094576  0  -0.112683  -0.107601  0  4.059777  0
C  C103  1  0.22878128  0.71576511  0.23767443  1  0  -0.10843  0  3.723499  0  0  -0.126724  0  3.963075  0  0  -0.129379  0  3.984707  0  -0.073852  0  -0.092467  -0.124688  0  3.947821  0
C  C104  1  0.77703949  0.04644689  0.23590455  1  0  -0.106307  0  3.721671  0  0  -0.124411  0  3.961354  0  0  -0.12706  0  3.982889  0  -0.113459  0  -0.09118  -0.122383  0  3.946299  0
C  C105  1  0.77123411  0.28426219  0.76232431  1  0  -0.108261  0  3.723202  0  0  -0.126626  0  3.962748  0  0  -0.129329  0  3.984337  0  -0.073977  0  -0.092453  -0.12456  0  3.947508  0
C  C106  1  0.22296699  0.95355628  0.76409815  1  0  -0.106345  0  3.721633  0  0  -0.124436  0  3.961305  0  0  -0.127085  0  3.98284  0  -0.11326  0  -0.091242  -0.122412  0  3.946253  0
C  C107  1  0.31280485  0.70753767  0.50988726  1  0  -0.046313  0  3.650445  0  0  -0.106676  0  3.892669  0  0  -0.1024  0  3.904063  0  0.230368  0  -0.074887  -0.109063  0  3.885344  0
C  C108  1  0.68104231  0.79212958  0.50505110  1  0  -0.046599  0  3.647356  0  0  -0.106969  0  3.890051  0  0  -0.102968  0  3.901956  0  0.237119  0  -0.074462  -0.109166  0  3.882277  0
C  C109  1  0.68719389  0.29246177  0.49010961  1  0  -0.046244  0  3.650559  0  0  -0.10666  0  3.892871  0  0  -0.102399  0  3.904277  0  0.230319  0  -0.074842  -0.109046  0  3.885549  0
C  C110  1  0.31895424  0.20786499  0.49495170  1  0  -0.046749  0  3.647458  0  0  -0.107033  0  3.89017  0  0  -0.103043  0  3.902104  0  0.237023  0  -0.074468  -0.109214  0  3.882347  0
C  C111  1  0.19111539  0.70379124  0.64727175  1  0  -0.18557  0  3.635374  0  0  -0.285226  0  3.889688  0  0  -0.282694  0  3.899936  0  0.242396  0  -0.151817  -0.286425  0  3.882111  0
C  C112  1  0.79539520  0.65566873  0.64256744  1  0  -0.183238  0  3.634291  0  0  -0.2828  0  3.887967  0  0  -0.280297  0  3.897987  0  0.240781  0  -0.150481  -0.283924  0  3.880517  0
C  C113  1  0.80888883  0.29620841  0.35272598  1  0  -0.185618  0  3.635499  0  0  -0.285263  0  3.88983  0  0  -0.282723  0  3.900051  0  0.242452  0  -0.151835  -0.286467  0  3.882259  0
C  C114  1  0.20461013  0.34432732  0.35743494  1  0  -0.183154  0  3.634286  0  0  -0.282649  0  3.88803  0  0  -0.280131  0  3.898041  0  0.240767  0  -0.150442  -0.283773  0  3.880574  0
C  C115  1  0.15872625  0.50977153  0.58718037  1  0  -0.193124  0  3.655717  0  0  -0.296807  0  3.921356  0  0  -0.293659  0  3.928334  0  0.190609  0  -0.164304  -0.298499  0  3.915923  0
C  C116  1  0.83424433  0.90601185  0.58979526  1  0  -0.192573  0  3.650719  0  0  -0.294198  0  3.915332  0  0  -0.291316  0  3.922567  0  0.163409  0  -0.164798  -0.295743  0  3.909889  0
C  C117  1  0.84128348  0.49022957  0.41282015  1  0  -0.193003  0  3.655581  0  0  -0.296729  0  3.921238  0  0  -0.293577  0  3.928212  0  0.190429  0  -0.164273  -0.298433  0  3.915838  0
C  C118  1  0.16575114  0.09398502  0.41020737  1  0  -0.192701  0  3.650818  0  0  -0.294249  0  3.915475  0  0  -0.291365  0  3.922703  0  0.163733  0  -0.164817  -0.295798  0  3.910047  0
N  N119  1  0.56358297  0.57652920  0.09181505  1  0  -0.214192  0  3.415947  0  0  -0.152804  0  3.697442  0  0  -0.180836  0  3.71868  0  -1.184698  0  -0.33579  -0.136667  0  3.684345  0
N  N120  1  0.44331682  0.33262547  0.09097866  1  0  -0.215497  0  3.405926  0  0  -0.154068  0  3.687785  0  0  -0.182098  0  3.708909  0  -1.183262  0  -0.333591  -0.137879  0  3.674691  0
N  N121  1  0.43641908  0.42346895  0.90818629  1  0  -0.214282  0  3.416325  0  0  -0.152901  0  3.69781  0  0  -0.18093  0  3.719029  0  -1.184672  0  -0.335896  -0.13677  0  3.684725  0
N  N122  1  0.55668633  0.66737795  0.90901847  1  0  -0.2154  0  3.405902  0  0  -0.153967  0  3.687783  0  0  -0.181997  0  3.708917  0  -1.1835  0  -0.333573  -0.137783  0  3.674701  0
N  N123  1  0.17603689  0.66354214  0.56380381  1  0  -0.068955  0  3.296852  0  0  0.03456  0  3.539094  0  0  0.021154  0  3.558602  0  -0.943727  0  -0.345898  0.044038  0  3.525104  0
N  N124  1  0.81533012  0.77837905  0.56186139  1  0  -0.069138  0  3.297289  0  0  0.033469  0  3.541326  0  0  0.020205  0  3.560825  0  -0.944975  0  -0.347459  0.042877  0  3.527351  0
N  N125  1  0.82396188  0.33645874  0.43619587  1  0  -0.068927  0  3.296894  0  0  0.034601  0  3.539098  0  0  0.021201  0  3.558612  0  -0.943989  0  -0.345872  0.044081  0  3.525105  0
N  N126  1  0.18467086  0.22162054  0.43814276  1  0  -0.068825  0  3.296949  0  0  0.03347  0  3.54137  0  0  0.020169  0  3.560954  0  -0.94495  0  -0.347466  0.04288  0  3.527397  0
Cl  Cl127  1  0.82678352  0.36026779  0.99677456  1  0  -0.74623  0  0.53674  0  0  -0.712469  0  0.704968  0  0  -0.72601  0  0.686152  0  -0.791716  0  -0.469337  -0.701192  0  0.718621  0
Cl  Cl128  1  0.17321190  0.63972620  0.00322245  1  0  -0.746227  0  0.536798  0  0  -0.712479  0  0.705031  0  0  -0.726028  0  0.686201  0  -0.791721  0  -0.469324  -0.701192  0  0.71868  0
