# generated using pymatgen
data_AgH11C11NO3
_symmetry_space_group_name_H-M   'P 1'
_cell_length_a   7.16393372
_cell_length_b   11.78937172
_cell_length_c   13.38000000
_cell_angle_alpha   93.14711322
_cell_angle_beta   90.00000000
_cell_angle_gamma   107.68753620
_symmetry_Int_Tables_number   1
_chemical_formula_structural   AgH11C11NO3
_chemical_formula_sum   'Ag4 H44 C44 N4 O12'
_cell_volume   1074.84252189
_cell_formula_units_Z   4
loop_
 _symmetry_equiv_pos_site_id
 _symmetry_equiv_pos_as_xyz
  1  'x, y, z'
loop_
 _atom_site_type_symbol
 _atom_site_label
 _atom_site_symmetry_multiplicity
 _atom_site_fract_x
 _atom_site_fract_y
 _atom_site_fract_z
 _atom_site_occupancy
 _atom_site_hle17_bader_spin_density
 _atom_site_hle17_ddec_charge
 _atom_site_hle17_ddec_spin_density
 _atom_site_hle17_ddec_sum_bond_order
 _atom_site_hle17_magmom
 _atom_site_hse06_10hf_bader_spin_density
 _atom_site_hse06_10hf_ddec_charge
 _atom_site_hse06_10hf_ddec_spin_density
 _atom_site_hse06_10hf_ddec_sum_bond_order
 _atom_site_hse06_10hf_magmom
 _atom_site_hse06_bader_spin_density
 _atom_site_hse06_ddec_charge
 _atom_site_hse06_ddec_spin_density
 _atom_site_hse06_ddec_sum_bond_order
 _atom_site_hse06_magmom
 _atom_site_pbe_bader_charge
 _atom_site_pbe_bader_spin_density
 _atom_site_pbe_cm5_charge
 _atom_site_pbe_ddec_charge
 _atom_site_pbe_ddec_spin_density
 _atom_site_pbe_ddec_sum_bond_order
 _atom_site_pbe_magmom
Ag  Ag0  1  0.51536752  0.43533377  0.89955929  1  0  0.612513  0  1.194981  0  0  0.488147  0  1.594309  0  0  0.525351  0  1.542478  0  0.587177  0  0.420364  0.461245  0  1.630669  0
Ag  Ag1  1  0.07973566  0.56501080  0.60022457  1  0  0.611604  0  1.198288  0  0  0.487488  0  1.597772  0  0  0.524668  0  1.5459  0  0.587117  0  0.420376  0.460647  0  1.634135  0
Ag  Ag2  1  0.48463474  0.56466747  0.10043741  1  0  0.612514  0  1.195042  0  0  0.488157  0  1.594356  0  0  0.525359  0  1.542524  0  0.587104  0  0.420362  0.461256  0  1.630719  0
Ag  Ag3  1  0.92027225  0.43498775  0.39977947  1  0  0.611572  0  1.198334  0  0  0.487451  0  1.59783  0  0  0.524631  0  1.545959  0  0.586987  0  0.420353  0.460612  0  1.634188  0
H  H4  1  0.05243849  0.19865792  0.86352305  1  0  0.094016  0  0.958474  0  0  0.103463  0  1.021636  0  0  0.106448  0  1.019766  0  0.105967  0  0.099026  0.101342  0  1.022911  0
H  H5  1  0.85426499  0.80131923  0.63660253  1  0  0.093961  0  0.957989  0  0  0.103096  0  1.021611  0  0  0.106098  0  1.019711  0  0.098779  0  0.098957  0.100949  0  1.02293  0
H  H6  1  0.94755494  0.80134242  0.13647734  1  0  0.094024  0  0.958498  0  0  0.103452  0  1.021669  0  0  0.106437  0  1.0198  0  0.105948  0  0.099004  0.101333  0  1.022941  0
H  H7  1  0.14572789  0.19868557  0.36339060  1  0  0.093937  0  0.957953  0  0  0.103042  0  1.021626  0  0  0.106047  0  1.019725  0  0.098691  0  0.098937  0.100894  0  1.022949  0
H  H8  1  0.30368361  0.13465680  0.94782994  1  0  0.098768  0  0.992085  0  0  0.106879  0  1.056551  0  0  0.109874  0  1.056825  0  0.067963  0  0.095837  0.104783  0  1.056447  0
H  H9  1  0.16916047  0.86512773  0.55222503  1  0  0.098583  0  0.992017  0  0  0.106879  0  1.0564  0  0  0.109832  0  1.056663  0  0.074831  0  0.095839  0.104831  0  1.056237  0
H  H10  1  0.69632132  0.86534979  0.05216552  1  0  0.098767  0  0.992156  0  0  0.1069  0  1.056594  0  0  0.109897  0  1.056859  0  0.068033  0  0.095844  0.104804  0  1.056487  0
H  H11  1  0.83084051  0.13486815  0.44777439  1  0  0.098564  0  0.99204  0  0  0.106871  0  1.056391  0  0  0.109822  0  1.056659  0  0.074825  0  0.095833  0.104824  0  1.05623  0
H  H12  1  0.24795412  0.34673260  0.21366274  1  0  0.107023  0  0.997159  0  0  0.117094  0  1.058142  0  0  0.120888  0  1.056441  0  0.096886  0  0.100142  0.114341  0  1.059602  0
H  H13  1  0.90100795  0.65349426  0.28621781  1  0  0.107815  0  0.99574  0  0  0.117578  0  1.057248  0  0  0.121395  0  1.055531  0  0.09442  0  0.100329  0.114809  0  1.05872  0
H  H14  1  0.75205411  0.65327220  0.78633637  1  0  0.106969  0  0.997161  0  0  0.11703  0  1.058161  0  0  0.120823  0  1.05646  0  0.096547  0  0.100132  0.114277  0  1.059622  0
H  H15  1  0.09899829  0.34649538  0.71377832  1  0  0.107865  0  0.995782  0  0  0.117644  0  1.057255  0  0  0.121464  0  1.055534  0  0.094304  0  0.100365  0.114875  0  1.058728  0
H  H16  1  0.99040533  0.40649148  0.12977022  1  0  0.096255  0  0.964911  0  0  0.108112  0  1.024733  0  0  0.111141  0  1.022391  0  0.084788  0  0.102258  0.105914  0  1.026469  0
H  H17  1  0.58369399  0.59368098  0.37021234  1  0  0.096093  0  0.966331  0  0  0.108333  0  1.025465  0  0  0.11139  0  1.02309  0  0.093082  0  0.102319  0.106114  0  1.027224  0
H  H18  1  0.00959375  0.59350619  0.87023079  1  0  0.096313  0  0.964827  0  0  0.108158  0  1.024664  0  0  0.111187  0  1.022321  0  0.084861  0  0.102269  0.105959  0  1.0264  0
H  H19  1  0.41630224  0.40631936  0.62978431  1  0  0.096026  0  0.966237  0  0  0.108255  0  1.0254  0  0  0.111311  0  1.023026  0  0.093208  0  0.102294  0.106036  0  1.027159  0
H  H20  1  0.64589461  0.16521221  0.04787751  1  0  0.062496  0  0.947758  0  0  0.07547  0  1.016591  0  0  0.075455  0  1.017031  0  0.043532  0  0.096989  0.07529  0  1.016606  0
H  H21  1  0.48049385  0.83460264  0.45227982  1  0  0.063452  0  0.947839  0  0  0.076279  0  1.016804  0  0  0.076286  0  1.017176  0  0.039581  0  0.097584  0.07608  0  1.016842  0
H  H22  1  0.35411184  0.83478902  0.95212591  1  0  0.062453  0  0.947778  0  0  0.075428  0  1.016615  0  0  0.075412  0  1.017057  0  0.043574  0  0.096993  0.075256  0  1.01663  0
H  H23  1  0.51951444  0.16539949  0.54771841  1  0  0.06349  0  0.947871  0  0  0.076323  0  1.016802  0  0  0.07633  0  1.017172  0  0.039602  0  0.097629  0.076124  0  1.016839  0
H  H24  1  0.41929861  0.05024615  0.05037527  1  0  0.060297  0  0.934107  0  0  0.081149  0  0.993321  0  0  0.080623  0  0.993958  0  0.047476  0  0.106579  0.081533  0  0.99284  0
H  H25  1  0.36914939  0.94973814  0.44965574  1  0  0.060714  0  0.934735  0  0  0.081583  0  0.993812  0  0  0.080946  0  0.994585  0  0.044673  0  0.106837  0.082052  0  0.993233  0
H  H26  1  0.58070029  0.94975954  0.94962314  1  0  0.060296  0  0.934003  0  0  0.08111  0  0.993286  0  0  0.080584  0  0.993919  0  0.04737  0  0.106565  0.081498  0  0.992809  0
H  H27  1  0.63084366  0.05025864  0.55034598  1  0  0.060729  0  0.934779  0  0  0.081584  0  0.99386  0  0  0.080943  0  0.994638  0  0.044839  0  0.106846  0.082053  0  0.99328  0
H  H28  1  0.89937745  0.10496909  0.12002464  1  0  0.092132  0  0.987578  0  0  0.101286  0  1.053364  0  0  0.102536  0  1.055387  0  0.096821  0  0.094804  0.100328  0  1.052091  0
H  H29  1  0.79416327  0.89486003  0.38027091  1  0  0.092395  0  0.988389  0  0  0.101451  0  1.054199  0  0  0.102708  0  1.056249  0  0.062314  0  0.094585  0.100494  0  1.052893  0
H  H30  1  0.10062012  0.89503393  0.87997738  1  0  0.092095  0  0.9876  0  0  0.101289  0  1.053346  0  0  0.102543  0  1.055358  0  0.096788  0  0.094795  0.100331  0  1.052073  0
H  H31  1  0.20583079  0.10513318  0.61972764  1  0  0.092326  0  0.988444  0  0  0.101406  0  1.054234  0  0  0.102663  0  1.056283  0  0.06228  0  0.09457  0.100449  0  1.052927  0
H  H32  1  0.02017124  0.99990101  0.25013423  1  0  0.081309  0  0.956093  0  0  0.094288  0  1.013361  0  0  0.097112  0  1.011916  0  0.059889  0  0.097223  0.092152  0  1.014614  0
H  H33  1  0.97982830  0.00009631  0.74986565  1  0  0.081309  0  0.956122  0  0  0.094287  0  1.013389  0  0  0.097111  0  1.011943  0  0.059897  0  0.097219  0.092149  0  1.014644  0
H  H34  1  0.32774522  0.99977527  0.25006835  1  0  0.09278  0  0.964599  0  0  0.102282  0  1.030938  0  0  0.105648  0  1.028817  0  0.044297  0  0.098713  0.099849  0  1.032507  0
H  H35  1  0.67225604  0.00022830  0.74993556  1  0  0.092855  0  0.964551  0  0  0.102375  0  1.030879  0  0  0.10574  0  1.028758  0  0.044293  0  0.098751  0.099941  0  1.032447  0
H  H36  1  0.14980258  0.43907394  0.84231869  1  0  0.401301  0  0.888559  0  0  0.375152  0  0.961204  0  0  0.383863  0  0.952786  0  0.608006  0  0.291467  0.368899  0  0.967189  0
H  H37  1  0.71076220  0.56112527  0.65769431  1  0  0.399291  0  0.890355  0  0  0.373131  0  0.962648  0  0  0.381862  0  0.954254  0  0.614009  0  0.290634  0.366871  0  0.9686  0
H  H38  1  0.85019555  0.56092462  0.15768162  1  0  0.40133  0  0.888515  0  0  0.375179  0  0.961163  0  0  0.38389  0  0.952744  0  0.608015  0  0.291471  0.368926  0  0.967149  0
H  H39  1  0.28922806  0.43887150  0.34230889  1  0  0.399262  0  0.890412  0  0  0.373117  0  0.962746  0  0  0.38185  0  0.95435  0  0.614047  0  0.290625  0.366856  0  0.9687  0
H  H40  1  0.26955967  0.55543119  0.90585460  1  0  0.412396  0  0.902427  0  0  0.379305  0  0.971102  0  0  0.390448  0  0.955441  0  0.639248  0  0.285182  0.371442  0  0.982102  0
H  H41  1  0.71431165  0.44466190  0.59427360  1  0  0.412609  0  0.901023  0  0  0.379277  0  0.970973  0  0  0.390446  0  0.955287  0  0.643341  0  0.285077  0.371395  0  0.981988  0
H  H42  1  0.73043333  0.44456826  0.09414650  1  0  0.41239  0  0.90243  0  0  0.379292  0  0.971117  0  0  0.390436  0  0.955455  0  0.639268  0  0.285182  0.371429  0  0.982118  0
H  H43  1  0.28568832  0.55533755  0.40572824  1  0  0.412568  0  0.901035  0  0  0.379243  0  0.971013  0  0  0.390413  0  0.955326  0  0.643339  0  0.28508  0.371361  0  0.982029  0
H  H44  1  0.47593451  0.24370850  0.20845939  1  0  0.29287  0  0.907799  0  0  0.279714  0  0.965938  0  0  0.286026  0  0.961954  0  0.49868  0  0.305484  0.275275  0  0.968708  0
H  H45  1  0.23220587  0.75648001  0.29144995  1  0  0.293183  0  0.908228  0  0  0.27992  0  0.966246  0  0  0.286217  0  0.962269  0  0.497698  0  0.305514  0.275486  0  0.969021  0
H  H46  1  0.52406502  0.75629005  0.79154465  1  0  0.29285  0  0.907922  0  0  0.279684  0  0.96606  0  0  0.285997  0  0.962073  0  0.498706  0  0.305483  0.275246  0  0.96883  0
H  H47  1  0.76779176  0.24352034  0.70854895  1  0  0.29317  0  0.908182  0  0  0.279937  0  0.966153  0  0  0.286235  0  0.962177  0  0.497737  0  0.305528  0.275503  0  0.968927  0
C  C48  1  0.09389987  0.23002844  0.94095235  1  0  -0.074376  0  3.828416  0  0  -0.093907  0  4.074103  0  0  -0.089388  0  4.092081  0  -0.129234  0  -0.097006  -0.096523  0  4.061696  0
C  C49  1  0.86392078  0.76994872  0.55911045  1  0  -0.073675  0  3.827162  0  0  -0.09294  0  4.072994  0  0  -0.088432  0  4.090956  0  -0.01728  0  -0.096878  -0.095546  0  4.060625  0
C  C50  1  0.90609547  0.76997012  0.05904945  1  0  -0.074423  0  3.828563  0  0  -0.093884  0  4.074289  0  0  -0.089366  0  4.092268  0  -0.129246  0  -0.096935  -0.0965  0  4.06188  0
C  C51  1  0.13607963  0.23005162  0.44088696  1  0  -0.073587  0  3.827152  0  0  -0.09283  0  4.072993  0  0  -0.088315  0  4.090958  0  -0.017163  0  -0.096841  -0.095436  0  4.060624  0
C  C52  1  0.23714554  0.19447275  0.98856051  1  0  -0.222355  0  3.776908  0  0  -0.23324  0  4.028289  0  0  -0.242529  0  4.047961  0  -0.077112  0  -0.117959  -0.227053  0  4.014843  0
C  C53  1  0.04271016  0.80543574  0.51145637  1  0  -0.222176  0  3.776185  0  0  -0.233248  0  4.027071  0  0  -0.242478  0  4.046811  0  -0.103348  0  -0.118325  -0.227091  0  4.013553  0
C  C54  1  0.76285716  0.80552937  0.01143997  1  0  -0.222332  0  3.776961  0  0  -0.233237  0  4.028276  0  0  -0.242519  0  4.047952  0  -0.077223  0  -0.117966  -0.22705  0  4.014831  0
C  C55  1  0.95729305  0.19456461  0.48854029  1  0  -0.222284  0  3.776247  0  0  -0.233312  0  4.027161  0  0  -0.242541  0  4.046898  0  -0.103283  0  -0.11838  -0.227157  0  4.013641  0
C  C56  1  0.29451114  0.23576443  0.08886883  1  0  0.277913  0  3.841965  0  0  0.26524  0  4.088987  0  0  0.279632  0  4.107861  0  0.411979  0  0.106332  0.25549  0  4.075823  0
C  C57  1  0.05862095  0.76426890  0.41109653  1  0  0.276773  0  3.844617  0  0  0.264613  0  4.090728  0  0  0.278968  0  4.109632  0  0.426788  0  0.106272  0.254894  0  4.077573  0
C  C58  1  0.70548934  0.76423323  0.91113143  1  0  0.277673  0  3.84211  0  0  0.265042  0  4.089064  0  0  0.279418  0  4.10796  0  0.411961  0  0.106168  0.255294  0  4.075898  0
C  C59  1  0.94138231  0.23572876  0.58890149  1  0  0.276839  0  3.844365  0  0  0.264563  0  4.090642  0  0  0.27892  0  4.109546  0  0.427424  0  0.1063  0.254846  0  4.077485  0
C  C60  1  0.20434408  0.31544502  0.13677556  1  0  -0.227049  0  3.776996  0  0  -0.234222  0  4.028611  0  0  -0.244545  0  4.048139  0  -0.038284  0  -0.115613  -0.227222  0  4.015363  0
C  C61  1  0.88865725  0.68475419  0.36312981  1  0  -0.227439  0  3.776279  0  0  -0.234807  0  4.028078  0  0  -0.245119  0  4.047675  0  -0.041837  0  -0.11619  -0.227829  0  4.014781  0
C  C62  1  0.79565634  0.68455532  0.86322557  1  0  -0.226893  0  3.777132  0  0  -0.234068  0  4.028705  0  0  -0.244387  0  4.04824  0  -0.038455  0  -0.115544  -0.227068  0  4.015456  0
C  C63  1  0.11134557  0.31524259  0.63686816  1  0  -0.227579  0  3.776332  0  0  -0.23495  0  4.02818  0  0  -0.245266  0  4.04778  0  -0.041915  0  -0.116292  -0.227974  0  4.014884  0
C  C64  1  0.05738617  0.34687885  0.08916384  1  0  -0.045117  0  3.784279  0  0  -0.070597  0  4.034116  0  0  -0.065048  0  4.051652  0  -0.085603  0  -0.092852  -0.074027  0  4.022019  0
C  C65  1  0.71030891  0.65331411  0.41080402  1  0  -0.044969  0  3.785978  0  0  -0.070641  0  4.03587  0  0  -0.065106  0  4.053372  0  -0.089859  0  -0.09256  -0.074047  0  4.023786  0
C  C66  1  0.94260967  0.65311792  0.91083788  1  0  -0.045249  0  3.784197  0  0  -0.070669  0  4.034077  0  0  -0.065119  0  4.051613  0  -0.084801  0  -0.09288  -0.074099  0  4.021982  0
C  C67  1  0.28968877  0.34668355  0.58919325  1  0  -0.044807  0  3.785631  0  0  -0.070456  0  4.035516  0  0  -0.064916  0  4.053025  0  -0.089898  0  -0.092483  -0.073867  0  4.023442  0
C  C68  1  0.00020491  0.30581904  0.98977480  1  0  -0.146344  0  3.855044  0  0  -0.126883  0  4.098296  0  0  -0.138926  0  4.121871  0  0.044466  0  -0.05502  -0.119001  0  4.082455  0
C  C69  1  0.69425838  0.69427405  0.51025474  1  0  -0.147041  0  3.855809  0  0  -0.1279  0  4.099532  0  0  -0.139862  0  4.123  0  -0.048047  0  -0.055541  -0.120082  0  4.083779  0
C  C70  1  0.99978771  0.69417863  0.01023070  1  0  -0.146138  0  3.854912  0  0  -0.126869  0  4.098371  0  0  -0.138913  0  4.121955  0  0.043854  0  -0.055003  -0.118986  0  4.082529  0
C  C71  1  0.30574478  0.30572896  0.48974054  1  0  -0.147047  0  3.855663  0  0  -0.127917  0  4.099384  0  0  -0.139893  0  4.122876  0  -0.048369  0  -0.055505  -0.120099  0  4.083629  0
C  C72  1  0.85567170  0.34496775  0.93296825  1  0  0.634924  0  3.926499  0  0  0.582481  0  4.215328  0  0  0.617979  0  4.208863  0  1.523134  0  0.194741  0.558198  0  4.219119  0
C  C73  1  0.51057897  0.65501654  0.56710760  1  0  0.634737  0  3.928401  0  0  0.582545  0  4.21711  0  0  0.618015  0  4.210662  0  1.522019  0  0.195367  0.558289  0  4.220851  0
C  C74  1  0.14432733  0.65503260  0.06703588  1  0  0.634966  0  3.926302  0  0  0.582624  0  4.215074  0  0  0.61812  0  4.208607  0  1.523588  0  0.19479  0.558341  0  4.218866  0
C  C75  1  0.48942519  0.34498291  0.43289051  1  0  0.634816  0  3.928381  0  0  0.582643  0  4.217063  0  0  0.61811  0  4.210627  0  1.522111  0  0.195391  0.558386  0  4.220807  0
C  C76  1  0.52706197  0.11931800  0.09743250  1  0  0.019118  0  3.704815  0  0  -0.04625  0  3.962417  0  0  -0.040389  0  3.973573  0  0.353988  0  -0.055516  -0.050192  0  3.954711  0
C  C77  1  0.40769022  0.88055838  0.40270764  1  0  0.018822  0  3.706452  0  0  -0.046826  0  3.963347  0  0  -0.040851  0  3.974323  0  0.366291  0  -0.055848  -0.050845  0  3.95575  0
C  C78  1  0.47293940  0.88068145  0.90256785  1  0  0.019303  0  3.704635  0  0  -0.046076  0  3.962296  0  0  -0.040215  0  3.973454  0  0.353923  0  -0.055474  -0.050045  0  3.954629  0
C  C79  1  0.59231115  0.11944107  0.59729271  1  0  0.018717  0  3.706583  0  0  -0.046911  0  3.963479  0  0  -0.040933  0  3.974457  0  0.366104  0  -0.055887  -0.050924  0  3.955872  0
C  C80  1  0.60538721  0.05922916  0.17676720  1  0  0.063377  0  3.775857  0  0  0.086233  0  4.014576  0  0  0.08581  0  4.038463  0  -0.051296  0  -0.014163  0.086412  0  3.998443  0
C  C81  1  0.54613074  0.94065436  0.32342559  1  0  0.063443  0  3.776694  0  0  0.087865  0  4.013032  0  0  0.087437  0  4.03688  0  -0.02906  0  -0.01378  0.088053  0  3.996915  0
C  C82  1  0.39460953  0.94076940  0.82323609  1  0  0.063299  0  3.77569  0  0  0.086171  0  4.014425  0  0  0.085746  0  4.038316  0  -0.05104  0  -0.014177  0.086357  0  3.998296  0
C  C83  1  0.45386917  0.05934776  0.67657488  1  0  0.06343  0  3.776563  0  0  0.087797  0  4.012993  0  0  0.087371  0  4.036842  0  -0.029075  0  -0.013821  0.087984  0  3.996875  0
C  C84  1  0.80067733  0.05893754  0.17706775  1  0  -0.124627  0  3.746308  0  0  -0.143546  0  3.987908  0  0  -0.146753  0  4.011339  0  -0.045358  0  -0.0943  -0.14127  0  3.971984  0
C  C85  1  0.74169448  0.94102445  0.32325366  1  0  -0.1256  0  3.748017  0  0  -0.14493  0  3.988821  0  0  -0.148177  0  4.0123  0  -0.006153  0  -0.09445  -0.14262  0  3.972836  0
C  C86  1  0.19932119  0.94106458  0.82293348  1  0  -0.124593  0  3.746372  0  0  -0.143547  0  3.987946  0  0  -0.146752  0  4.011378  0  -0.045367  0  -0.094305  -0.14127  0  3.972019  0
C  C87  1  0.25830499  0.05897678  0.67674677  1  0  -0.125475  0  3.747931  0  0  -0.144804  0  3.988723  0  0  -0.148052  0  4.012202  0  -0.006137  0  -0.094422  -0.142494  0  3.972737  0
C  C88  1  0.86795944  0.00001784  0.25019369  1  0  -0.053536  0  3.777371  0  0  -0.062456  0  4.023603  0  0  -0.065094  0  4.046211  0  -0.113148  0  -0.091932  -0.060601  0  4.008162  0
C  C89  1  0.13204188  0.99998306  0.74980636  1  0  -0.053551  0  3.777442  0  0  -0.062471  0  4.023681  0  0  -0.06511  0  4.046292  0  -0.11316  0  -0.091917  -0.060614  0  4.008238  0
C  C90  1  0.48016272  0.99988942  0.25007612  1  0  -0.157794  0  3.725376  0  0  -0.187183  0  3.968809  0  0  -0.190082  0  3.989167  0  -0.035909  0  -0.093935  -0.185124  0  3.955054  0
C  C91  1  0.51983854  0.00011415  0.74992630  1  0  -0.157896  0  3.725099  0  0  -0.187283  0  3.968578  0  0  -0.190183  0  3.988938  0  -0.036051  0  -0.09396  -0.185225  0  3.954823  0
N  N92  1  0.42778077  0.19998045  0.14076938  1  0  -0.383555  0  3.314895  0  0  -0.319994  0  3.552693  0  0  -0.341199  0  3.566461  0  -1.245274  0  -0.427832  -0.304858  0  3.542521  0
N  N93  1  0.22773296  0.79993339  0.35929857  1  0  -0.384703  0  3.318018  0  0  -0.321101  0  3.555591  0  0  -0.342292  0  3.569328  0  -1.246913  0  -0.42821  -0.306021  0  3.54547  0
N  N94  1  0.57221730  0.80002078  0.85922956  1  0  -0.383502  0  3.314926  0  0  -0.319921  0  3.552673  0  0  -0.341123  0  3.566446  0  -1.245304  0  -0.427766  -0.304778  0  3.542508  0
N  N95  1  0.77227171  0.20006428  0.64070019  1  0  -0.384679  0  3.317881  0  0  -0.321041  0  3.555446  0  0  -0.342234  0  3.56919  0  -1.247249  0  -0.428221  -0.305961  0  3.545321  0
O  O96  1  0.86864718  0.34905928  0.83897335  1  0  -0.635901  0  1.960865  0  0  -0.582306  0  2.191696  0  0  -0.605639  0  2.180391  0  -1.211652  0  -0.323872  -0.565881  0  2.198975  0
O  O97  1  0.51945533  0.65067798  0.66108009  1  0  -0.635548  0  1.96158  0  0  -0.58194  0  2.192082  0  0  -0.605286  0  2.180855  0  -1.210489  0  -0.324139  -0.565473  0  2.199253  0
O  O98  1  0.13135039  0.65094374  0.16102941  1  0  -0.636012  0  1.960866  0  0  -0.582419  0  2.191639  0  0  -0.605748  0  2.180333  0  -1.211776  0  -0.323932  -0.565995  0  2.198919  0
O  O99  1  0.48054966  0.34932593  0.33891823  1  0  -0.635605  0  1.961529  0  0  -0.58199  0  2.192017  0  0  -0.605346  0  2.180824  0  -1.210515  0  -0.324169  -0.565523  0  2.199187  0
O  O100  1  0.72101502  0.37495688  0.98351085  1  0  -0.657616  0  2.183311  0  0  -0.560128  0  2.442122  0  0  -0.595884  0  2.432762  0  -1.140855  0  -0.331266  -0.534981  0  2.447615  0
O  O101  1  0.34590810  0.62512997  0.51660508  1  0  -0.656724  0  2.184296  0  0  -0.559465  0  2.44341  0  0  -0.595293  0  2.434241  0  -1.142586  0  -0.331066  -0.534314  0  2.44885  0
O  O102  1  0.27898311  0.62504168  0.01649020  1  0  -0.657604  0  2.183221  0  0  -0.560148  0  2.442016  0  0  -0.595905  0  2.432655  0  -1.140855  0  -0.331255  -0.53501  0  2.447529  0
O  O103  1  0.65409505  0.37487305  0.48339394  1  0  -0.656759  0  2.184282  0  0  -0.5595  0  2.44338  0  0  -0.595324  0  2.434212  0  -1.142587  0  -0.331068  -0.534349  0  2.448822  0
O  O104  1  0.27941135  0.50068863  0.84685898  1  0  -0.789561  0  1.971026  0  0  -0.712204  0  2.193007  0  0  -0.739655  0  2.164256  0  -1.1791  0  -0.57889  -0.692727  0  2.212828  0
O  O105  1  0.77891590  0.49957122  0.65315545  1  0  -0.787229  0  1.972599  0  0  -0.70959  0  2.195662  0  0  -0.737043  0  2.16684  0  -1.190744  0  -0.577687  -0.690099  0  2.21551  0
O  O106  1  0.72058159  0.49931349  0.15314149  1  0  -0.789583  0  1.971037  0  0  -0.712207  0  2.192998  0  0  -0.739656  0  2.164245  0  -1.179096  0  -0.578898  -0.692731  0  2.212821  0
O  O107  1  0.22108078  0.50043001  0.34684647  1  0  -0.78715  0  1.972667  0  0  -0.709572  0  2.195671  0  0  -0.737024  0  2.166846  0  -1.190764  0  -0.57768  -0.690078  0  2.21552  0
