# generated using pymatgen
data_CoH18C20(I2O3)4
_symmetry_space_group_name_H-M   'P 1'
_cell_length_a   9.63083223
_cell_length_b   10.69161146
_cell_length_c   10.01057149
_cell_angle_alpha   103.44164797
_cell_angle_beta   98.10487952
_cell_angle_gamma   113.45750957
_symmetry_Int_Tables_number   1
_chemical_formula_structural   CoH18C20(I2O3)4
_chemical_formula_sum   'Co1 H18 C20 I8 O12'
_cell_volume   887.63078490
_cell_formula_units_Z   1
loop_
 _symmetry_equiv_pos_site_id
 _symmetry_equiv_pos_as_xyz
  1  'x, y, z'
loop_
 _atom_site_type_symbol
 _atom_site_label
 _atom_site_symmetry_multiplicity
 _atom_site_fract_x
 _atom_site_fract_y
 _atom_site_fract_z
 _atom_site_occupancy
 _atom_site_hle17_ddec_charge
 _atom_site_hle17_ddec_spin_density
 _atom_site_hle17_ddec_sum_bond_order
 _atom_site_hle17_magmom
 _atom_site_hse06_10hf_ddec_charge
 _atom_site_hse06_10hf_ddec_spin_density
 _atom_site_hse06_10hf_ddec_sum_bond_order
 _atom_site_hse06_10hf_magmom
 _atom_site_hse06_ddec_charge
 _atom_site_hse06_ddec_spin_density
 _atom_site_hse06_ddec_sum_bond_order
 _atom_site_hse06_magmom
 _atom_site_pbe_cm5_charge
 _atom_site_pbe_ddec_charge
 _atom_site_pbe_ddec_spin_density
 _atom_site_pbe_ddec_sum_bond_order
 _atom_site_pbe_magmom
Co  Co0  1  0.49999942  0.50000179  0.50000107  1  1.095796  -2.84661  1.861156  -2.618  1.063313  -2.854565  2.242874  -2.677  1.135589  -2.890066  2.174705  -2.745  0.656067  1.003643  -2.818394  2.293841  -2.609
H  H1  1  0.54083212  0.28166044  0.40534661  1  0.37485  0.000551  0.898477  0.001  0.350509  3.2e-05  0.968221  0.0  0.361423  0.000224  0.95668  0.0  0.297675  0.342713  -0.000163  0.976209  0.0
H  H2  1  0.45916380  0.71834109  0.59466069  1  0.374833  0.000552  0.898461  0.001  0.35052  3.2e-05  0.968156  0.0  0.361429  0.000224  0.956627  0.0  0.297696  0.342735  -0.000163  0.976114  0.0
H  H3  1  0.72825903  0.66071925  0.73993611  1  0.335373  0.000162  0.926467  0.0  0.310206  -0.000137  1.011253  0.0  0.320199  4.3e-05  0.999697  0.0  0.283652  0.30292  -0.00032  1.019537  -0.001
H  H4  1  0.27174526  0.33928020  0.26005978  1  0.335349  0.000162  0.926459  0.0  0.310163  -0.000137  1.011272  0.0  0.32016  4.3e-05  0.999711  0.0  0.28363  0.302879  -0.00032  1.019549  -0.001
H  H5  1  0.84708956  0.50895679  0.57281979  1  0.071072  0.000132  0.963307  0.0  0.082491  4.4e-05  1.040638  0.0  0.082518  9.6e-05  1.040773  0.0  0.085201  0.082548  -2.4e-05  1.040648  -0.001
H  H6  1  0.15290969  0.49104779  0.42718062  1  0.071085  0.000132  0.963247  0.0  0.082481  4.4e-05  1.040599  0.0  0.082509  9.6e-05  1.040735  0.0  0.08519  0.08253  -2.4e-05  1.040614  -0.001
H  H7  1  0.82343320  0.35500684  0.43614568  1  0.059466  -0.00152  0.971175  -0.002  0.067614  -0.001179  1.054031  -0.002  0.067721  -0.000781  1.053955  -0.001  0.076784  0.067973  -0.001633  1.053719  -0.002
H  H8  1  0.17656343  0.64499657  0.56385414  1  0.059444  -0.00152  0.971138  -0.002  0.067574  -0.001179  1.054024  -0.002  0.067683  -0.000781  1.053952  -0.001  0.076749  0.067931  -0.001633  1.053708  -0.002
H  H9  1  0.75352962  0.33280220  0.59014212  1  0.080202  -0.000439  0.945249  -0.001  0.094655  -0.000393  1.013516  -0.001  0.094867  -0.000212  1.013476  0.0  0.08687  0.094834  -0.000662  1.013454  -0.001
H  H10  1  0.24647246  0.66720157  0.40986146  1  0.080199  -0.000439  0.945328  -0.001  0.094641  -0.000393  1.013599  -0.001  0.094857  -0.000212  1.013554  0.0  0.086876  0.094814  -0.000662  1.013538  -0.001
H  H11  1  0.58940804  0.39248013  0.76349553  1  0.073434  3.9e-05  0.963793  0.0  0.084065  -1.2e-05  1.041503  0.0  0.084575  8.6e-05  1.041574  0.0  0.082521  0.08372  -0.000153  1.041519  -0.001
H  H12  1  0.41062165  0.60752689  0.23650622  1  0.073559  4e-05  0.963794  0.0  0.084128  -1.1e-05  1.041568  0.0  0.084638  8.5e-05  1.041642  0.0  0.082578  0.083784  -0.000153  1.041589  -0.001
H  H13  1  0.52019999  0.50301077  0.86893829  1  0.06811  -0.000147  0.968994  0.0  0.079852  -9.5e-05  1.04608  0.0  0.080936  -3.2e-05  1.045002  0.0  0.081899  0.07902  -0.000179  1.047067  0.0
H  H14  1  0.47979283  0.49697226  0.13104949  1  0.068091  -0.000145  0.969006  0.0  0.079874  -9.5e-05  1.046063  0.0  0.08096  -3.3e-05  1.04498  0.0  0.081919  0.079044  -0.00018  1.047048  0.0
H  H15  1  0.72653810  0.55570807  0.90084120  1  0.07605  -0.000728  0.960924  -0.001  0.091952  -0.000662  1.026789  -0.001  0.091219  -0.000487  1.028217  -0.001  0.088163  0.092377  -0.000839  1.025963  -0.001
H  H16  1  0.27346125  0.44430837  0.09917088  1  0.076043  -0.000726  0.960695  -0.001  0.091969  -0.000662  1.026556  -0.001  0.091238  -0.000487  1.027982  -0.001  0.088176  0.092398  -0.000839  1.025727  -0.001
H  H17  1  0.29465824  0.97170573  0.30512971  1  0.404612  -6e-06  0.875976  0.0  0.372773  -1.3e-05  0.954218  0.0  0.385439  -7e-06  0.94118  0.0  0.293692  0.364005  -3.1e-05  0.963128  0.0
H  H18  1  0.70534281  0.02828128  0.69487298  1  0.404561  -6e-06  0.876188  0.0  0.372757  -1.3e-05  0.954357  0.0  0.385421  -7e-06  0.941321  0.0  0.293673  0.363994  -3.1e-05  0.96326  0.0
C  C19  1  0.28858508  0.18408728  0.44802109  1  0.656865  0.009593  3.903432  0.006  0.603319  0.003539  4.207749  0.002  0.639131  0.002357  4.198783  0.001  0.205212  0.577802  0.005393  4.213989  0.003
C  C20  1  0.71141584  0.81591633  0.55197931  1  0.657148  0.009592  3.903162  0.006  0.603497  0.003539  4.207639  0.002  0.639309  0.002357  4.198669  0.001  0.205286  0.577979  0.005393  4.213887  0.003
C  C21  1  0.13822693  0.08093442  0.46858524  1  -0.095357  -0.00302  3.762343  -0.005  -0.085107  -0.001963  4.006753  -0.003  -0.088819  -0.001243  4.025417  -0.002  -0.032746  -0.082718  -0.002891  3.994602  -0.004
C  C22  1  0.86177062  0.91907110  0.53141417  1  -0.095388  -0.003008  3.762247  -0.005  -0.085066  -0.001964  4.006629  -0.003  -0.088782  -0.001244  4.025291  -0.002  -0.032694  -0.082688  -0.002891  3.994502  -0.004
C  C23  1  0.99409140  0.06176830  0.39050149  1  -0.028972  -0.00065  3.659783  -0.001  -0.020814  -0.000736  3.929882  -0.001  -0.018454  -0.000481  3.95103  -0.001  -0.064791  -0.022606  -0.001111  3.915883  -0.001
C  C24  1  0.00590870  0.93824056  0.60950099  1  -0.028938  -0.000663  3.659874  -0.001  -0.020783  -0.000735  3.92992  -0.001  -0.018437  -0.000481  3.951109  -0.001  -0.064803  -0.022564  -0.001111  3.915901  -0.001
C  C25  1  0.85553742  0.98138785  0.42306786  1  -0.0275  -0.000673  3.673187  -0.001  -0.016481  -0.00084  3.940023  -0.001  -0.014101  -0.00052  3.961084  -0.001  -0.064368  -0.018454  -0.001122  3.926234  -0.001
C  C26  1  0.14446224  0.01861997  0.57693533  1  -0.027494  -0.000659  3.6731  -0.001  -0.016439  -0.00084  3.939912  -0.001  -0.014062  -0.00052  3.960971  -0.001  -0.064291  -0.018414  -0.001121  3.926124  -0.001
C  C27  1  0.76980961  0.39496608  0.51528811  1  -0.018658  -0.000426  3.652852  0.0  -0.108284  -0.001527  3.922952  -0.002  -0.100616  -0.000943  3.928836  -0.001  -0.15971  -0.114184  -0.002191  3.918197  -0.002
C  C28  1  0.23018964  0.60503850  0.48471230  1  -0.01861  -0.000431  3.652679  0.0  -0.108237  -0.001527  3.922852  -0.002  -0.100577  -0.000945  3.928735  -0.001  -0.159696  -0.114128  -0.00219  3.918094  -0.002
C  C29  1  0.61477278  0.50367859  0.81900339  1  -0.015875  -0.001042  3.618987  -0.001  -0.105389  -0.001646  3.884442  -0.002  -0.098214  -0.001209  3.888632  -0.002  -0.15674  -0.110536  -0.002111  3.88153  -0.002
C  C30  1  0.38523445  0.49632744  0.18099834  1  -0.015952  -0.001054  3.618768  -0.001  -0.105478  -0.001647  3.884198  -0.002  -0.098304  -0.001209  3.888389  -0.002  -0.156824  -0.110626  -0.002111  3.881284  -0.002
C  C31  1  0.14111100  0.80795483  0.14498386  1  0.643528  1e-06  3.882638  0.0  0.59249  -7e-06  4.190486  0.0  0.624261  -2e-06  4.182305  0.0  0.209856  0.570788  -9e-06  4.195316  0.0
C  C32  1  0.85889384  0.19203853  0.85501673  1  0.643744  0.0  3.88229  0.0  0.592707  -7e-06  4.19012  0.0  0.624516  -2e-06  4.181914  0.0  0.209933  0.57101  -8e-06  4.194939  0.0
C  C33  1  0.07348517  0.64748089  0.07596207  1  -0.086694  -2.1e-05  3.752207  0.0  -0.079564  -3.4e-05  3.998413  0.0  -0.082439  -1.9e-05  4.017272  0.0  -0.028312  -0.077683  -5.6e-05  3.985876  0.0
C  C34  1  0.92651703  0.35251126  0.92403692  1  -0.086843  -2.5e-05  3.752371  0.0  -0.079625  -3.4e-05  3.998463  0.0  -0.082573  -1.9e-05  4.017404  0.0  -0.028355  -0.077747  -5.6e-05  3.985931  0.0
C  C35  1  0.13215779  0.59317652  0.96782994  1  -0.024112  -2e-05  3.662655  0.0  -0.010647  -4.4e-05  3.924636  0.0  -0.008442  -3.1e-05  3.946386  0.0  -0.056963  -0.01223  -6.4e-05  3.910223  0.0
C  C36  1  0.86784186  0.40681229  0.03216599  1  -0.024001  -1.5e-05  3.662589  0.0  -0.010565  -4.4e-05  3.924524  0.0  -0.008335  -3.1e-05  3.946285  0.0  -0.056903  -0.01214  -6.4e-05  3.910097  0.0
C  C37  1  0.05823498  0.44554558  0.89078370  1  -0.046004  -5.3e-05  3.680133  0.0  -0.032231  -0.000109  3.940769  0.0  -0.029852  -6.3e-05  3.961646  0.0  -0.063293  -0.034161  -0.00017  3.927104  0.0
C  C38  1  0.94176297  0.55444417  0.10921122  1  -0.045976  -5.7e-05  3.680027  0.0  -0.032151  -0.000109  3.940635  0.0  -0.02979  -6.3e-05  3.961489  0.0  -0.063229  -0.03407  -0.00017  3.926951  0.0
I  I39  1  0.98564788  0.14136197  0.21711000  1  0.090488  -0.000143  1.594246  0.0  0.076514  -0.000299  1.93571  -0.001  0.076802  -4e-05  1.920025  0.0  0.152544  0.076059  -0.000564  1.947193  -0.001
I  I40  1  0.01434960  0.85864571  0.78289188  1  0.090454  -0.000143  1.594309  0.0  0.07647  -0.000298  1.935781  -0.001  0.076773  -4e-05  1.920083  0.0  0.152531  0.076009  -0.000564  1.947275  -0.001
I  I41  1  0.63430922  0.94405264  0.30873097  1  0.043703  0.000117  1.485751  0.0  0.025314  -0.000107  1.805321  0.0  0.025675  -1.5e-05  1.793104  0.0  0.107856  0.0251  -0.000289  1.814582  0.0
I  I42  1  0.36568979  0.05595839  0.69127586  1  0.043695  0.000115  1.485751  0.0  0.025312  -0.000107  1.805285  0.0  0.025674  -1.6e-05  1.793067  0.0  0.107821  0.025092  -0.00029  1.814554  0.0
I  I43  1  0.33668359  0.73549315  0.92889271  1  0.054788  -0.000133  1.440186  0.0  0.044865  -0.000131  1.742905  0.0  0.045106  -3.7e-05  1.73084  0.0  0.124305  0.044188  -0.000276  1.75185  0.0
I  I44  1  0.66330538  0.26449796  0.07109241  1  0.054758  -0.000133  1.440156  0.0  0.044842  -0.000131  1.742866  0.0  0.045084  -3.8e-05  1.730796  0.0  0.124275  0.044159  -0.000276  1.751805  0.0
I  I45  1  0.14284318  0.36234475  0.72747733  1  0.11027  -8e-06  1.545214  0.0  0.09351  0.0  1.872272  0.0  0.091734  0.000129  1.864806  0.0  0.152655  0.094686  -0.000154  1.877886  0.0
I  I46  1  0.85714538  0.63765262  0.27250814  1  0.110169  -8e-06  1.545207  0.0  0.093421  -0.0  1.872226  0.0  0.091646  0.000129  1.864762  0.0  0.152589  0.09459  -0.000154  1.877836  0.0
O  O47  1  0.32670731  0.31535751  0.51163286  1  -0.609161  -0.028139  2.122179  -0.056  -0.561385  -0.020988  2.392235  -0.037  -0.595527  -0.016982  2.381334  -0.03  -0.303697  -0.536078  -0.024708  2.399922  -0.043
O  O48  1  0.67329144  0.68464596  0.48836624  1  -0.609227  -0.028137  2.122079  -0.056  -0.561455  -0.020988  2.392258  -0.037  -0.595595  -0.016981  2.381352  -0.03  -0.303733  -0.536148  -0.024707  2.399951  -0.043
O  O49  1  0.36486936  0.13757733  0.37338088  1  -0.596543  0.002822  2.030575  0.002  -0.537224  0.001638  2.246602  0.001  -0.562095  0.001626  2.236227  0.001  -0.294349  -0.520231  0.001721  2.253751  0.001
O  O50  1  0.63513130  0.86242322  0.62662180  1  -0.59657  0.002822  2.030582  0.002  -0.537258  0.001637  2.246661  0.001  -0.562121  0.001626  2.236283  0.001  -0.294355  -0.520272  0.001722  2.253805  0.001
O  O51  1  0.62281384  0.38406995  0.44435912  1  -0.54693  -0.031931  2.302901  -0.058  -0.494897  -0.027753  2.572166  -0.046  -0.523368  -0.021177  2.561083  -0.036  -0.408662  -0.471481  -0.034792  2.578208  -0.057
O  O52  1  0.37718309  0.61593157  0.55564631  1  -0.546991  -0.03193  2.302781  -0.058  -0.494887  -0.027752  2.571897  -0.046  -0.523354  -0.021176  2.560817  -0.036  -0.408641  -0.471482  -0.034792  2.577941  -0.057
O  O53  1  0.62231573  0.58212415  0.71852523  1  -0.514876  -0.020932  2.279266  -0.041  -0.458748  -0.019218  2.533372  -0.033  -0.481497  -0.015206  2.519105  -0.027  -0.401245  -0.440963  -0.023268  2.542684  -0.039
O  O54  1  0.37768730  0.41788177  0.28147895  1  -0.51487  -0.020932  2.279236  -0.041  -0.458712  -0.019219  2.533351  -0.033  -0.481466  -0.015207  2.519085  -0.027  -0.401219  -0.440929  -0.023269  2.542665  -0.039
O  O55  1  0.09077294  0.87798114  0.08963275  1  -0.527178  -1.2e-05  1.997889  0.0  -0.487356  -1.2e-05  2.232131  0.0  -0.509214  -7e-06  2.226018  0.0  -0.287865  -0.471815  -3.9e-05  2.235892  0.0
O  O56  1  0.90923844  0.12201041  0.91036725  1  -0.527412  -1.3e-05  1.997767  0.0  -0.487586  -1.1e-05  2.23199  0.0  -0.509448  -6e-06  2.225858  0.0  -0.287969  -0.472045  -3.9e-05  2.235746  0.0
O  O57  1  0.25447895  0.86134485  0.26417036  1  -0.552798  -6.8e-05  2.123314  0.0  -0.503688  -6.7e-05  2.355196  0.0  -0.526775  -3.3e-05  2.341809  0.0  -0.33421  -0.487437  -9.7e-05  2.363804  0.0
O  O58  1  0.74552040  0.13864310  0.73583133  1  -0.552807  -6.7e-05  2.123283  0.0  -0.503743  -6.7e-05  2.355184  0.0  -0.526835  -3.3e-05  2.34178  0.0  -0.33421  -0.487494  -9.7e-05  2.363789  0.0
