# generated using pymatgen
data_CuH6C16(NO2)2
_symmetry_space_group_name_H-M   'P 1'
_cell_length_a   12.28970169
_cell_length_b   25.84481693
_cell_length_c   25.84464506
_cell_angle_alpha   117.54780372
_cell_angle_beta   99.11616054
_cell_angle_gamma   99.11460839
_symmetry_Int_Tables_number   1
_chemical_formula_structural   CuH6C16(NO2)2
_chemical_formula_sum   'Cu6 H36 C96 N12 O24'
_cell_volume   6930.05680093
_cell_formula_units_Z   6
loop_
 _symmetry_equiv_pos_site_id
 _symmetry_equiv_pos_as_xyz
  1  'x, y, z'
loop_
 _atom_site_type_symbol
 _atom_site_label
 _atom_site_symmetry_multiplicity
 _atom_site_fract_x
 _atom_site_fract_y
 _atom_site_fract_z
 _atom_site_occupancy
 _atom_site_pbe_bader_charge
 _atom_site_pbe_bader_spin_density
 _atom_site_pbe_cm5_charge
 _atom_site_pbe_ddec_charge
 _atom_site_pbe_ddec_spin_density
 _atom_site_pbe_ddec_sum_bond_order
 _atom_site_pbe_magmom
Cu  Cu0  1  0.05056578  0.99998973  0.46240860  1  1.060973  0.51584  0.71374  0.84343  0.67797  2.185847  0.514
Cu  Cu1  1  0.05062050  0.46238524  0.99997254  1  1.062214  0.515874  0.713733  0.843466  0.67802  2.185688  0.514
Cu  Cu2  1  0.58822507  0.53759899  0.53758409  1  1.057933  -0.515871  0.714133  0.843492  -0.678044  2.185037  -0.514
Cu  Cu3  1  0.41184899  0.46241937  0.46240578  1  1.056725  0.515813  0.714039  0.843474  0.678021  2.185494  0.514
Cu  Cu4  1  0.94941758  0.53757759  0.99998186  1  1.061323  -0.515889  0.713665  0.843118  -0.67801  2.18629  -0.514
Cu  Cu5  1  0.94936924  0.99999566  0.53760096  1  1.06256  -0.515888  0.713722  0.842975  -0.678005  2.186061  -0.514
H  H6  1  0.19163947  0.13193018  0.70500123  1  0.147057  -0.000332  0.124945  0.140346  -0.0003  0.967914  0.0
H  H7  1  0.36378990  0.13617696  0.57407200  1  0.120886  0.000361  0.117933  0.126889  0.000311  0.974717  0.0
H  H8  1  0.05970072  0.57301288  0.86808013  1  0.154134  -0.000333  0.125034  0.140815  -0.0003  0.968959  0.0
H  H9  1  0.22767438  0.43783859  0.86375896  1  0.115621  0.000368  0.117632  0.126332  0.000312  0.975198  0.0
H  H10  1  0.48672437  0.29507221  0.42700346  1  0.14094  0.000335  0.124973  0.140218  0.000299  0.968486  0.0
H  H11  1  0.78984570  0.42593589  0.56215523  1  0.125669  -0.000353  0.117932  0.126314  -0.000312  0.975241  0.0
H  H12  1  0.51335310  0.57301610  0.70495362  1  0.139856  -0.000336  0.124859  0.140072  -0.000299  0.968574  0.0
H  H13  1  0.21024000  0.43786433  0.57406151  1  0.130464  0.000352  0.117813  0.126022  0.000312  0.975341  0.0
H  H14  1  0.80835353  0.29501711  0.86805582  1  0.147014  0.000332  0.124801  0.140167  0.000299  0.967829  0.0
H  H15  1  0.63617718  0.42593194  0.86379353  1  0.120422  -0.000361  0.118017  0.126879  -0.000312  0.974998  0.0
H  H16  1  0.94027365  0.13188677  0.42696995  1  0.154284  0.000333  0.12513  0.140908  0.0003  0.968879  0.0
H  H17  1  0.77230342  0.13620834  0.56214795  1  0.115382  -0.000368  0.117702  0.126409  -0.000311  0.97516  0.0
H  H18  1  0.80832594  0.86807370  0.29502444  1  0.146867  0.000332  0.124787  0.14021  0.0003  0.967652  0.0
H  H19  1  0.63612750  0.86380339  0.42593026  1  0.120673  -0.000361  0.117983  0.126887  -0.000311  0.974961  0.0
H  H20  1  0.94032308  0.42694620  0.13189247  1  0.153182  0.000333  0.125154  0.140908  0.0003  0.968913  0.0
H  H21  1  0.77236772  0.56211912  0.13618073  1  0.111939  -0.000368  0.117584  0.126248  -0.000311  0.975226  0.0
H  H22  1  0.51329690  0.70493620  0.57298905  1  0.14098  -0.000335  0.124908  0.140108  -0.000299  0.968512  0.0
H  H23  1  0.21018445  0.57406392  0.43783668  1  0.125779  0.000353  0.117904  0.126339  0.000312  0.975219  0.0
H  H24  1  0.48671514  0.42701539  0.29505542  1  0.140806  0.000335  0.124876  0.140048  0.000299  0.968519  0.0
H  H25  1  0.78983667  0.56217077  0.42592198  1  0.125916  -0.000353  0.117819  0.12611  -0.000312  0.975182  0.0
H  H26  1  0.19164419  0.70495736  0.13190064  1  0.149364  -0.000333  0.124669  0.140144  -0.0003  0.967554  0.0
H  H27  1  0.36384515  0.57405384  0.13617660  1  0.120007  0.000361  0.117949  0.126843  0.000311  0.975071  0.0
H  H28  1  0.05969793  0.86809811  0.57302959  1  0.153862  -0.000333  0.12507  0.140739  -0.0003  0.969034  0.0
H  H29  1  0.22766642  0.86379283  0.43785745  1  0.115367  0.000368  0.117634  0.126267  0.000311  0.975101  0.0
H  H30  1  0.52752796  0.21853460  0.65756241  1  0.078231  -0.000212  0.109189  0.111953  -0.000114  0.984977  0.0
H  H31  1  0.30902581  0.43901432  0.78140933  1  0.071732  -0.000213  0.109629  0.112422  -0.000114  0.986113  0.0
H  H32  1  0.87001673  0.34240937  0.56097801  1  0.082589  0.00021  0.1095  0.11252  0.000114  0.984175  0.0
H  H33  1  0.13003949  0.43903546  0.65757687  1  0.083734  -0.00021  0.109566  0.11279  -0.000114  0.983898  0.0
H  H34  1  0.47243240  0.34243090  0.78144901  1  0.077701  0.000212  0.109125  0.111797  0.000114  0.985194  0.0
H  H35  1  0.69098657  0.21857257  0.56098721  1  0.072643  0.000212  0.10956  0.112294  0.000114  0.986302  0.0
H  H36  1  0.47241318  0.78144213  0.34242333  1  0.078526  0.000212  0.109145  0.11183  0.000114  0.985096  0.0
H  H37  1  0.69101542  0.56097462  0.21854279  1  0.073301  0.000212  0.109667  0.112521  0.000114  0.986143  0.0
H  H38  1  0.12998523  0.65758682  0.43902596  1  0.082965  -0.000211  0.109476  0.112515  -0.000114  0.984267  0.0
H  H39  1  0.87001777  0.56097565  0.34239252  1  0.082679  0.00021  0.109575  0.112671  0.000114  0.983956  0.0
H  H40  1  0.52756004  0.65755940  0.21854495  1  0.078285  -0.000212  0.109125  0.111882  -0.000114  0.985128  0.0
H  H41  1  0.30900809  0.78143539  0.43901740  1  0.07284  -0.000213  0.109611  0.112415  -0.000114  0.98613  0.0
C  C42  1  0.26797436  0.12955153  0.63462119  1  0.049048  -9.8e-05  -0.007224  -0.017664  -5.8e-05  3.962292  0.0
C  C43  1  0.26503991  0.15109022  0.69476869  1  -0.055271  0.000866  -0.054603  -0.099715  0.000512  3.877054  0.001
C  C44  1  0.35652972  0.19740306  0.74162347  1  0.119857  0.000619  0.014056  0.026321  0.000452  4.051308  0.001
C  C45  1  0.45177780  0.22226540  0.72825537  1  0.002457  3.7e-05  0.013367  0.045823  2.5e-05  3.972709  0.0
C  C46  1  0.45360580  0.19962981  0.66779230  1  -0.000131  -0.000645  -0.079344  -0.126041  -0.00048  3.986949  -0.001
C  C47  1  0.36270723  0.15371836  0.62121068  1  -0.025651  -0.000928  -0.064594  -0.064705  -0.000566  3.93787  -0.001
C  C48  1  0.16906171  0.08118331  0.58462203  1  1.535219  -3e-06  0.219572  0.575836  -3.9e-05  4.158053  0.0
C  C49  1  0.35367400  0.22022662  0.80325662  1  0.774535  8.3e-05  0.171598  0.220836  7.1e-05  4.03616  0.0
C  C50  1  0.13845637  0.50501783  0.87043081  1  0.001527  -0.000129  -0.006911  -0.016662  -6.6e-05  3.961378  0.0
C  C51  1  0.11393499  0.54361258  0.84889784  1  -0.073275  0.000861  -0.055132  -0.101746  0.000516  3.879849  0.001
C  C52  1  0.15912367  0.54419561  0.80260532  1  0.122819  0.000591  0.015176  0.028835  0.00044  4.051087  0.001
C  C53  1  0.22952984  0.50597388  0.77771766  1  -0.008508  3.7e-05  0.013342  0.04417  2.2e-05  3.972965  0.0
C  C54  1  0.25399150  0.46813949  0.80033089  1  -0.001782  -0.000668  -0.079061  -0.124908  -0.000494  3.987485  -0.001
C  C55  1  0.20902250  0.46744146  0.84624092  1  -0.002295  -0.000901  -0.065519  -0.065574  -0.000562  3.935593  -0.001
C  C56  1  0.08796067  0.50341437  0.91881468  1  1.537449  -3.6e-05  0.220203  0.577057  -4.1e-05  4.155073  0.0
C  C57  1  0.13350637  0.58305410  0.77985323  1  0.806649  8.3e-05  0.171893  0.221451  7.2e-05  4.035865  0.0
C  C58  1  0.63343757  0.36542662  0.49501222  1  -0.025068  9.1e-05  -0.007724  -0.019148  5.7e-05  3.962937  0.0
C  C59  1  0.57033608  0.30528982  0.45641274  1  0.020021  -0.000831  -0.053977  -0.098765  -0.000515  3.877197  -0.001
C  C60  1  0.61491776  0.25841151  0.45583291  1  0.094219  -0.000601  0.01389  0.027084  -0.00044  4.051393  -0.001
C  C61  1  0.72353667  0.27174510  0.49404345  1  -0.052344  -3.7e-05  0.013591  0.044152  -2.2e-05  3.974398  0.0
C  C62  1  0.78585702  0.33220222  0.53186300  1  -0.004485  0.000675  -0.078693  -0.125128  0.000494  3.988251  0.001
C  C63  1  0.74159389  0.37880811  0.53256536  1  -0.005238  0.000888  -0.065531  -0.06433  0.000561  3.937736  0.001
C  C64  1  0.58461879  0.41543622  0.49661530  1  1.54434  3.4e-05  0.220561  0.578252  4.8e-05  4.155271  0.0
C  C65  1  0.55043264  0.19679681  0.41696919  1  0.826443  -8.2e-05  0.171602  0.221169  -7.2e-05  4.036268  0.0
C  C66  1  0.36664170  0.50500911  0.63458545  1  -0.023734  -0.000108  -0.00769  -0.019209  -7e-05  3.962877  0.0
C  C67  1  0.42973536  0.54360959  0.69472578  1  0.019608  0.000833  -0.054121  -0.098621  0.000516  3.87671  0.001
C  C68  1  0.38513179  0.54418550  0.74159868  1  0.094616  0.000601  0.013935  0.026786  0.000439  4.051016  0.001
C  C69  1  0.27650432  0.50597183  0.72825057  1  -0.049925  3.7e-05  0.013552  0.044208  2.2e-05  3.973948  0.0
C  C70  1  0.21420125  0.46815053  0.66779114  1  -0.008266  -0.000676  -0.078897  -0.125472  -0.000494  3.988362  -0.001
C  C71  1  0.25848352  0.46745338  0.62119468  1  -0.008599  -0.000885  -0.065222  -0.063849  -0.00056  3.937649  -0.001
C  C72  1  0.41547683  0.50340771  0.58458289  1  1.542084  -3.4e-05  0.220481  0.577933  -5e-05  4.155609  0.0
C  C73  1  0.44958347  0.58304492  0.80322188  1  0.826544  8.2e-05  0.171593  0.221171  7.2e-05  4.036541  0.0
C  C74  1  0.73200357  0.36539013  0.87043140  1  0.048789  8.6e-05  -0.007155  -0.017904  5e-05  3.963201  0.0
C  C75  1  0.73494205  0.30524424  0.84889482  1  -0.054432  -0.000864  -0.054358  -0.099286  -0.000511  3.876708  -0.001
C  C76  1  0.64345281  0.25838482  0.80258909  1  0.12003  -0.000618  0.014232  0.026514  -0.000452  4.051296  -0.001
C  C77  1  0.54818600  0.27174507  0.77772995  1  -0.036356  -3.7e-05  0.013212  0.04564  -2.4e-05  3.972835  0.0
C  C78  1  0.54635272  0.33220734  0.80035679  1  -0.000874  0.000644  -0.079315  -0.125873  0.000479  3.986688  0.001
C  C79  1  0.63725923  0.37879750  0.84626496  1  -0.024707  0.000929  -0.064786  -0.064695  0.000566  3.938249  0.001
C  C80  1  0.83090278  0.41538951  0.91879208  1  1.534499  1.5e-05  0.219259  0.575536  4.3e-05  4.158235  0.0
C  C81  1  0.64632316  0.19675814  0.77977618  1  0.774195  -8.3e-05  0.171607  0.22073  -7.1e-05  4.035973  0.0
C  C82  1  0.86151801  0.12953324  0.49496623  1  0.001295  0.000118  -0.007092  -0.016321  5.7e-05  3.960734  0.0
C  C83  1  0.88604359  0.15107296  0.45637540  1  -0.074981  -0.000862  -0.055097  -0.101972  -0.000516  3.880087  -0.001
C  C84  1  0.84087802  0.19737375  0.45580218  1  0.123323  -0.00059  0.015065  0.02867  -0.00044  4.051303  -0.001
C  C85  1  0.77048940  0.22226972  0.49403302  1  -0.008681  -3.7e-05  0.013374  0.044217  -2.2e-05  3.973141  0.0
C  C86  1  0.74600755  0.19964658  0.53185890  1  -0.001266  0.000667  -0.079069  -0.12476  0.000494  3.987726  0.001
C  C87  1  0.79096028  0.15372774  0.53254658  1  -0.002574  0.000902  -0.065429  -0.065759  0.000562  3.935619  0.001
C  C88  1  0.91201521  0.08114892  0.49656983  1  1.538634  3.4e-05  0.22035  0.57729  3.9e-05  4.154839  0.0
C  C89  1  0.86650154  0.22013249  0.41695050  1  0.806689  -8.3e-05  0.171933  0.221547  -7.2e-05  4.035521  0.0
C  C90  1  0.73196639  0.87044421  0.36539381  1  0.048375  7.7e-05  -0.007176  -0.018109  4.5e-05  3.963255  0.0
C  C91  1  0.73491530  0.84890642  0.30524976  1  -0.051913  -0.000862  -0.054341  -0.099223  -0.00051  3.876852  -0.001
C  C92  1  0.64344295  0.80259223  0.25838561  1  0.117839  -0.000619  0.014227  0.026506  -0.000452  4.051275  -0.001
C  C93  1  0.54818241  0.77772310  0.27174267  1  -0.036792  -3.7e-05  0.013189  0.045613  -2.4e-05  3.9726  0.0
C  C94  1  0.54633964  0.80035552  0.33220471  1  -0.002213  0.000645  -0.079286  -0.125951  0.000479  3.986674  0.001
C  C95  1  0.63722436  0.84627059  0.37879662  1  -0.024387  0.000929  -0.064783  -0.064565  0.000567  3.938131  0.001
C  C96  1  0.83085690  0.91880610  0.41539882  1  1.535051  1.4e-05  0.21954  0.575782  4.2e-05  4.157547  0.0
C  C97  1  0.64632500  0.77978179  0.19676051  1  0.774484  -8.3e-05  0.171621  0.220667  -7.1e-05  4.036067  0.0
C  C98  1  0.86157892  0.49494441  0.12952671  1  -0.004715  0.000121  -0.007093  -0.016219  6.2e-05  3.960606  0.0
C  C99  1  0.88609529  0.45635283  0.15106773  1  -0.067036  -0.000858  -0.055316  -0.101845  -0.000516  3.879939  -0.001
C  C100  1  0.84090494  0.45578790  0.19736966  1  0.122534  -0.00059  0.015088  0.02814  -0.00044  4.05153  -0.001
C  C101  1  0.77050990  0.49401868  0.22225421  1  -0.009479  -3.7e-05  0.013593  0.044589  -2.2e-05  3.973062  0.0
C  C102  1  0.74604545  0.53184583  0.19962814  1  -0.001632  0.000667  -0.079158  -0.12502  0.000494  3.988388  0.001
C  C103  1  0.79102241  0.53252847  0.15371508  1  0.001696  0.000903  -0.065198  -0.065664  0.000562  3.935891  0.001
C  C104  1  0.91207549  0.49653973  0.08113759  1  1.539797  3.2e-05  0.220423  0.577476  3.9e-05  4.154714  0.0
C  C105  1  0.86649857  0.41693485  0.22013562  1  0.807654  -8.3e-05  0.172003  0.221917  -7.2e-05  4.035775  0.0
C  C106  1  0.36659081  0.63457953  0.50497861  1  -0.024726  -0.000112  -0.007622  -0.019093  -7.2e-05  3.963149  0.0
C  C107  1  0.42968323  0.69471632  0.54358128  1  0.020153  0.000832  -0.053955  -0.098515  0.000516  3.877382  0.001
C  C108  1  0.38509076  0.74159282  0.54416294  1  0.094662  0.000601  0.013769  0.026844  0.000439  4.051568  0.001
C  C109  1  0.27646592  0.72825562  0.50595608  1  -0.052179  3.7e-05  0.013631  0.04418  2.2e-05  3.974367  0.0
C  C110  1  0.21415208  0.66779668  0.46813657  1  -0.004782  -0.000676  -0.078839  -0.12518  -0.000494  3.988403  -0.001
C  C111  1  0.25842938  0.62119441  0.46742806  1  -0.00567  -0.000887  -0.065373  -0.064318  -0.00056  3.937601  -0.001
C  C112  1  0.41543479  0.58457580  0.50337396  1  1.542633  -3.7e-05  0.220124  0.577733  -5.3e-05  4.155923  0.0
C  C113  1  0.44957417  0.80321069  0.58303071  1  0.826327  8.2e-05  0.171705  0.221256  7.2e-05  4.036883  0.0
C  C114  1  0.63343030  0.49502327  0.36540959  1  -0.0247  9e-05  -0.00759  -0.019157  5.8e-05  3.963753  0.0
C  C115  1  0.57033528  0.45642009  0.30527564  1  0.020441  -0.00083  -0.053913  -0.098422  -0.000515  3.877522  -0.001
C  C116  1  0.61491813  0.45583240  0.25839303  1  0.094065  -0.000601  0.013701  0.026761  -0.00044  4.051839  -0.001
C  C117  1  0.72354438  0.49403703  0.27173029  1  -0.051926  -3.7e-05  0.013502  0.044059  -2.2e-05  3.974547  0.0
C  C118  1  0.78586268  0.53186240  0.33218733  1  -0.004734  0.000675  -0.078811  -0.125281  0.000494  3.988131  0.001
C  C119  1  0.74158855  0.53257584  0.37879426  1  -0.005163  0.000887  -0.065314  -0.063991  0.000561  3.937495  0.001
C  C120  1  0.58461204  0.49662875  0.41541995  1  1.544284  4.1e-05  0.220166  0.578024  5e-05  4.155312  0.0
C  C121  1  0.55043392  0.41696891  0.19677632  1  0.826176  -8.2e-05  0.171661  0.221006  -7.2e-05  4.036679  0.0
C  C122  1  0.26800764  0.63458660  0.12953254  1  0.047553  -8.8e-05  -0.007346  -0.018028  -5.3e-05  3.962971  0.0
C  C123  1  0.26505913  0.69473385  0.15107248  1  -0.05469  0.000863  -0.054058  -0.099048  0.000511  3.876638  0.001
C  C124  1  0.35652770  0.74159644  0.19738739  1  0.117355  0.000619  0.014182  0.026344  0.000452  4.051502  0.001
C  C125  1  0.45178596  0.72823890  0.22225953  1  0.00387  3.7e-05  0.013368  0.045897  2.4e-05  3.972669  0.0
C  C126  1  0.45363476  0.66777798  0.19962868  1  -0.001671  -0.000644  -0.079156  -0.125957  -0.000479  3.987011  -0.001
C  C127  1  0.36274954  0.62118919  0.15371423  1  -0.025032  -0.00093  -0.064872  -0.064771  -0.000566  3.938631  -0.001
C  C128  1  0.16911600  0.58458586  0.08116639  1  1.53632  -6e-06  0.219654  0.575995  -4.1e-05  4.157214  0.0
C  C129  1  0.35364820  0.80322131  0.22019762  1  0.774981  8.3e-05  0.171796  0.221107  7.2e-05  4.035868  0.0
C  C130  1  0.13845097  0.87045798  0.50503527  1  0.000966  -0.000136  -0.006894  -0.016065  -6.9e-05  3.960701  0.0
C  C131  1  0.11393125  0.84892007  0.54362816  1  -0.074686  0.000863  -0.055177  -0.101828  0.000517  3.879984  0.001
C  C132  1  0.15911142  0.80261882  0.54419917  1  0.123365  0.00059  0.015029  0.028465  0.00044  4.051552  0.001
C  C133  1  0.22950449  0.77773009  0.50596853  1  -0.008824  3.7e-05  0.013492  0.044272  2.2e-05  3.973187  0.0
C  C134  1  0.25398178  0.80035731  0.46814536  1  -0.001651  -0.000668  -0.079124  -0.124892  -0.000494  3.987975  -0.001
C  C135  1  0.20901435  0.84626981  0.46745634  1  -0.001675  -0.0009  -0.065387  -0.065637  -0.000562  3.935736  -0.001
C  C136  1  0.08793781  0.91884003  0.50343329  1  1.538812  -3.5e-05  0.220284  0.576906  -4.2e-05  4.155047  0.0
C  C137  1  0.13349810  0.77986235  0.58305344  1  0.80681  8.3e-05  0.171954  0.221689  7.2e-05  4.035623  0.0
N  N138  1  0.35204430  0.23983962  0.85382987  1  -1.080504  0.000242  -0.304515  -0.339376  0.000147  2.666685  0.0
N  N139  1  0.11228884  0.61401759  0.76024309  1  -1.077116  0.00024  -0.305168  -0.340222  0.000146  2.665071  0.0
N  N140  1  0.49821586  0.14622219  0.38597891  1  -1.101606  -0.00024  -0.304751  -0.339894  -0.000146  2.665471  0.0
N  N141  1  0.50175577  0.61402659  0.85380401  1  -1.102589  0.00024  -0.304693  -0.33979  0.000146  2.665681  0.0
N  N142  1  0.64798885  0.14618925  0.76017531  1  -1.079876  -0.000243  -0.304621  -0.339425  -0.000148  2.666145  0.0
N  N143  1  0.88772495  0.23973730  0.38598199  1  -1.076479  -0.00024  -0.305196  -0.34028  -0.000146  2.664909  0.0
N  N144  1  0.64799956  0.76018598  0.14619280  1  -1.080087  -0.000244  -0.304653  -0.339402  -0.000148  2.666189  0.0
N  N145  1  0.88768555  0.38597951  0.23975690  1  -1.07794  -0.00024  -0.305351  -0.340501  -0.000146  2.66511  0.0
N  N146  1  0.50178223  0.85377943  0.61401992  1  -1.102058  0.00024  -0.304801  -0.339892  0.000146  2.666267  0.0
N  N147  1  0.49822347  0.38598181  0.14620196  1  -1.101852  -0.00024  -0.304707  -0.33966  -0.000146  2.665692  0.0
N  N148  1  0.35197899  0.85378975  0.23980188  1  -1.080279  0.000242  -0.304804  -0.339721  0.000147  2.666185  0.0
N  N149  1  0.11228241  0.76025980  0.61402320  1  -1.077001  0.00024  -0.305224  -0.340343  0.000146  2.664898  0.0
O  O150  1  0.17783647  0.06280818  0.53066104  1  -1.087245  0.090865  -0.308123  -0.510806  0.059836  2.321735  0.082
O  O151  1  0.08403464  0.06277871  0.60017660  1  -1.09159  -0.090877  -0.309047  -0.511144  -0.059828  2.324435  -0.082
O  O152  1  0.11512240  0.46783884  0.93718871  1  -1.081716  0.090838  -0.309275  -0.512409  0.059761  2.321101  0.082
O  O153  1  0.02133899  0.53739057  0.93723010  1  -1.090071  -0.090839  -0.308773  -0.511267  -0.059858  2.32228  -0.082
O  O154  1  0.64739078  0.46938264  0.53215344  1  -1.087924  -0.090958  -0.309115  -0.511781  -0.059933  2.320007  -0.082
O  O155  1  0.48400584  0.39988405  0.46265150  1  -1.091065  0.090858  -0.309256  -0.512443  0.059745  2.322427  0.082
O  O156  1  0.35269736  0.46785836  0.53062759  1  -1.087194  0.090985  -0.308992  -0.511681  0.059941  2.319681  0.082
O  O157  1  0.51607010  0.53736057  0.60012758  1  -1.089538  -0.090834  -0.309091  -0.512023  -0.05973  2.32282  -0.082
O  O158  1  0.82213016  0.46934615  0.93716325  1  -1.087776  -0.090871  -0.307905  -0.510399  -0.059842  2.321636  -0.082
O  O159  1  0.91594490  0.39983244  0.93719907  1  -1.090916  0.090867  -0.308954  -0.511208  0.059826  2.32445  0.082
O  O160  1  0.88486303  0.06277890  0.53214678  1  -1.082819  -0.090825  -0.309352  -0.51262  -0.059754  2.321454  -0.082
O  O161  1  0.97863705  0.06273460  0.46259193  1  -1.089789  0.090827  -0.308832  -0.511337  0.059849  2.322335  0.082
O  O162  1  0.82208087  0.93718032  0.46935427  1  -1.087505  -0.090869  -0.308241  -0.510674  -0.059839  2.321222  -0.082
O  O163  1  0.91590892  0.93721114  0.39984170  1  -1.091235  0.090895  -0.308905  -0.511153  0.059852  2.32405  0.082
O  O164  1  0.88492530  0.53211526  0.06276482  1  -1.083229  -0.090818  -0.309302  -0.512688  -0.059748  2.321846  -0.082
O  O165  1  0.97870715  0.46256534  0.06272415  1  -1.090877  0.090853  -0.308995  -0.511596  0.05986  2.322037  0.082
O  O166  1  0.35265910  0.53062033  0.46782285  1  -1.087114  0.090995  -0.308862  -0.511593  0.05995  2.31994  0.082
O  O167  1  0.51602825  0.60012526  0.53733234  1  -1.090019  -0.090825  -0.309141  -0.512219  -0.059721  2.323085  -0.082
O  O168  1  0.64738729  0.53217131  0.46937024  1  -1.087642  -0.090976  -0.308919  -0.511645  -0.059946  2.319999  -0.082
O  O169  1  0.48400749  0.46266322  0.39986933  1  -1.091595  0.090847  -0.309129  -0.512401  0.05974  2.322621  0.082
O  O170  1  0.17789926  0.53062740  0.06278977  1  -1.087406  0.090858  -0.308354  -0.510966  0.059832  2.320915  0.082
O  O171  1  0.08407830  0.60014021  0.06275886  1  -1.091494  -0.09087  -0.308867  -0.51114  -0.059831  2.324531  -0.082
O  O172  1  0.11509217  0.93721277  0.46785427  1  -1.082297  0.090846  -0.309301  -0.512387  0.05977  2.321059  0.082
O  O173  1  0.02131482  0.93724711  0.53740389  1  -1.090353  -0.090789  -0.30891  -0.511272  -0.059825  2.322565  -0.082
