# generated using pymatgen
data_CuSiH20C24N4(O2F3)2
_symmetry_space_group_name_H-M   'P 1'
_cell_length_a   8.03312747
_cell_length_b   13.59436649
_cell_length_c   13.59435527
_cell_angle_alpha   89.73906183
_cell_angle_beta   86.17107649
_cell_angle_gamma   86.17101452
_symmetry_Int_Tables_number   1
_chemical_formula_structural   CuSiH20C24N4(O2F3)2
_chemical_formula_sum   'Cu1 Si1 H20 C24 N4 O4 F6'
_cell_volume   1477.95515722
_cell_formula_units_Z   1
loop_
 _symmetry_equiv_pos_site_id
 _symmetry_equiv_pos_as_xyz
  1  'x, y, z'
loop_
 _atom_site_type_symbol
 _atom_site_label
 _atom_site_symmetry_multiplicity
 _atom_site_fract_x
 _atom_site_fract_y
 _atom_site_fract_z
 _atom_site_occupancy
 _atom_site_pbe_bader_charge
 _atom_site_pbe_bader_spin_density
 _atom_site_pbe_cm5_charge
 _atom_site_pbe_ddec_charge
 _atom_site_pbe_ddec_spin_density
 _atom_site_pbe_ddec_sum_bond_order
 _atom_site_pbe_magmom
Cu  Cu0  1  0.49999104  0.49999976  0.49999933  1  1.110415  0.569155  0.782778  0.691123  0.732291  2.299109  0.566
Si  Si1  1  0.99999461  0.49999904  0.50000294  1  3.191867  -0.000185  0.243597  1.727391  -0.000354  3.944098  0.0
H  H2  1  0.26131567  0.49986706  0.34103341  1  0.176295  0.00217  0.120312  0.108267  0.001015  1.041224  0.002
H  H3  1  0.27098127  0.49979411  0.16068842  1  0.121169  0.000978  0.111724  0.128948  0.000513  1.032636  0.001
H  H4  1  0.81295229  0.50016700  0.16489850  1  0.010589  0.001217  0.112175  0.103719  0.000615  1.014587  0.0
H  H5  1  0.77910462  0.50011399  0.34158738  1  0.193206  0.002242  0.120904  0.11093  0.00106  1.040143  0.002
H  H6  1  0.18703149  0.49981779  0.83510237  1  0.010406  0.001217  0.112121  0.103538  0.000615  1.014678  0.0
H  H7  1  0.72899990  0.50020247  0.83931028  1  0.121399  0.000978  0.111711  0.128922  0.000514  1.032731  0.001
H  H8  1  0.73867271  0.50014280  0.65896422  1  0.176753  0.00217  0.120231  0.107906  0.001015  1.041508  0.002
H  H9  1  0.22087530  0.49988259  0.65841358  1  0.193054  0.002242  0.120941  0.11101  0.00106  1.040018  0.002
H  H10  1  0.26131510  0.34103419  0.49986285  1  0.176633  0.00217  0.120323  0.10829  0.001015  1.041166  0.002
H  H11  1  0.27098055  0.16068902  0.49979223  1  0.121167  0.000978  0.111725  0.128981  0.000513  1.032615  0.001
H  H12  1  0.81294911  0.16489945  0.50016860  1  0.010602  0.001216  0.112186  0.103743  0.000615  1.014604  0.0
H  H13  1  0.77910015  0.34158782  0.50011325  1  0.193238  0.002242  0.120889  0.11088  0.00106  1.040111  0.002
H  H14  1  0.18703388  0.83510303  0.49981751  1  0.010426  0.001216  0.112126  0.103559  0.000615  1.014645  0.0
H  H15  1  0.72900029  0.83931051  0.50020206  1  0.121385  0.000978  0.111726  0.128907  0.000514  1.032745  0.001
H  H16  1  0.73867703  0.65896461  0.50014277  1  0.176899  0.00217  0.120312  0.108092  0.001015  1.041352  0.002
H  H17  1  0.22088060  0.65841244  0.49988031  1  0.193093  0.002243  0.120926  0.111028  0.00106  1.039952  0.002
H  H18  1  0.79914526  0.49997794  0.04495499  1  0.597125  0.000291  0.320558  0.345623  0.000213  0.935803  0.0
H  H19  1  0.20084132  0.50001496  0.95504425  1  0.596983  0.000291  0.320578  0.34566  0.000213  0.935546  0.0
H  H20  1  0.79914756  0.04495629  0.49998041  1  0.597097  0.000291  0.320578  0.345634  0.000213  0.935741  0.0
H  H21  1  0.20083693  0.95504397  0.50001594  1  0.596949  0.000291  0.320606  0.345637  0.000213  0.935533  0.0
C  C22  1  0.38101029  0.49994335  0.29837186  1  0.501582  -0.000782  0.052035  0.097868  -0.001134  3.903586  0.0
C  C23  1  0.38756409  0.49992135  0.19614417  1  -0.03818  0.006288  -0.08258  -0.151926  0.004199  3.904742  0.005
C  C24  1  0.54235664  0.50001790  0.14047243  1  -0.068777  -0.003238  0.000226  0.063737  -0.003603  4.022744  -0.002
C  C25  1  0.68424500  0.50010238  0.19670331  1  -0.008161  0.005994  -0.088738  -0.187632  0.003982  3.957468  0.005
C  C26  1  0.66898140  0.50009471  0.29896857  1  0.453333  -0.000686  0.052697  0.105727  -0.001113  3.909309  0.0
C  C27  1  0.56274003  0.50002564  0.03240940  1  0.519999  -0.001027  0.071152  0.134693  -0.001201  3.991295  0.0
C  C28  1  0.43724772  0.49996799  0.96758759  1  0.606066  -0.001003  0.071218  0.134767  -0.001201  3.991573  0.0
C  C29  1  0.31573844  0.49988535  0.80329609  1  -0.007566  0.005996  -0.088649  -0.187344  0.003983  3.957381  0.005
C  C30  1  0.45763029  0.49997205  0.85952534  1  -0.069271  -0.003241  0.000265  0.063627  -0.003606  4.022894  -0.002
C  C31  1  0.61241875  0.50007154  0.80385154  1  -0.038209  0.006289  -0.082542  -0.151839  0.004199  3.905104  0.005
C  C32  1  0.61897437  0.50005545  0.70162891  1  0.500614  -0.000781  0.052059  0.097901  -0.001132  3.90399  0.0
C  C33  1  0.33100359  0.49990113  0.70103146  1  0.453364  -0.000687  0.052558  0.105662  -0.001112  3.909369  0.0
C  C34  1  0.38100976  0.29836965  0.49994047  1  0.501236  -0.000788  0.051995  0.09789  -0.001141  3.903635  0.0
C  C35  1  0.38756316  0.19614449  0.49991996  1  -0.038229  0.006298  -0.082573  -0.152027  0.004206  3.904882  0.005
C  C36  1  0.54235556  0.14047247  0.50001768  1  -0.068928  -0.003248  0.000238  0.06383  -0.003614  4.02274  -0.002
C  C37  1  0.68424446  0.19670374  0.50010073  1  -0.007988  0.006003  -0.088759  -0.187699  0.003988  3.957481  0.005
C  C38  1  0.66897698  0.29896927  0.50009320  1  0.453336  -0.000694  0.052766  0.105857  -0.001121  3.909233  0.0
C  C39  1  0.56273995  0.03240978  0.50002553  1  0.520043  -0.001026  0.071148  0.134661  -0.0012  3.99134  0.0
C  C40  1  0.43724879  0.96758607  0.49996921  1  0.606108  -0.001003  0.071214  0.134681  -0.0012  3.991551  0.0
C  C41  1  0.31574013  0.80329579  0.49988385  1  -0.007569  0.006003  -0.088671  -0.187413  0.003987  3.957407  0.005
C  C42  1  0.45763053  0.85952485  0.49997200  1  -0.069283  -0.003249  0.00026  0.063627  -0.003614  4.023  -0.002
C  C43  1  0.61242059  0.80385135  0.50007203  1  -0.038196  0.006298  -0.08262  -0.151861  0.004206  3.905179  0.005
C  C44  1  0.61897757  0.70162767  0.50005578  1  0.500409  -0.000787  0.052061  0.097822  -0.00114  3.903999  0.0
C  C45  1  0.33100618  0.70103173  0.49989952  1  0.453293  -0.000693  0.052603  0.105731  -0.001119  3.909253  0.0
N  N46  1  0.51905797  0.50002462  0.34961800  1  -1.210635  0.094825  -0.337986  -0.219463  0.063179  3.574592  0.083
N  N47  1  0.48092627  0.49997786  0.65037982  1  -1.210093  0.094829  -0.337879  -0.21922  0.063179  3.574657  0.083
N  N48  1  0.51905511  0.34961812  0.50002178  1  -1.210694  0.094826  -0.33801  -0.219558  0.06318  3.574615  0.083
N  N49  1  0.48092955  0.65038067  0.49997678  1  -1.210055  0.094837  -0.337915  -0.219319  0.063186  3.5747  0.083
O  O50  1  0.72427648  0.50007831  0.99157890  1  -1.111205  0.000159  -0.34992  -0.427639  5.7e-05  2.349037  0.0
O  O51  1  0.27571363  0.49990574  0.00841878  1  -1.111108  0.000159  -0.349996  -0.427731  5.7e-05  2.349044  0.0
O  O52  1  0.72427942  0.99157981  0.50007688  1  -1.111216  0.000159  -0.349939  -0.427629  5.7e-05  2.349022  0.0
O  O53  1  0.27571049  0.00841677  0.49991192  1  -1.111094  0.000159  -0.350026  -0.427649  5.7e-05  2.348931  0.0
F  F54  1  0.21582105  0.49943922  0.49944313  1  -0.842594  -0.001741  -0.203519  -0.533541  -0.001879  1.34165  -0.001
F  F55  1  0.78416877  0.50055811  0.50056038  1  -0.842583  -0.001741  -0.203526  -0.531203  -0.001872  1.338812  -0.001
F  F56  1  0.00000506  0.58927473  0.41072501  1  -0.833498  0.000182  -0.257576  -0.551439  0.000173  1.057832  0.0
F  F57  1  0.99998849  0.41072259  0.58927762  1  -0.833583  0.000182  -0.257562  -0.551435  0.000173  1.057838  0.0
F  F58  1  0.01863887  0.41073118  0.41073615  1  -0.833675  0.000183  -0.257264  -0.551151  0.000174  1.057719  0.0
F  F59  1  0.98135468  0.58926614  0.58927310  1  -0.833744  0.000183  -0.257275  -0.551155  0.000174  1.057687  0.0
