# generated using pymatgen
data_HgH8C10S2(NCl)2
_symmetry_space_group_name_H-M   'P 1'
_cell_length_a   8.94029546
_cell_length_b   11.52739377
_cell_length_c   13.12357417
_cell_angle_alpha   90.00000232
_cell_angle_beta   89.99999524
_cell_angle_gamma   103.28051777
_symmetry_Int_Tables_number   1
_chemical_formula_structural   HgH8C10S2(NCl)2
_chemical_formula_sum   'Hg4 H32 C40 S8 N8 Cl8'
_cell_volume   1316.32365050
_cell_formula_units_Z   4
loop_
 _symmetry_equiv_pos_site_id
 _symmetry_equiv_pos_as_xyz
  1  'x, y, z'
loop_
 _atom_site_type_symbol
 _atom_site_label
 _atom_site_symmetry_multiplicity
 _atom_site_fract_x
 _atom_site_fract_y
 _atom_site_fract_z
 _atom_site_occupancy
 _atom_site_hle17_bader_spin_density
 _atom_site_hle17_ddec_charge
 _atom_site_hle17_ddec_spin_density
 _atom_site_hle17_ddec_sum_bond_order
 _atom_site_hle17_magmom
 _atom_site_hse06_10hf_bader_spin_density
 _atom_site_hse06_10hf_ddec_charge
 _atom_site_hse06_10hf_ddec_spin_density
 _atom_site_hse06_10hf_ddec_sum_bond_order
 _atom_site_hse06_10hf_magmom
 _atom_site_hse06_bader_spin_density
 _atom_site_hse06_ddec_charge
 _atom_site_hse06_ddec_spin_density
 _atom_site_hse06_ddec_sum_bond_order
 _atom_site_hse06_magmom
 _atom_site_pbe_bader_spin_density
 _atom_site_pbe_cm5_charge
 _atom_site_pbe_ddec_charge
 _atom_site_pbe_ddec_spin_density
 _atom_site_pbe_ddec_sum_bond_order
 _atom_site_pbe_magmom
Hg  Hg0  1  0.97462801  0.87012339  0.12398222  1  0  0.743931  0  2.10004  0  0  0.587745  0  2.600267  0  0  0.637521  0  2.563974  0  0  0.500918  0.553744  0  2.624522  0
Hg  Hg1  1  0.52537107  0.62987688  0.62398169  1  0  0.743948  0  2.100001  0  0  0.587765  0  2.600223  0  0  0.637541  0  2.56393  0  0  0.500923  0.553765  0  2.624473  0
Hg  Hg2  1  0.02537034  0.12987591  0.87601821  1  0  0.74395  0  2.10001  0  0  0.587765  0  2.600237  0  0  0.637542  0  2.563942  0  0  0.500921  0.553764  0  2.624493  0
Hg  Hg3  1  0.47462754  0.37012331  0.37601798  1  0  0.743944  0  2.100007  0  0  0.587756  0  2.600235  0  0  0.637532  0  2.563942  0  0  0.500923  0.553755  0  2.624484  0
H  H4  1  0.51493984  0.00413962  0.35948132  1  0  0.106407  0  0.985749  0  0  0.110305  0  1.05778  0  0  0.113828  0  1.056719  0  0  0.091875  0.107784  0  1.058688  0
H  H5  1  0.98506144  0.49586150  0.85948154  1  0  0.106398  0  0.985729  0  0  0.110297  0  1.057761  0  0  0.11382  0  1.0567  0  0  0.09188  0.107776  0  1.05867  0
H  H6  1  0.48506074  0.99585967  0.64051835  1  0  0.106418  0  0.985696  0  0  0.110315  0  1.057732  0  0  0.113838  0  1.05667  0  0  0.091893  0.107794  0  1.058642  0
H  H7  1  0.01493856  0.50413958  0.14051889  1  0  0.106397  0  0.985714  0  0  0.110295  0  1.057751  0  0  0.113818  0  1.05669  0  0  0.091881  0.107773  0  1.05866  0
H  H8  1  0.69590978  0.12867945  0.48164088  1  0  0.090856  0  0.949115  0  0  0.103318  0  1.008465  0  0  0.104881  0  1.008325  0  0  0.10052  0.102147  0  1.00857  0
H  H9  1  0.80409010  0.37132078  0.98164110  1  0  0.090844  0  0.949133  0  0  0.103308  0  1.00848  0  0  0.104871  0  1.00834  0  0  0.10051  0.10214  0  1.008584  0
H  H10  1  0.30408968  0.87131984  0.51835879  1  0  0.090763  0  0.949118  0  0  0.103235  0  1.008469  0  0  0.104803  0  1.008315  0  0  0.100472  0.102074  0  1.008566  0
H  H11  1  0.19591075  0.62867940  0.01835933  1  0  0.090845  0  0.949146  0  0  0.103308  0  1.008493  0  0  0.104873  0  1.008346  0  0  0.100509  0.102137  0  1.0086  0
H  H12  1  0.98013062  0.13397527  0.46820246  1  0  0.104246  0  0.959423  0  0  0.112656  0  1.022961  0  0  0.115233  0  1.023233  0  0  0.099551  0.110794  0  1.022994  0
H  H13  1  0.51986927  0.36602496  0.96820270  1  0  0.104249  0  0.959398  0  0  0.112659  0  1.02293  0  0  0.115235  0  1.023203  0  0  0.099557  0.110794  0  1.022963  0
H  H14  1  0.01986800  0.86602492  0.53179721  1  0  0.104226  0  0.95943  0  0  0.112631  0  1.022963  0  0  0.115207  0  1.023236  0  0  0.099549  0.110769  0  1.022995  0
H  H15  1  0.48013158  0.63397522  0.03179698  1  0  0.104228  0  0.959419  0  0  0.112638  0  1.022956  0  0  0.115214  0  1.023228  0  0  0.099548  0.110775  0  1.022989  0
H  H16  1  0.06778364  0.01698623  0.32956266  1  0  0.080347  0  0.951182  0  0  0.082825  0  1.025874  0  0  0.085672  0  1.02295  0  0  0.102123  0.080712  0  1.02813  0
H  H17  1  0.43221536  0.48301298  0.82956212  1  0  0.080345  0  0.951145  0  0  0.082817  0  1.025845  0  0  0.085664  0  1.02292  0  0  0.102104  0.080702  0  1.028101  0
H  H18  1  0.93221497  0.98301396  0.67043778  1  0  0.08037  0  0.951126  0  0  0.08284  0  1.025829  0  0  0.085688  0  1.022903  0  0  0.102121  0.080727  0  1.028084  0
H  H19  1  0.56778325  0.51698720  0.17043832  1  0  0.080323  0  0.95119  0  0  0.082823  0  1.02586  0  0  0.085671  0  1.022934  0  0  0.102113  0.080708  0  1.028115  0
H  H20  1  0.89822287  0.72576306  0.33283538  1  0  0.083306  0  0.949814  0  0  0.087086  0  1.021276  0  0  0.090033  0  1.018277  0  0  0.10245  0.084945  0  1.023525  0
H  H21  1  0.60177816  0.77423632  0.83283561  1  0  0.083275  0  0.949818  0  0  0.087051  0  1.021285  0  0  0.089996  0  1.018293  0  0  0.102449  0.084912  0  1.023533  0
H  H22  1  0.10177798  0.27423712  0.66716429  1  0  0.083296  0  0.94982  0  0  0.087068  0  1.021289  0  0  0.090013  0  1.018299  0  0  0.102451  0.084929  0  1.023537  0
H  H23  1  0.39822184  0.22576476  0.16716406  1  0  0.083294  0  0.949794  0  0  0.087062  0  1.021268  0  0  0.090008  0  1.018274  0  0  0.102446  0.084922  0  1.023516  0
H  H24  1  0.98073106  0.59759274  0.46411364  1  0  0.099729  0  0.96993  0  0  0.107213  0  1.037297  0  0  0.11011  0  1.036546  0  0  0.093975  0.105179  0  1.037903  0
H  H25  1  0.51926910  0.90240753  0.96411388  1  0  0.099727  0  0.96993  0  0  0.107203  0  1.037293  0  0  0.1101  0  1.036543  0  0  0.093975  0.105171  0  1.037903  0
H  H26  1  0.01926979  0.40240744  0.53588603  1  0  0.099721  0  0.969914  0  0  0.107181  0  1.037305  0  0  0.110084  0  1.036537  0  0  0.093966  0.105148  0  1.037914  0
H  H27  1  0.48073063  0.09759265  0.03588655  1  0  0.099719  0  0.969917  0  0  0.107186  0  1.037307  0  0  0.11009  0  1.036534  0  0  0.093979  0.105153  0  1.037917  0
H  H28  1  0.26098832  0.58897864  0.47057074  1  0  0.078281  0  0.991548  0  0  0.083451  0  1.06905  0  0  0.085886  0  1.066741  0  0  0.084536  0.081608  0  1.070787  0
H  H29  1  0.23901094  0.91102061  0.97057021  1  0  0.078325  0  0.991495  0  0  0.083484  0  1.069015  0  0  0.085922  0  1.066709  0  0  0.084556  0.081642  0  1.070754  0
H  H30  1  0.73901226  0.41102065  0.52942969  1  0  0.078286  0  0.991537  0  0  0.083452  0  1.069043  0  0  0.085888  0  1.066734  0  0  0.084545  0.081609  0  1.07078  0
H  H31  1  0.76098740  0.08897868  0.02943099  1  0  0.078334  0  0.991501  0  0  0.083487  0  1.069042  0  0  0.085922  0  1.066732  0  0  0.084556  0.081646  0  1.07078  0
H  H32  1  0.44618521  0.71708156  0.35161915  1  0  0.1103  0  0.990717  0  0  0.112588  0  1.064857  0  0  0.116298  0  1.063682  0  0  0.089853  0.109953  0  1.065793  0
H  H33  1  0.05381491  0.78291680  0.85161862  1  0  0.110259  0  0.990745  0  0  0.112573  0  1.064863  0  0  0.116285  0  1.063686  0  0  0.089842  0.109939  0  1.065801  0
H  H34  1  0.55381286  0.28291685  0.64838052  1  0  0.110285  0  0.99074  0  0  0.112567  0  1.064887  0  0  0.116278  0  1.063712  0  0  0.089834  0.109932  0  1.065822  0
H  H35  1  0.94618679  0.21708248  0.14838181  1  0  0.110292  0  0.990722  0  0  0.112573  0  1.064877  0  0  0.116283  0  1.063702  0  0  0.089834  0.109939  0  1.065814  0
C  C36  1  0.69753053  0.94298325  0.28251145  1  0  0.196316  0  3.777187  0  0  0.199866  0  4.034625  0  0  0.20933  0  4.055375  0  0  0.113681  0.193401  0  4.020633  0
C  C37  1  0.80247215  0.55701790  0.78251319  1  0  0.196372  0  3.777116  0  0  0.199857  0  4.034658  0  0  0.209333  0  4.055383  0  0  0.113657  0.193391  0  4.020665  0
C  C38  1  0.30247058  0.05701782  0.71748670  1  0  0.196461  0  3.777  0  0  0.199929  0  4.034561  0  0  0.209407  0  4.055284  0  0  0.1137  0.193464  0  4.02057  0
C  C39  1  0.19752785  0.44298318  0.21748649  1  0  0.196345  0  3.777137  0  0  0.199831  0  4.034667  0  0  0.209309  0  4.055393  0  0  0.11364  0.193367  0  4.020674  0
C  C40  1  0.63746173  0.00719476  0.35595256  1  0  -0.151185  0  3.72205  0  0  -0.168636  0  3.96876  0  0  -0.176895  0  3.990144  0  0  -0.092433  -0.1633  0  3.954475  0
C  C41  1  0.86253816  0.49280546  0.85595354  1  0  -0.151162  0  3.722023  0  0  -0.168588  0  3.968747  0  0  -0.17685  0  3.990126  0  0  -0.092424  -0.163255  0  3.954465  0
C  C42  1  0.36253715  0.99280631  0.64404559  1  0  -0.151189  0  3.72204  0  0  -0.168614  0  3.968788  0  0  -0.176874  0  3.990167  0  0  -0.092452  -0.163278  0  3.954507  0
C  C43  1  0.13746295  0.50719561  0.14404613  1  0  -0.151106  0  3.722032  0  0  -0.168537  0  3.968768  0  0  -0.176798  0  3.990147  0  0  -0.092408  -0.163202  0  3.954484  0
C  C44  1  0.73956399  0.07710152  0.42380678  1  0  0.021479  0  3.702667  0  0  0.004083  0  3.949794  0  0  0.009078  0  3.966997  0  0  -0.069156  0.001148  0  3.937916  0
C  C45  1  0.76043813  0.42289870  0.92380701  1  0  0.021411  0  3.702634  0  0  0.004005  0  3.949761  0  0  0.009001  0  3.966965  0  0  -0.069176  0.001066  0  3.937882  0
C  C46  1  0.26043685  0.92289866  0.57619365  1  0  0.021475  0  3.702666  0  0  0.00405  0  3.949797  0  0  0.00905  0  3.966993  0  0  -0.069147  0.001108  0  3.937918  0
C  C47  1  0.23956299  0.57710237  0.07619266  1  0  0.021396  0  3.702707  0  0  0.003993  0  3.949834  0  0  0.008988  0  3.967041  0  0  -0.069172  0.001057  0  3.937958  0
C  C48  1  0.89643928  0.08055051  0.41671344  1  0  -0.130643  0  3.735679  0  0  -0.145076  0  3.990113  0  0  -0.152095  0  4.011075  0  0  -0.093041  -0.140628  0  3.976056  0
C  C49  1  0.60355949  0.41944972  0.91671291  1  0  -0.13059  0  3.735623  0  0  -0.14501  0  3.990037  0  0  -0.152029  0  4.011  0  0  -0.093022  -0.140563  0  3.975979  0
C  C50  1  0.10355821  0.91944968  0.58328624  1  0  -0.130527  0  3.735664  0  0  -0.144926  0  3.990061  0  0  -0.151944  0  4.011024  0  0  -0.093001  -0.140479  0  3.976008  0
C  C51  1  0.39644024  0.58055046  0.08328676  1  0  -0.130585  0  3.735655  0  0  -0.14501  0  3.990085  0  0  -0.152031  0  4.011048  0  0  -0.093033  -0.140564  0  3.976028  0
C  C52  1  0.94612422  0.01468892  0.34032875  1  0  0.135678  0  3.710675  0  0  0.104941  0  3.968277  0  0  0.112801  0  3.985944  0  0  0.041124  0.099826  0  3.956294  0
C  C53  1  0.55387679  0.48531131  0.84032900  1  0  0.135664  0  3.710689  0  0  0.104932  0  3.96828  0  0  0.112791  0  3.985948  0  0  0.04114  0.099816  0  3.956293  0
C  C54  1  0.05387662  0.98531126  0.65967092  1  0  0.135585  0  3.710757  0  0  0.104842  0  3.968347  0  0  0.112701  0  3.986015  0  0  0.041106  0.099728  0  3.956364  0
C  C55  1  0.44612294  0.51468888  0.15967144  1  0  0.13571  0  3.710708  0  0  0.10495  0  3.968303  0  0  0.11281  0  3.985971  0  0  0.041143  0.099835  0  3.956317  0
C  C56  1  0.01880404  0.72290008  0.34061835  1  0  0.137348  0  3.708202  0  0  0.108728  0  3.963937  0  0  0.116578  0  3.98037  0  0  0.039055  0.103561  0  3.952863  0
C  C57  1  0.48119662  0.77710006  0.84061856  1  0  0.137433  0  3.708062  0  0  0.108815  0  3.963807  0  0  0.116666  0  3.980233  0  0  0.039084  0.103651  0  3.95273  0
C  C58  1  0.98119708  0.27710099  0.65938132  1  0  0.137354  0  3.708197  0  0  0.108732  0  3.963927  0  0  0.116583  0  3.980352  0  0  0.03902  0.103566  0  3.952849  0
C  C59  1  0.51880364  0.22290190  0.15938111  1  0  0.137403  0  3.708064  0  0  0.108791  0  3.963806  0  0  0.116641  0  3.980235  0  0  0.039072  0.103628  0  3.952725  0
C  C60  1  0.06555986  0.65034528  0.41290582  1  0  -0.137649  0  3.751897  0  0  -0.151832  0  4.005398  0  0  -0.15846  0  4.026189  0  0  -0.097556  -0.147605  0  3.991472  0
C  C61  1  0.43444053  0.84965397  0.91290527  1  0  -0.137682  0  3.751857  0  0  -0.151857  0  4.005369  0  0  -0.158484  0  4.02616  0  0  -0.097585  -0.147634  0  3.991451  0
C  C62  1  0.93443987  0.34965490  0.58709538  1  0  -0.137683  0  3.751919  0  0  -0.151825  0  4.005395  0  0  -0.15845  0  4.026186  0  0  -0.097561  -0.147602  0  3.991473  0
C  C63  1  0.56556032  0.15034621  0.08709516  1  0  -0.137653  0  3.751836  0  0  -0.151821  0  4.005343  0  0  -0.158445  0  4.026136  0  0  -0.097577  -0.147599  0  3.991424  0
C  C64  1  0.22075759  0.64704863  0.41655802  1  0  -0.005524  0  3.744877  0  0  -0.021852  0  3.99499  0  0  -0.018634  0  4.014679  0  0  -0.077071  -0.023643  0  3.981504  0
C  C65  1  0.27924391  0.85295062  0.91655748  1  0  -0.005547  0  3.744884  0  0  -0.021855  0  3.994947  0  0  -0.018643  0  4.014641  0  0  -0.077064  -0.023645  0  3.981466  0
C  C66  1  0.77924438  0.35295155  0.58344165  1  0  -0.005463  0  3.744836  0  0  -0.021777  0  3.994887  0  0  -0.01856  0  4.014576  0  0  -0.077036  -0.023567  0  3.981398  0
C  C67  1  0.72075582  0.14704956  0.08344295  1  0  -0.005563  0  3.744891  0  0  -0.021878  0  3.994959  0  0  -0.018661  0  4.014648  0  0  -0.077067  -0.023671  0  3.981478  0
C  C68  1  0.32461262  0.71808358  0.35027577  1  0  -0.159837  0  3.722652  0  0  -0.174648  0  3.966238  0  0  -0.183058  0  3.988318  0  0  -0.09621  -0.169176  0  3.95139  0
C  C69  1  0.17538750  0.78191478  0.85027600  1  0  -0.159795  0  3.722677  0  0  -0.174633  0  3.966254  0  0  -0.183041  0  3.988333  0  0  -0.096196  -0.16916  0  3.951408  0
C  C70  1  0.67538407  0.28191394  0.64972314  1  0  -0.159865  0  3.722659  0  0  -0.17468  0  3.966248  0  0  -0.183088  0  3.988327  0  0  -0.096216  -0.169207  0  3.951397  0
C  C71  1  0.82461585  0.21808629  0.14972444  1  0  -0.159851  0  3.722583  0  0  -0.174661  0  3.966169  0  0  -0.18307  0  3.988249  0  0  -0.096204  -0.169189  0  3.951323  0
C  C72  1  0.26683053  0.78907927  0.28114369  1  0  0.195368  0  3.779161  0  0  0.197605  0  4.040749  0  0  0.207521  0  4.060213  0  0  0.111356  0.190838  0  4.027552  0
C  C73  1  0.23317072  0.71091908  0.78114315  1  0  0.195371  0  3.779187  0  0  0.1976  0  4.040793  0  0  0.207517  0  4.060256  0  0  0.111345  0.190834  0  4.027594  0
C  C74  1  0.73317117  0.21092002  0.71885674  1  0  0.195401  0  3.779181  0  0  0.197657  0  4.040736  0  0  0.207574  0  4.060199  0  0  0.111391  0.19089  0  4.027537  0
C  C75  1  0.76682928  0.28908199  0.21885728  1  0  0.195405  0  3.779211  0  0  0.197644  0  4.040787  0  0  0.207561  0  4.06025  0  0  0.111373  0.190877  0  4.027587  0
S  S76  1  0.37923458  0.88865648  0.19202391  1  0  0.005827  0  2.530578  0  0  0.005937  0  2.905843  0  0  0.002466  0  2.906016  0  0  0.054879  0.008623  0  2.905787  0
S  S77  1  0.12076582  0.61134277  0.69202338  1  0  0.00585  0  2.530563  0  0  0.005966  0  2.905816  0  0  0.002494  0  2.905989  0  0  0.054898  0.008653  0  2.905758  0
S  S78  1  0.62076600  0.11134281  0.80797576  1  0  0.00585  0  2.530526  0  0  0.005955  0  2.905768  0  0  0.002484  0  2.905941  0  0  0.054884  0.00864  0  2.905712  0
S  S79  1  0.87923391  0.38865742  0.30797706  1  0  0.005818  0  2.530594  0  0  0.005929  0  2.905839  0  0  0.002457  0  2.906012  0  0  0.054879  0.008614  0  2.90578  0
S  S80  1  0.58689378  0.84586335  0.19095255  1  0  -0.001393  0  2.511882  0  0  -0.004023  0  2.88571  0  0  -0.007169  0  2.885333  0  0  0.051742  -0.001602  0  2.886055  0
S  S81  1  0.91310615  0.65413602  0.69095352  1  0  -0.001484  0  2.511867  0  0  -0.004095  0  2.885719  0  0  -0.007245  0  2.885338  0  0  0.05171  -0.001676  0  2.886064  0
S  S82  1  0.41310542  0.15413505  0.80904636  1  0  -0.001491  0  2.511838  0  0  -0.004091  0  2.88569  0  0  -0.007241  0  2.885308  0  0  0.051713  -0.00167  0  2.886034  0
S  S83  1  0.08689358  0.34586416  0.30904615  1  0  -0.001463  0  2.511859  0  0  -0.004066  0  2.885699  0  0  -0.007217  0  2.885317  0  0  0.051717  -0.001648  0  2.886043  0
N  N84  1  0.84833521  0.94719074  0.27429951  1  0  -0.345786  0  3.235749  0  0  -0.273009  0  3.488871  0  0  -0.294262  0  3.509232  0  0  -0.316051  -0.258427  0  3.474637  0
N  N85  1  0.65166636  0.55281041  0.77430049  1  0  -0.34577  0  3.235684  0  0  -0.272975  0  3.488807  0  0  -0.294235  0  3.509177  0  0  -0.316035  -0.258393  0  3.474572  0
N  N86  1  0.15166452  0.05280944  0.72569940  1  0  -0.345812  0  3.235728  0  0  -0.272987  0  3.48882  0  0  -0.294259  0  3.509214  0  0  -0.316038  -0.258404  0  3.474586  0
N  N87  1  0.34833364  0.44719066  0.22569995  1  0  -0.345803  0  3.235731  0  0  -0.272994  0  3.488853  0  0  -0.294258  0  3.509224  0  0  -0.31603  -0.258413  0  3.474618  0
N  N88  1  0.11756787  0.79108434  0.27567262  1  0  -0.348341  0  3.205539  0  0  -0.283675  0  3.462767  0  0  -0.303032  0  3.481263  0  0  -0.315963  -0.270324  0  3.449941  0
N  N89  1  0.38243337  0.70891401  0.77567284  1  0  -0.348345  0  3.205502  0  0  -0.283688  0  3.462734  0  0  -0.303045  0  3.48123  0  0  -0.315972  -0.270337  0  3.449906  0
N  N90  1  0.88243186  0.20891585  0.72432781  1  0  -0.348337  0  3.20556  0  0  -0.283689  0  3.462787  0  0  -0.303045  0  3.481281  0  0  -0.315957  -0.270339  0  3.449961  0
N  N91  1  0.61756859  0.29108616  0.22432760  1  0  -0.348349  0  3.205593  0  0  -0.283695  0  3.46283  0  0  -0.303052  0  3.481327  0  0  -0.315969  -0.270343  0  3.449999  0
Cl  Cl92  1  0.13923837  0.06544482  0.09993695  1  0  -0.462134  0  1.074052  0  0  -0.400285  0  1.374639  0  0  -0.419914  0  1.355581  0  0  -0.250547  -0.386708  0  1.387596  0
Cl  Cl93  1  0.36076066  0.43455438  0.59993717  1  0  -0.46213  0  1.074036  0  0  -0.400282  0  1.374615  0  0  -0.419909  0  1.355555  0  0  -0.250548  -0.386709  0  1.387568  0
Cl  Cl94  1  0.86076109  0.93455447  0.90006348  1  0  -0.462125  0  1.074027  0  0  -0.400281  0  1.374618  0  0  -0.419906  0  1.355557  0  0  -0.250542  -0.386703  0  1.387576  0
Cl  Cl95  1  0.63923880  0.56544491  0.40006326  1  0  -0.462125  0  1.074031  0  0  -0.400284  0  1.37462  0  0  -0.419911  0  1.355561  0  0  -0.25055  -0.38671  0  1.387573  0
Cl  Cl96  1  0.84405363  0.67292085  0.07912706  1  0  -0.44694  0  0.971517  0  0  -0.385322  0  1.238573  0  0  -0.403734  0  1.223938  0  0  -0.269607  -0.372856  0  1.248532  0
Cl  Cl97  1  0.65594657  0.82707941  0.57912729  1  0  -0.446957  0  0.971527  0  0  -0.38534  0  1.238583  0  0  -0.403754  0  1.223948  0  0  -0.269611  -0.37288  0  1.248551  0
Cl  Cl98  1  0.15594583  0.32707844  0.92087337  1  0  -0.446951  0  0.971529  0  0  -0.385337  0  1.238588  0  0  -0.403749  0  1.223952  0  0  -0.269611  -0.372873  0  1.248549  0
Cl  Cl99  1  0.34405316  0.17292077  0.42087314  1  0  -0.446944  0  0.971516  0  0  -0.385325  0  1.238567  0  0  -0.403738  0  1.22393  0  0  -0.269609  -0.372865  0  1.248531  0
