# generated using pymatgen
data_TbH7C7SO8
_symmetry_space_group_name_H-M   'P 1'
_cell_length_a   8.72435685
_cell_length_b   8.95059416
_cell_length_c   14.06857454
_cell_angle_alpha   101.84052963
_cell_angle_beta   89.99994512
_cell_angle_gamma   89.99999332
_symmetry_Int_Tables_number   1
_chemical_formula_structural   TbH7C7SO8
_chemical_formula_sum   'Tb4 H28 C28 S4 O32'
_cell_volume   1075.21409737
_cell_formula_units_Z   4
loop_
 _symmetry_equiv_pos_site_id
 _symmetry_equiv_pos_as_xyz
  1  'x, y, z'
loop_
 _atom_site_type_symbol
 _atom_site_label
 _atom_site_symmetry_multiplicity
 _atom_site_fract_x
 _atom_site_fract_y
 _atom_site_fract_z
 _atom_site_occupancy
 _atom_site_hle17_bader_spin_density
 _atom_site_hle17_ddec_charge
 _atom_site_hle17_ddec_spin_density
 _atom_site_hle17_ddec_sum_bond_order
 _atom_site_hle17_magmom
 _atom_site_hse06_10hf_bader_spin_density
 _atom_site_hse06_10hf_ddec_charge
 _atom_site_hse06_10hf_ddec_spin_density
 _atom_site_hse06_10hf_ddec_sum_bond_order
 _atom_site_hse06_10hf_magmom
 _atom_site_hse06_bader_spin_density
 _atom_site_hse06_ddec_charge
 _atom_site_hse06_ddec_spin_density
 _atom_site_hse06_ddec_sum_bond_order
 _atom_site_hse06_magmom
 _atom_site_pbe_bader_spin_density
 _atom_site_pbe_cm5_charge
 _atom_site_pbe_ddec_charge
 _atom_site_pbe_ddec_spin_density
 _atom_site_pbe_ddec_sum_bond_order
 _atom_site_pbe_magmom
Tb  Tb0  1  0.53738384  0.26281765  0.22088749  1  0  2.304544  0  1.624329  0  0  2.161964  0  2.087806  0  0  2.279376  0  1.912319  0  0  1.533636  2.12973  0  2.117605  0
Tb  Tb1  1  0.03738476  0.23718196  0.27911333  1  0  2.304537  0  1.624317  0  0  2.161975  0  2.087769  0  0  2.279377  0  1.912309  0  0  1.533634  2.129741  0  2.11757  0
Tb  Tb2  1  0.46261569  0.73718271  0.77911291  1  0  2.304544  0  1.624286  0  0  2.16199  0  2.087735  0  0  2.279392  0  1.912271  0  0  1.533642  2.129759  0  2.117533  0
Tb  Tb3  1  0.96261591  0.76281725  0.72088622  1  0  2.304555  0  1.624296  0  0  2.161988  0  2.087751  0  0  2.279396  0  1.91228  0  0  1.533647  2.129758  0  2.117549  0
H  H4  1  0.31502143  0.59610694  0.04193367  1  0  0.119513  0  0.935375  0  0  0.129536  0  0.993864  0  0  0.134175  0  0.98853  0  0  0.114141  0.126374  0  0.997281  0
H  H5  1  0.81502357  0.90389445  0.45806491  1  0  0.119493  0  0.935353  0  0  0.129529  0  0.99383  0  0  0.134167  0  0.988496  0  0  0.11414  0.126362  0  0.997253  0
H  H6  1  0.68497466  0.40389457  0.95806688  1  0  0.119498  0  0.935343  0  0  0.129518  0  0.993841  0  0  0.134157  0  0.988504  0  0  0.114129  0.126355  0  0.99726  0
H  H7  1  0.18498055  0.09610589  0.54193407  1  0  0.119484  0  0.935443  0  0  0.129545  0  0.993884  0  0  0.134169  0  0.988567  0  0  0.114146  0.126367  0  0.997323  0
H  H8  1  0.86603968  0.80025311  0.05671356  1  0  0.108294  0  0.939306  0  0  0.117827  0  0.999045  0  0  0.121524  0  0.995472  0  0  0.109872  0.115292  0  1.001022  0
H  H9  1  0.36604150  0.69974947  0.44328797  1  0  0.108282  0  0.939279  0  0  0.117811  0  0.999027  0  0  0.121507  0  0.995455  0  0  0.109872  0.115276  0  1.001004  0
H  H10  1  0.13395870  0.19974841  0.94328770  1  0  0.108319  0  0.939258  0  0  0.117849  0  0.999001  0  0  0.121546  0  0.995428  0  0  0.109888  0.115313  0  1.000979  0
H  H11  1  0.63396032  0.30025321  0.55671413  1  0  0.108267  0  0.939325  0  0  0.1178  0  0.999067  0  0  0.121496  0  0.995494  0  0  0.109859  0.115264  0  1.001044  0
H  H12  1  0.79526417  0.66433048  0.18797832  1  0  0.123405  0  0.933663  0  0  0.136578  0  0.985608  0  0  0.140462  0  0.984308  0  0  0.112033  0.134126  0  0.986092  0
H  H13  1  0.29526503  0.83566871  0.31202355  1  0  0.123367  0  0.933701  0  0  0.136535  0  0.985656  0  0  0.140439  0  0.984333  0  0  0.112033  0.134083  0  0.986139  0
H  H14  1  0.20473192  0.33566993  0.81202423  1  0  0.123372  0  0.93366  0  0  0.136538  0  0.985616  0  0  0.14044  0  0.984296  0  0  0.112042  0.134086  0  0.986099  0
H  H15  1  0.70473679  0.16433171  0.68797970  1  0  0.123401  0  0.933649  0  0  0.136609  0  0.985553  0  0  0.140492  0  0.984256  0  0  0.112054  0.134157  0  0.986036  0
H  H16  1  0.44824505  0.20575489  0.01769941  1  0  0.450235  0  0.793871  0  0  0.43739  0  0.837324  0  0  0.444989  0  0.829655  0  0  0.343886  0.432056  0  0.843253  0
H  H17  1  0.94824487  0.29424686  0.48230071  1  0  0.450255  0  0.793855  0  0  0.43741  0  0.837308  0  0  0.445009  0  0.829631  0  0  0.343889  0.432076  0  0.843236  0
H  H18  1  0.55175562  0.79424661  0.98230113  1  0  0.450241  0  0.793888  0  0  0.437397  0  0.83734  0  0  0.444996  0  0.829652  0  0  0.34389  0.432063  0  0.843268  0
H  H19  1  0.05175466  0.70575463  0.51769912  1  0  0.450232  0  0.793871  0  0  0.437388  0  0.837323  0  0  0.444987  0  0.829658  0  0  0.343881  0.432054  0  0.843252  0
H  H20  1  0.36378151  0.05982202  0.03809597  1  0  0.463862  0  0.822947  0  0  0.433452  0  0.884129  0  0  0.444452  0  0.867876  0  0  0.313406  0.425866  0  0.895348  0
H  H21  1  0.86378249  0.44017861  0.46190336  1  0  0.463858  0  0.822958  0  0  0.433436  0  0.884161  0  0  0.444435  0  0.867907  0  0  0.313387  0.425849  0  0.895381  0
H  H22  1  0.63621802  0.94017946  0.96190315  1  0  0.463861  0  0.82295  0  0  0.433445  0  0.884142  0  0  0.444443  0  0.86789  0  0  0.313404  0.425859  0  0.89536  0
H  H23  1  0.13621704  0.55982173  0.53809562  1  0  0.463845  0  0.822973  0  0  0.43343  0  0.884166  0  0  0.44443  0  0.867911  0  0  0.313394  0.425844  0  0.895385  0
H  H24  1  0.66971324  0.50453341  0.36797694  1  0  0.432993  0  0.866785  0  0  0.404323  0  0.927512  0  0  0.413919  0  0.913826  0  0  0.301585  0.397576  0  0.937326  0
H  H25  1  0.16971435  0.99546806  0.13202315  1  0  0.4329  0  0.866901  0  0  0.404293  0  0.927548  0  0  0.41389  0  0.913861  0  0  0.301579  0.397546  0  0.937363  0
H  H26  1  0.33028744  0.49546695  0.63202346  1  0  0.432882  0  0.866927  0  0  0.404273  0  0.927575  0  0  0.413869  0  0.913889  0  0  0.301551  0.397525  0  0.937391  0
H  H27  1  0.83028747  0.00453342  0.86797597  1  0  0.432881  0  0.866933  0  0  0.404268  0  0.927587  0  0  0.413863  0  0.913903  0  0  0.301559  0.397521  0  0.937402  0
H  H28  1  0.78831574  0.48785150  0.27991381  1  0  0.430549  0  0.878953  0  0  0.399016  0  0.944081  0  0  0.410764  0  0.927551  0  0  0.295558  0.390566  0  0.9563  0
H  H29  1  0.28831678  0.01215031  0.22008642  1  0  0.430569  0  0.878924  0  0  0.39906  0  0.944024  0  0  0.410803  0  0.9275  0  0  0.295571  0.390607  0  0.956249  0
H  H30  1  0.21168378  0.51215117  0.72008759  1  0  0.43057  0  0.878921  0  0  0.399055  0  0.944032  0  0  0.410798  0  0.927507  0  0  0.29556  0.390601  0  0.95626  0
H  H31  1  0.71168274  0.98784889  0.77991242  1  0  0.430537  0  0.87896  0  0  0.399075  0  0.944004  0  0  0.410794  0  0.927497  0  0  0.295582  0.390619  0  0.956233  0
C  C32  1  0.28848872  0.44360962  0.17743924  1  0  0.696715  0  3.885278  0  0  0.650692  0  4.173438  0  0  0.686424  0  4.171868  0  0  0.204366  0.625733  0  4.180727  0
C  C33  1  0.78848996  0.05638989  0.32256000  1  0  0.696682  0  3.885213  0  0  0.650668  0  4.173365  0  0  0.686399  0  4.171796  0  0  0.204354  0.625708  0  4.180656  0
C  C34  1  0.71151080  0.55639190  0.82256202  1  0  0.696688  0  3.885164  0  0  0.650691  0  4.173293  0  0  0.686422  0  4.171723  0  0  0.204367  0.625732  0  4.180583  0
C  C35  1  0.21151071  0.94360701  0.67743785  1  0  0.696619  0  3.885281  0  0  0.650644  0  4.173376  0  0  0.686374  0  4.171808  0  0  0.204346  0.625685  0  4.180665  0
C  C36  1  0.16430079  0.53624347  0.14823491  1  0  -0.215624  0  3.715017  0  0  -0.195046  0  3.958174  0  0  -0.212254  0  3.980402  0  0  -0.033113  -0.183453  0  3.942236  0
C  C37  1  0.66430422  0.96375457  0.35176477  1  0  -0.215664  0  3.715082  0  0  -0.195112  0  3.958259  0  0  -0.212314  0  3.980492  0  0  -0.033121  -0.183519  0  3.942324  0
C  C38  1  0.83569530  0.46375575  0.85176536  1  0  -0.215665  0  3.715033  0  0  -0.1951  0  3.958212  0  0  -0.212303  0  3.980441  0  0  -0.033131  -0.183508  0  3.942278  0
C  C39  1  0.33569874  0.03624350  0.64823464  1  0  -0.215588  0  3.715037  0  0  -0.195018  0  3.958182  0  0  -0.212222  0  3.980407  0  0  -0.033103  -0.183423  0  3.942239  0
C  C40  1  0.20109553  0.61263344  0.07382131  1  0  -0.018526  0  3.740101  0  0  -0.059169  0  3.991137  0  0  -0.050516  0  4.006667  0  0  -0.073108  -0.064599  0  3.979473  0
C  C41  1  0.70109542  0.88736573  0.42617777  1  0  -0.018481  0  3.740194  0  0  -0.059151  0  3.991232  0  0  -0.050497  0  4.006761  0  0  -0.073139  -0.064576  0  3.97957  0
C  C42  1  0.79890400  0.38736578  0.92617824  1  0  -0.018525  0  3.740232  0  0  -0.05917  0  3.991264  0  0  -0.050517  0  4.006796  0  0  -0.073142  -0.0646  0  3.979602  0
C  C43  1  0.29890525  0.11263233  0.57382093  1  0  -0.01852  0  3.740239  0  0  -0.059202  0  3.991269  0  0  -0.050535  0  4.006805  0  0  -0.073126  -0.06462  0  3.979611  0
C  C44  1  0.09435989  0.70352727  0.04001296  1  0  -0.186856  0  3.805009  0  0  -0.160117  0  4.063376  0  0  -0.173339  0  4.086352  0  0  -0.03668  -0.151289  0  4.047068  0
C  C45  1  0.59435974  0.79647422  0.45998717  1  0  -0.186989  0  3.805089  0  0  -0.160205  0  4.063421  0  0  -0.173429  0  4.086396  0  0  -0.036711  -0.151378  0  4.047113  0
C  C46  1  0.90564078  0.29647418  0.95998473  1  0  -0.186895  0  3.805047  0  0  -0.160133  0  4.063383  0  0  -0.173363  0  4.086376  0  0  -0.036671  -0.151308  0  4.047074  0
C  C47  1  0.40563979  0.20352499  0.54001238  1  0  -0.186869  0  3.805028  0  0  -0.160117  0  4.063387  0  0  -0.173341  0  4.086362  0  0  -0.036696  -0.151289  0  4.047073  0
C  C48  1  0.94775686  0.72522489  0.08233189  1  0  -0.001073  0  3.729373  0  0  -0.031715  0  3.987393  0  0  -0.024209  0  4.003084  0  0  -0.072295  -0.035445  0  3.97525  0
C  C49  1  0.44775756  0.77477648  0.41766731  1  0  -0.000989  0  3.729323  0  0  -0.031636  0  3.987322  0  0  -0.02413  0  4.003018  0  0  -0.072267  -0.035367  0  3.975187  0
C  C50  1  0.05224267  0.27477660  0.91766794  1  0  -0.001049  0  3.729323  0  0  -0.031691  0  3.987331  0  0  -0.024186  0  4.003024  0  0  -0.072298  -0.035423  0  3.975193  0
C  C51  1  0.55224196  0.22522502  0.58233252  1  0  -0.001014  0  3.729361  0  0  -0.031659  0  3.987376  0  0  -0.024152  0  4.003067  0  0  -0.072275  -0.03539  0  3.975239  0
C  C52  1  0.90946516  0.65063241  0.15585948  1  0  -0.187958  0  3.658577  0  0  -0.205374  0  3.914457  0  0  -0.215525  0  3.931887  0  0  -0.097973  -0.198643  0  3.901489  0
C  C53  1  0.40946711  0.84936898  0.34414046  1  0  -0.187935  0  3.658635  0  0  -0.205358  0  3.914504  0  0  -0.21552  0  3.931932  0  0  -0.097992  -0.198626  0  3.901535  0
C  C54  1  0.09053207  0.34937023  0.84414049  1  0  -0.187969  0  3.658576  0  0  -0.205373  0  3.91447  0  0  -0.215537  0  3.931894  0  0  -0.097994  -0.19864  0  3.901498  0
C  C55  1  0.59053471  0.15063252  0.65586009  1  0  -0.187984  0  3.658545  0  0  -0.205423  0  3.914427  0  0  -0.215573  0  3.931863  0  0  -0.09798  -0.198692  0  3.901459  0
C  C56  1  0.01400658  0.55104481  0.18983067  1  0  0.409188  0  3.804373  0  0  0.387492  0  4.068357  0  0  0.4084  0  4.081614  0  0  0.1063  0.373992  0  4.059944  0
C  C57  1  0.51400894  0.94895443  0.31016924  1  0  0.409222  0  3.804358  0  0  0.387568  0  4.068278  0  0  0.408457  0  4.081565  0  0  0.106327  0.374068  0  4.059867  0
C  C58  1  0.98599180  0.44895671  0.81017059  1  0  0.409289  0  3.8043  0  0  0.387571  0  4.06831  0  0  0.40847  0  4.081583  0  0  0.1063  0.374071  0  4.059897  0
C  C59  1  0.48599174  0.05104249  0.68982932  1  0  0.409231  0  3.804267  0  0  0.387527  0  4.068274  0  0  0.408429  0  4.08154  0  0  0.106293  0.374026  0  4.059863  0
S  S60  1  0.15215714  0.80193223  0.95055582  1  0  1.399629  0  5.533544  0  0  1.293127  0  6.056329  0  0  1.343114  0  6.036393  0  0  0.55699  1.258994  0  6.073692  0
S  S61  1  0.65215993  0.69806901  0.54944579  1  0  1.399655  0  5.533516  0  0  1.293106  0  6.056323  0  0  1.343092  0  6.036393  0  0  0.557  1.258975  0  6.073684  0
S  S62  1  0.84784124  0.19806813  0.04944458  1  0  1.399519  0  5.533547  0  0  1.292979  0  6.056362  0  0  1.342965  0  6.036429  0  0  0.556954  1.258849  0  6.073715  0
S  S63  1  0.34784075  0.30193136  0.45055462  1  0  1.399576  0  5.533614  0  0  1.293057  0  6.056416  0  0  1.343043  0  6.036484  0  0  0.556951  1.258925  0  6.073774  0
O  O64  1  0.26324671  0.34717386  0.23383040  1  0  -0.866289  0  2.132679  0  0  -0.807177  0  2.395754  0  0  -0.850566  0  2.381166  0  0  -0.457722  -0.790392  0  2.404916  0
O  O65  1  0.76324573  0.15282678  0.26616828  1  0  -0.866236  0  2.132515  0  0  -0.807131  0  2.395595  0  0  -0.850518  0  2.381006  0  0  -0.457708  -0.790349  0  2.404766  0
O  O66  1  0.73675282  0.65282649  0.76616929  1  0  -0.866249  0  2.132543  0  0  -0.807147  0  2.39561  0  0  -0.850536  0  2.381023  0  0  -0.457677  -0.790362  0  2.404775  0
O  O67  1  0.23675150  0.84717356  0.73383070  1  0  -0.866235  0  2.13258  0  0  -0.807141  0  2.395637  0  0  -0.850528  0  2.381049  0  0  -0.457682  -0.790357  0  2.404805  0
O  O68  1  0.42420419  0.45532400  0.14702748  1  0  -0.676557  0  1.93906  0  0  -0.630299  0  2.167561  0  0  -0.661062  0  2.155015  0  0  -0.379355  -0.614416  0  2.174954  0
O  O69  1  0.92420309  0.04467545  0.35297095  1  0  -0.676551  0  1.939127  0  0  -0.630296  0  2.167614  0  0  -0.66106  0  2.155073  0  0  -0.379373  -0.614415  0  2.175012  0
O  O70  1  0.57579533  0.54467635  0.85297221  1  0  -0.67656  0  1.939067  0  0  -0.630307  0  2.167552  0  0  -0.66107  0  2.155006  0  0  -0.379386  -0.614425  0  2.174947  0
O  O71  1  0.07579758  0.95532259  0.64702703  1  0  -0.676535  0  1.939102  0  0  -0.630297  0  2.167586  0  0  -0.661058  0  2.155038  0  0  -0.379374  -0.614415  0  2.174982  0
O  O72  1  0.96982943  0.47610956  0.25692809  1  0  -0.747668  0  2.072123  0  0  -0.684341  0  2.313605  0  0  -0.720306  0  2.302667  0  0  -0.43234  -0.665984  0  2.318396  0
O  O73  1  0.46982929  0.02388876  0.24307161  1  0  -0.747693  0  2.072078  0  0  -0.684386  0  2.313536  0  0  -0.720347  0  2.302609  0  0  -0.432347  -0.666026  0  2.318331  0
O  O74  1  0.03017125  0.52388968  0.74307289  1  0  -0.747707  0  2.072084  0  0  -0.684372  0  2.313562  0  0  -0.720335  0  2.30263  0  0  -0.432329  -0.666012  0  2.318356  0
O  O75  1  0.53017024  0.97611046  0.75692866  1  0  -0.74766  0  2.072019  0  0  -0.684371  0  2.313509  0  0  -0.720322  0  2.302565  0  0  -0.432345  -0.66601  0  2.318305  0
O  O76  1  0.27819513  0.71118951  0.89728266  1  0  -0.76043  0  2.064237  0  0  -0.703226  0  2.342492  0  0  -0.73534  0  2.326762  0  0  -0.398802  -0.687982  0  2.352691  0
O  O77  1  0.77819668  0.78881169  0.60271887  1  0  -0.760427  0  2.064382  0  0  -0.70319  0  2.342607  0  0  -0.735307  0  2.326882  0  0  -0.398785  -0.687944  0  2.352804  0
O  O78  1  0.72180325  0.28880973  0.10271831  1  0  -0.760373  0  2.064407  0  0  -0.703138  0  2.342629  0  0  -0.735254  0  2.326899  0  0  -0.398764  -0.687892  0  2.352824  0
O  O79  1  0.22180400  0.21118755  0.39728211  1  0  -0.760412  0  2.064417  0  0  -0.703193  0  2.342662  0  0  -0.735306  0  2.326933  0  0  -0.398755  -0.687947  0  2.352856  0
O  O80  1  0.20305904  0.95522366  0.00068386  1  0  -0.685317  0  2.002656  0  0  -0.62302  0  2.245934  0  0  -0.644195  0  2.228669  0  0  -0.317915  -0.607822  0  2.257163  0
O  O81  1  0.70305886  0.54477555  0.49931735  1  0  -0.685318  0  2.002595  0  0  -0.622968  0  2.245852  0  0  -0.644139  0  2.228583  0  0  -0.317903  -0.60777  0  2.257078  0
O  O82  1  0.79694049  0.04477558  0.99931711  1  0  -0.685287  0  2.002618  0  0  -0.622955  0  2.24588  0  0  -0.644122  0  2.22861  0  0  -0.317916  -0.607757  0  2.257106  0
O  O83  1  0.29694296  0.45522369  0.50068362  1  0  -0.685283  0  2.002598  0  0  -0.622974  0  2.245876  0  0  -0.644147  0  2.22861  0  0  -0.317901  -0.607776  0  2.257103  0
O  O84  1  0.01805905  0.81240856  0.88846051  1  0  -0.760293  0  2.076402  0  0  -0.707626  0  2.362641  0  0  -0.73967  0  2.346286  0  0  -0.401434  -0.691884  0  2.371201  0
O  O85  1  0.51806060  0.68759270  0.61153975  1  0  -0.760288  0  2.076411  0  0  -0.707638  0  2.362697  0  0  -0.739679  0  2.346343  0  0  -0.401442  -0.691893  0  2.371253  0
O  O86  1  0.98194048  0.18759181  0.11153989  1  0  -0.760246  0  2.076393  0  0  -0.70759  0  2.36266  0  0  -0.739631  0  2.346305  0  0  -0.401413  -0.691845  0  2.371211  0
O  O87  1  0.48194122  0.31240767  0.38846065  1  0  -0.760302  0  2.076422  0  0  -0.707639  0  2.362667  0  0  -0.73968  0  2.34631  0  0  -0.401453  -0.691894  0  2.371222  0
O  O88  1  0.67605875  0.47942675  0.29653453  1  0  -0.922535  0  1.873838  0  0  -0.877717  0  2.070538  0  0  -0.907829  0  2.03587  0  0  -0.658039  -0.863774  0  2.091482  0
O  O89  1  0.17605981  0.02057394  0.20346563  1  0  -0.922451  0  1.87393  0  0  -0.877717  0  2.070499  0  0  -0.907826  0  2.035847  0  0  -0.65805  -0.863771  0  2.091445  0
O  O90  1  0.32394078  0.52057363  0.70346659  1  0  -0.922448  0  1.873965  0  0  -0.877693  0  2.070507  0  0  -0.9078  0  2.035855  0  0  -0.658014  -0.863747  0  2.091455  0
O  O91  1  0.82393972  0.97942639  0.79653335  1  0  -0.922436  0  1.874002  0  0  -0.877733  0  2.070491  0  0  -0.907815  0  2.035898  0  0  -0.658051  -0.863788  0  2.091443  0
O  O92  1  0.44025474  0.13969597  0.06435133  1  0  -0.909793  0  1.862979  0  0  -0.866584  0  2.059573  0  0  -0.892798  0  2.026325  0  0  -0.632982  -0.85464  0  2.078916  0
O  O93  1  0.94025462  0.36030349  0.43564781  1  0  -0.909819  0  1.862981  0  0  -0.866609  0  2.059584  0  0  -0.892824  0  2.026332  0  0  -0.632973  -0.854665  0  2.078929  0
O  O94  1  0.55974593  0.86030439  0.93564907  1  0  -0.909802  0  1.862997  0  0  -0.866595  0  2.059602  0  0  -0.89281  0  2.026338  0  0  -0.632979  -0.854651  0  2.078946  0
O  O95  1  0.05974376  0.63969571  0.56435103  1  0  -0.909785  0  1.862999  0  0  -0.866586  0  2.059612  0  0  -0.892802  0  2.026368  0  0  -0.632973  -0.854643  0  2.078957  0
