# generated using pymatgen
data_ZnHC15N3O4F9
_symmetry_space_group_name_H-M   'P 1'
_cell_length_a   11.32759208
_cell_length_b   15.98247764
_cell_length_c   17.17048433
_cell_angle_alpha   86.14889295
_cell_angle_beta   86.79803921
_cell_angle_gamma   68.62908065
_symmetry_Int_Tables_number   1
_chemical_formula_structural   ZnHC15N3O4F9
_chemical_formula_sum   'Zn2 H2 C30 N6 O8 F18'
_cell_volume   2886.66698106
_cell_formula_units_Z   2
loop_
 _symmetry_equiv_pos_site_id
 _symmetry_equiv_pos_as_xyz
  1  'x, y, z'
loop_
 _atom_site_type_symbol
 _atom_site_label
 _atom_site_symmetry_multiplicity
 _atom_site_fract_x
 _atom_site_fract_y
 _atom_site_fract_z
 _atom_site_occupancy
 _atom_site_pbe_bader_charge
 _atom_site_pbe_bader_spin_density
 _atom_site_pbe_cm5_charge
 _atom_site_pbe_ddec_charge
 _atom_site_pbe_ddec_spin_density
 _atom_site_pbe_ddec_sum_bond_order
 _atom_site_pbe_magmom
Zn  Zn0  1  0.46587613  0.59220963  0.50942814  1  1.302066  0  0.682185  0.855511  0  2.371072  0
Zn  Zn1  1  0.52656975  0.40296438  0.49950558  1  1.305665  0  0.680932  0.854762  0  2.369958  0
H  H2  1  0.62555003  0.68899592  0.44270204  1  0.182876  0  0.141782  0.148071  0  0.959813  0
H  H3  1  0.36941308  0.30453400  0.56651495  1  0.164058  0  0.140505  0.150444  0  0.967815  0
C  C4  1  0.52095714  0.51831573  0.35458229  1  1.622665  0  0.221898  0.638854  0  4.161316  0
C  C5  1  0.47505228  0.47753632  0.65450080  1  1.651735  0  0.221638  0.637397  0  4.151751  0
C  C6  1  0.42738821  0.59715520  0.22737581  1  0.503437  0  0.094684  0.16296  0  4.089439  0
C  C7  1  0.59381984  0.41481701  0.77817980  1  0.561965  0  0.09501  0.166326  0  4.088449  0
C  C8  1  0.43701394  0.25219854  0.53207510  1  0.544189  0  0.053502  -0.007241  0  3.889701  0
C  C9  1  0.55609606  0.74238878  0.47519921  1  0.580022  0  0.054884  -0.001392  0  3.892712  0
C  C10  1  0.42990399  0.16771452  0.53033716  1  0.567558  0  0.12391  0.203506  0  4.030747  0
C  C11  1  0.56241897  0.82725581  0.47544706  1  0.490644  0  0.122699  0.201083  0  4.031373  0
C  C12  1  0.51637441  0.10150819  0.48326901  1  0.501388  0  0.100709  0.002571  0  4.051162  0
C  C13  1  0.47269868  0.89507775  0.51950489  1  0.474719  0  0.100736  0.002887  0  4.05524  0
C  C14  1  0.60660256  0.12703611  0.43879599  1  0.589799  0  0.122543  0.105911  0  4.044115  0
C  C15  1  0.37916304  0.87120421  0.56186807  1  0.659963  0  0.123141  0.10635  0  4.044287  0
C  C16  1  0.60967677  0.21291573  0.44502907  1  1.197539  0  0.24001  0.317721  0  4.103565  0
C  C17  1  0.37709438  0.78490962  0.55706978  1  1.181036  0  0.240025  0.319008  0  4.105249  0
C  C18  1  0.73565370  0.46125155  0.51760512  1  1.651791  0  0.20664  0.556675  0  4.247533  0
C  C19  1  0.25635983  0.53544465  0.49377500  1  1.609559  0  0.208641  0.56143  0  4.238414  0
C  C20  1  0.87317969  0.44654055  0.51904515  1  0.496571  0  0.087947  0.041808  0  3.959365  0
C  C21  1  0.11801536  0.55169575  0.49438175  1  0.660689  0  0.089457  0.045625  0  3.95368  0
C  C22  1  0.92590887  0.51012751  0.52318758  1  0.679011  0  0.09043  0.109689  0  4.084985  0
C  C23  1  0.06099512  0.49354030  0.52195301  1  0.486773  0  0.08896  0.106367  0  4.084039  0
C  C24  1  0.52209075  0.52771016  0.26668477  1  0.14088  0  -0.020481  -0.193597  0  3.988696  0
C  C25  1  0.48342132  0.47204087  0.74208988  1  0.074176  0  -0.021548  -0.198912  0  3.978341  0
C  C26  1  0.61191581  0.46272231  0.22177348  1  0.53958  0  0.09374  0.163544  0  4.09319  0
C  C27  1  0.38705675  0.52870192  0.78991017  1  0.530593  0  0.093684  0.166868  0  4.08912  0
C  C28  1  0.60527756  0.46371531  0.14109945  1  0.585694  0  0.101041  0.125428  0  4.05274  0
C  C29  1  0.40140384  0.53168410  0.86956378  1  0.560437  0  0.0988  0.11951  0  4.057462  0
C  C30  1  0.50561560  0.53140284  0.10133216  1  0.456646  0  0.08075  -0.008834  0  4.078169  0
C  C31  1  0.51425276  0.47560413  0.90561424  1  0.526679  0  0.080916  -0.008863  0  4.097164  0
C  C32  1  0.41918255  0.59931929  0.14658644  1  0.593677  0  0.10242  0.12473  0  4.059385  0
C  C33  1  0.60852903  0.41580125  0.85796683  1  0.539509  0  0.099577  0.120178  0  4.068054  0
N  N34  1  0.48357812  0.54004726  0.02125131  1  -0.428119  0  -0.142701  -0.083418  0  3.255279  0
N  N35  1  0.53904911  0.46838841  0.98515008  1  -0.425489  0  -0.141438  -0.079144  0  3.261303  0
N  N36  1  0.52806517  0.27288643  0.49029382  1  -1.246713  0  -0.305585  -0.237181  0  3.529311  0
N  N37  1  0.46252329  0.72306267  0.51523572  1  -1.241327  0  -0.306186  -0.2392  0  3.535224  0
N  N38  1  0.51340083  0.01616241  0.47142212  1  -0.393516  0  -0.11442  -0.05277  0  3.213884  0
N  N39  1  0.47559645  0.98050011  0.53077993  1  -0.399048  0  -0.114162  -0.052103  0  3.220066  0
O  O40  1  0.51824403  0.58521838  0.39126219  1  -1.157244  0  -0.310544  -0.541005  0  2.295031  0
O  O41  1  0.51238274  0.40395268  0.62042526  1  -1.156109  0  -0.311443  -0.534545  0  2.288186  0
O  O42  1  0.51984132  0.44332875  0.38297375  1  -1.140872  0  -0.308524  -0.536396  0  2.309664  0
O  O43  1  0.43464867  0.55670470  0.62328002  1  -1.143004  0  -0.313375  -0.54282  0  2.324669  0
O  O44  1  0.65789295  0.53972942  0.53107619  1  -1.162169  0  -0.314975  -0.543403  0  2.367137  0
O  O45  1  0.33028505  0.45417121  0.50340100  1  -1.154969  0  -0.310351  -0.541704  0  2.387778  0
O  O46  1  0.70997777  0.39329618  0.50203356  1  -1.130106  0  -0.310501  -0.512377  0  2.317252  0
O  O47  1  0.28664745  0.60456665  0.48327036  1  -1.120872  0  -0.311718  -0.513906  0  2.296576  0
F  F48  1  0.13287614  0.41112623  0.55196125  1  -0.609607  0  -0.08473  -0.097359  0  1.42232  0
F  F49  1  0.85035457  0.59781915  0.52709612  1  -0.6094  0  -0.086005  -0.096923  0  1.419497  0
F  F50  1  0.69733713  0.23635570  0.40409990  1  -0.596539  0  -0.053844  -0.087567  0  1.364327  0
F  F51  1  0.28635883  0.76286144  0.59586008  1  -0.599334  0  -0.055008  -0.089677  0  1.358311  0
F  F52  1  0.04466697  0.63314346  0.46398393  1  -0.604738  0  -0.090266  -0.09172  0  1.396471  0
F  F53  1  0.95198547  0.36039354  0.51114605  1  -0.609873  0  -0.091814  -0.092381  0  1.402744  0
F  F54  1  0.27578901  0.58208328  0.75928398  1  -0.609749  0  -0.091079  -0.102278  0  1.357855  0
F  F55  1  0.70862652  0.39670507  0.25701556  1  -0.609827  0  -0.090535  -0.102302  0  1.357242  0
F  F56  1  0.30297211  0.58595684  0.91180562  1  -0.604511  0  -0.084354  -0.098234  0  1.39505  0
F  F57  1  0.69751387  0.40008726  0.10245413  1  -0.6152  0  -0.081995  -0.098097  0  1.406471  0
F  F58  1  0.32332403  0.66581375  0.11195541  1  -0.606792  0  -0.082391  -0.094896  0  1.373792  0
F  F59  1  0.71770512  0.36080856  0.88938722  1  -0.6073  0  -0.084596  -0.096327  0  1.368809  0
F  F60  1  0.33775829  0.66155841  0.26763219  1  -0.611118  0  -0.089754  -0.100257  0  1.352986  0
F  F61  1  0.69177345  0.35968859  0.73575249  1  -0.613015  0  -0.090076  -0.100625  0  1.362421  0
F  F62  1  0.65823877  0.84315341  0.43574378  1  -0.603515  0  -0.07079  -0.097843  0  1.369719  0
F  F63  1  0.33605222  0.15093018  0.57156995  1  -0.603504  0  -0.070619  -0.098007  0  1.37267  0
F  F64  1  0.69155316  0.06916048  0.39209541  1  -0.598301  0  -0.062958  -0.069926  0  1.375818  0
F  F65  1  0.29014673  0.93113096  0.60497709  1  -0.60171  0  -0.065032  -0.071984  0  1.373893  0
