# generated using pymatgen
data_CdH22C31(N2O3)2
_symmetry_space_group_name_H-M   'P 1'
_cell_length_a   9.94586700
_cell_length_b   11.79139836
_cell_length_c   12.57880000
_cell_angle_alpha   83.25961606
_cell_angle_beta   88.46750625
_cell_angle_gamma   69.89529362
_symmetry_Int_Tables_number   1
_chemical_formula_structural   CdH22C31(N2O3)2
_chemical_formula_sum   'Cd2 H44 C62 N8 O12'
_cell_volume   1375.57702643
_cell_formula_units_Z   2
loop_
 _symmetry_equiv_pos_site_id
 _symmetry_equiv_pos_as_xyz
  1  'x, y, z'
loop_
 _atom_site_type_symbol
 _atom_site_label
 _atom_site_symmetry_multiplicity
 _atom_site_fract_x
 _atom_site_fract_y
 _atom_site_fract_z
 _atom_site_occupancy
 _atom_site_hle17_bader_spin_density
 _atom_site_hle17_ddec_charge
 _atom_site_hle17_ddec_spin_density
 _atom_site_hle17_ddec_sum_bond_order
 _atom_site_hle17_magmom
 _atom_site_hse06_10hf_bader_spin_density
 _atom_site_hse06_10hf_ddec_charge
 _atom_site_hse06_10hf_ddec_spin_density
 _atom_site_hse06_10hf_ddec_sum_bond_order
 _atom_site_hse06_10hf_magmom
 _atom_site_hse06_bader_spin_density
 _atom_site_hse06_ddec_charge
 _atom_site_hse06_ddec_spin_density
 _atom_site_hse06_ddec_sum_bond_order
 _atom_site_hse06_magmom
 _atom_site_pbe_bader_charge
 _atom_site_pbe_bader_spin_density
 _atom_site_pbe_cm5_charge
 _atom_site_pbe_ddec_charge
 _atom_site_pbe_ddec_spin_density
 _atom_site_pbe_ddec_sum_bond_order
 _atom_site_pbe_magmom
Cd  Cd0  1  0.50265417  0.41632375  0.67130656  1  0  1.140957  0  1.690057  0  0  0.95128  0  2.141573  0  0  1.007621  0  2.088845  0  1.266903  0  0.779227  0.911072  0  2.177746  0
Cd  Cd1  1  0.49735258  0.58367150  0.32869652  1  0  1.140957  0  1.690105  0  0  0.951279  0  2.141613  0  0  1.007621  0  2.08889  0  1.266862  0  0.77924  0.911078  0  2.177782  0
H  H2  1  0.63266139  0.03127883  0.95031235  1  0  0.099411  0  0.948533  0  0  0.108891  0  1.007892  0  0  0.113097  0  1.004685  0  0.075024  0  0.10039  0.106637  0  1.008807  0
H  H3  1  0.36735187  0.96871279  0.04968782  1  0  0.099371  0  0.948565  0  0  0.108807  0  1.007964  0  0  0.113013  0  1.004761  0  0.07511  0  0.100372  0.106554  0  1.008879  0
H  H4  1  0.80882640  0.88968564  0.08691653  1  0  0.087571  0  0.948825  0  0  0.100578  0  1.006655  0  0  0.103571  0  1.005321  0  0.044141  0  0.097416  0.09842  0  1.007762  0
H  H5  1  0.19118420  0.11030507  0.91307981  1  0  0.087577  0  0.948948  0  0  0.100607  0  1.006734  0  0  0.103603  0  1.005404  0  0.044213  0  0.097434  0.098449  0  1.007845  0
H  H6  1  0.94649593  0.18737842  0.83212114  1  0  0.100246  0  0.959482  0  0  0.108488  0  1.027089  0  0  0.111885  0  1.02517  0  0.08739  0  0.101899  0.105966  0  1.028581  0
H  H7  1  0.05351943  0.81261047  0.16787848  1  0  0.100253  0  0.959526  0  0  0.108499  0  1.027126  0  0  0.111901  0  1.025208  0  0.087601  0  0.101895  0.10598  0  1.028617  0
H  H8  1  0.36548143  0.25661843  0.29775848  1  0  0.099086  0  0.96384  0  0  0.107804  0  1.027455  0  0  0.111099  0  1.026318  0  0.079796  0  0.099255  0.105402  0  1.028412  0
H  H9  1  0.63451106  0.74338228  0.70223397  1  0  0.099092  0  0.963884  0  0  0.107835  0  1.027476  0  0  0.111134  0  1.026327  0  0.079886  0  0.099259  0.105432  0  1.028435  0
H  H10  1  0.32821549  0.05664629  0.31587919  1  0  0.103452  0  0.938886  0  0  0.11423  0  0.997763  0  0  0.117809  0  0.995838  0  0.076395  0  0.102787  0.111728  0  0.999019  0
H  H11  1  0.67176308  0.94335897  0.68412100  1  0  0.103344  0  0.93893  0  0  0.114074  0  0.997874  0  0  0.117655  0  0.995949  0  0.076069  0  0.102672  0.111571  0  0.999129  0
H  H12  1  0.62116643  0.15073098  0.58597711  1  0  0.100462  0  0.968467  0  0  0.108414  0  1.037254  0  0  0.111927  0  1.034382  0  0.092599  0  0.102836  0.105881  0  1.039354  0
H  H13  1  0.37882358  0.84927336  0.41401499  1  0  0.100464  0  0.968548  0  0  0.108395  0  1.037354  0  0  0.11191  0  1.034481  0  0.092479  0  0.102814  0.105865  0  1.039448  0
H  H14  1  0.65326374  0.67181027  0.10159600  1  0  0.094043  0  0.95308  0  0  0.102975  0  1.018005  0  0  0.105626  0  1.014139  0  0.146732  0  0.132494  0.101043  0  1.020707  0
H  H15  1  0.34674675  0.32819316  0.89840610  1  0  0.09403  0  0.953087  0  0  0.102967  0  1.017996  0  0  0.105618  0  1.01413  0  0.146632  0  0.132493  0.101029  0  1.020702  0
H  H16  1  0.56931218  0.34482902  0.15886705  1  0  0.107404  0  0.943757  0  0  0.118591  0  0.999667  0  0  0.121415  0  0.998022  0  0.105389  0  0.117864  0.116535  0  1.001017  0
H  H17  1  0.43068257  0.65518351  0.84113598  1  0  0.107373  0  0.943773  0  0  0.118494  0  0.99976  0  0  0.121311  0  0.998115  0  0.105191  0  0.117859  0.116439  0  1.001106  0
H  H18  1  0.73186758  0.33696204  0.97442174  1  0  0.115394  0  0.978019  0  0  0.123452  0  1.042348  0  0  0.125431  0  1.042434  0  0.135357  0  0.120977  0.122101  0  1.042277  0
H  H19  1  0.26813020  0.66304049  0.02558073  1  0  0.115411  0  0.978011  0  0  0.12349  0  1.042303  0  0  0.12547  0  1.042388  0  0.135248  0  0.121004  0.122138  0  1.042233  0
H  H20  1  0.79651725  0.41543823  0.82693513  1  0  0.120094  0  0.975774  0  0  0.128351  0  1.038606  0  0  0.132205  0  1.035664  0  0.134614  0  0.107338  0.125515  0  1.04088  0
H  H21  1  0.20348520  0.58456521  0.17306237  1  0  0.120142  0  0.97576  0  0  0.128352  0  1.038637  0  0  0.132205  0  1.035697  0  0.134614  0  0.107331  0.125514  0  1.040925  0
H  H22  1  0.94591095  0.47623666  0.68768574  1  0  0.111308  0  0.947425  0  0  0.12363  0  1.004231  0  0  0.126121  0  1.004245  0  0.093097  0  0.107195  0.121864  0  1.004281  0
H  H23  1  0.05408975  0.52376859  0.31231081  1  0  0.111352  0  0.947535  0  0  0.123692  0  1.004303  0  0  0.126186  0  1.004321  0  0.093131  0  0.10726  0.121926  0  1.004352  0
H  H24  1  0.95290524  0.76805059  0.86252986  1  0  0.11252  0  0.959457  0  0  0.121685  0  1.021079  0  0  0.124596  0  1.020445  0  0.104188  0  0.106368  0.119632  0  1.021567  0
H  H25  1  0.04709134  0.23195739  0.13746567  1  0  0.11257  0  0.959442  0  0  0.121728  0  1.021074  0  0  0.124639  0  1.020439  0  0.104285  0  0.106388  0.119676  0  1.021562  0
H  H26  1  0.82070084  0.69949337  0.00719199  1  0  0.093382  0  0.963723  0  0  0.105497  0  1.023964  0  0  0.107919  0  1.022844  0  0.062191  0  0.103267  0.103868  0  1.024642  0
H  H27  1  0.17930124  0.30051098  0.99280383  1  0  0.093432  0  0.963704  0  0  0.105508  0  1.023987  0  0  0.107927  0  1.022872  0  0.062162  0  0.103281  0.103879  0  1.024663  0
H  H28  1  0.18990741  0.72404894  0.63177632  1  0  0.062049  0  0.919946  0  0  0.072378  0  0.985727  0  0  0.071988  0  0.984884  0  0.09551  0  0.118105  0.072663  0  0.986255  0
H  H29  1  0.81009888  0.27594995  0.36822717  1  0  0.062076  0  0.919943  0  0  0.07237  0  0.985756  0  0  0.07198  0  0.984915  0  0.095727  0  0.118077  0.07266  0  0.986273  0
H  H30  1  0.15144854  0.72623184  0.77366653  1  0  0.027796  0  0.962971  0  0  0.034682  0  1.038768  0  0  0.034468  0  1.038116  0  0.070363  0  0.104361  0.034813  0  1.039233  0
H  H31  1  0.84854823  0.27377069  0.22633357  1  0  0.027803  0  0.963007  0  0  0.034692  0  1.038792  0  0  0.03448  0  1.038141  0  0.070351  0  0.104361  0.034826  0  1.039251  0
H  H32  1  0.84528296  0.07061375  0.59196389  1  0  0.114015  0  0.94972  0  0  0.126405  0  1.007397  0  0  0.128965  0  1.006855  0  0.087946  0  0.109108  0.124682  0  1.007825  0
H  H33  1  0.15471749  0.92937968  0.40803635  1  0  0.11404  0  0.949738  0  0  0.126427  0  1.007416  0  0  0.12899  0  1.006872  0  0.087675  0  0.109115  0.124704  0  1.007845  0
H  H34  1  0.91587739  0.25332362  0.56989409  1  0  0.113068  0  0.932712  0  0  0.126571  0  0.988984  0  0  0.129563  0  0.986749  0  0.107852  0  0.11138  0.124401  0  0.990665  0
H  H35  1  0.08411656  0.74667345  0.43011065  1  0  0.113102  0  0.932786  0  0  0.126613  0  0.989052  0  0  0.129603  0  0.986817  0  0.107805  0  0.111429  0.124428  0  0.990749  0
H  H36  1  0.33785716  0.03404541  0.69416442  1  0  0.099608  0  0.970416  0  0  0.111167  0  1.030067  0  0  0.112962  0  1.030526  0  0.074573  0  0.105436  0.109872  0  1.029926  0
H  H37  1  0.66213908  0.96595348  0.30584246  1  0  0.099577  0  0.970445  0  0  0.111143  0  1.030078  0  0  0.112938  0  1.030542  0  0.074572  0  0.105421  0.109851  0  1.029936  0
H  H38  1  0.26313617  0.85664849  0.72571920  1  0  0.102415  0  0.967408  0  0  0.114209  0  1.027639  0  0  0.116804  0  1.027175  0  0.068561  0  0.103921  0.112352  0  1.028066  0
H  H39  1  0.73685933  0.14335222  0.27428670  1  0  0.102375  0  0.967469  0  0  0.114202  0  1.027654  0  0  0.116796  0  1.02719  0  0.068567  0  0.103897  0.112342  0  1.028086  0
H  H40  1  0.05517130  0.35726637  0.47027227  1  0  0.117783  0  1.002966  0  0  0.118584  0  1.077657  0  0  0.12266  0  1.074987  0  0.147699  0  0.12005  0.115603  0  1.079716  0
H  H41  1  0.94482567  0.64273071  0.52973241  1  0  0.117763  0  1.002984  0  0  0.118558  0  1.07769  0  0  0.122635  0  1.075016  0  0.147657  0  0.120029  0.11557  0  1.079765  0
H  H42  1  0.21469953  0.50717092  0.49148846  1  0  0.109853  0  0.941706  0  0  0.121273  0  0.999367  0  0  0.123934  0  0.997548  0  0.128853  0  0.121097  0.119299  0  1.000875  0
H  H43  1  0.78529670  0.49282797  0.50851603  1  0  0.10985  0  0.941625  0  0  0.121247  0  0.999312  0  0  0.123911  0  0.997488  0  0.128962  0  0.121069  0.119269  0  1.00082  0
H  H44  1  0.34519974  0.21271042  0.73389403  1  0  0.107835  0  0.969216  0  0  0.116111  0  1.034793  0  0  0.119499  0  1.029849  0  0.139076  0  0.134266  0.11361  0  1.038329  0
H  H45  1  0.65480400  0.78728484  0.26610673  1  0  0.107883  0  0.969232  0  0  0.116163  0  1.034803  0  0  0.119551  0  1.029859  0  0.139172  0  0.134257  0.113661  0  1.03834  0
C  C46  1  0.67142447  0.20528620  0.80635261  1  0  0.62239  0  3.961189  0  0  0.574828  0  4.253156  0  0  0.60895  0  4.247084  0  1.555713  0  0.189549  0.551788  0  4.256339  0
C  C47  1  0.32858960  0.79471088  0.19364376  1  0  0.622309  0  3.961231  0  0  0.574731  0  4.253241  0  0  0.608848  0  4.247169  0  1.555776  0  0.189486  0.551693  0  4.256422  0
C  C48  1  0.78043055  0.11795658  0.88437806  1  0  -0.05893  0  3.770903  0  0  -0.035254  0  4.003903  0  0  -0.042589  0  4.026255  0  -0.013295  0  -0.021932  -0.030664  0  3.989185  0
C  C49  1  0.21957658  0.88203777  0.11562035  1  0  -0.058938  0  3.770958  0  0  -0.035287  0  4.004006  0  0  -0.042616  0  4.026355  0  -0.013001  0  -0.021941  -0.030699  0  3.989289  0
C  C50  1  0.74140180  0.03230164  0.95592183  1  0  -0.080026  0  3.767405  0  0  -0.101609  0  4.01122  0  0  -0.102378  0  4.032088  0  -0.051826  0  -0.09088  -0.101019  0  3.996577  0
C  C51  1  0.25860972  0.96769180  0.04407738  1  0  -0.079933  0  3.767418  0  0  -0.101461  0  4.011224  0  0  -0.102233  0  4.032093  0  -0.052276  0  -0.09087  -0.10087  0  3.996581  0
C  C52  1  0.83872638  0.95430074  0.03033258  1  0  -0.115532  0  3.766382  0  0  -0.132404  0  4.014127  0  0  -0.135814  0  4.036304  0  -0.037812  0  -0.092768  -0.130414  0  3.999425  0
C  C53  1  0.16128340  0.04569451  0.96966805  1  0  -0.115612  0  3.766619  0  0  -0.132506  0  4.01434  0  0  -0.135923  0  4.036525  0  -0.037852  0  -0.092789  -0.130516  0  3.99964  0
C  C54  1  0.97996715  0.95707369  0.03637875  1  0  0.054633  0  3.795069  0  0  0.071683  0  4.021272  0  0  0.071348  0  4.045139  0  -0.011792  0  -0.009828  0.072037  0  4.005029  0
C  C55  1  0.02004262  0.04292157  0.96362347  1  0  0.05475  0  3.795193  0  0  0.071848  0  4.021321  0  0  0.071514  0  4.045187  0  -0.062873  0  -0.009676  0.072202  0  4.005079  0
C  C56  1  0.91752393  0.12226146  0.88849662  1  0  -0.111991  0  3.713792  0  0  -0.144875  0  3.964175  0  0  -0.144207  0  3.982659  0  -0.036032  0  -0.08286  -0.145391  0  3.951909  0
C  C57  1  0.08248493  0.87773106  0.11150672  1  0  -0.111885  0  3.713731  0  0  -0.144773  0  3.964145  0  0  -0.144108  0  3.982629  0  -0.036056  0  -0.082812  -0.145284  0  3.951865  0
C  C58  1  0.52129882  0.33354450  0.42846339  1  0  0.633791  0  3.946063  0  0  0.581849  0  4.241317  0  0  0.616763  0  4.234306  0  1.548664  0  0.195027  0.558151  0  4.245319  0
C  C59  1  0.47869779  0.66645349  0.57153245  1  0  0.633852  0  3.946224  0  0  0.581928  0  4.241458  0  0  0.616835  0  4.234443  0  1.54842  0  0.195047  0.558231  0  4.245458  0
C  C60  1  0.49932300  0.21304863  0.44017734  1  0  -0.0676  0  3.77759  0  0  -0.043666  0  4.011683  0  0  -0.051633  0  4.035597  0  0.034086  0  -0.02443  -0.038613  0  3.995855  0
C  C61  1  0.50066783  0.78695117  0.55982081  1  0  -0.067624  0  3.777534  0  0  -0.043733  0  4.011686  0  0  -0.051669  0  4.035556  0  0.033273  0  -0.024456  -0.038683  0  3.995861  0
C  C62  1  0.41475268  0.18690202  0.36360334  1  0  -0.076505  0  3.743785  0  0  -0.100522  0  3.994342  0  0  -0.100653  0  4.014271  0  -0.072295  0  -0.090777  -0.100422  0  3.980995  0
C  C63  1  0.58523779  0.81309869  0.63639313  1  0  -0.076612  0  3.743822  0  0  -0.100666  0  3.994414  0  0  -0.100811  0  4.014344  0  -0.072294  0  -0.090857  -0.100565  0  3.981068  0
C  C64  1  0.39407599  0.07652513  0.37406599  1  0  -0.108668  0  3.726658  0  0  -0.128728  0  3.97828  0  0  -0.131159  0  3.997019  0  -0.055021  0  -0.090148  -0.12701  0  3.965423  0
C  C65  1  0.60590633  0.92347831  0.62593035  1  0  -0.108391  0  3.726859  0  0  -0.128388  0  3.978386  0  0  -0.130825  0  3.997134  0  -0.054132  0  -0.08999  -0.126669  0  3.965527  0
C  C66  1  0.45749039  0.98683694  0.46111981  1  0  0.054553  0  3.790313  0  0  0.071008  0  4.01902  0  0  0.070767  0  4.04275  0  0.048249  0  -0.007824  0.071015  0  4.003264  0
C  C67  1  0.54249670  0.01316467  0.53887663  1  0  0.054273  0  3.790595  0  0  0.070792  0  4.019227  0  0  0.070551  0  4.042954  0  -0.001651  0  -0.007878  0.070801  0  4.003469  0
C  C68  1  0.56018759  0.12787645  0.52633865  1  0  -0.109762  0  3.705455  0  0  -0.142801  0  3.957296  0  0  -0.142728  0  3.97637  0  -0.101952  0  -0.082004  -0.142727  0  3.944578  0
C  C69  1  0.43980399  0.87212153  0.47365809  1  0  -0.109829  0  3.705521  0  0  -0.14282  0  3.957363  0  0  -0.142757  0  3.976427  0  -0.101337  0  -0.081957  -0.142746  0  3.944646  0
C  C70  1  0.65562852  0.58061035  0.09406098  1  0  0.16236  0  3.664115  0  0  0.101535  0  3.931984  0  0  0.115003  0  3.945481  0  0.972291  0  0.136999  0.092759  0  3.922438  0
C  C71  1  0.34437858  0.41939400  0.90593871  1  0  0.162521  0  3.66399  0  0  0.101698  0  3.931846  0  0  0.115165  0  3.945344  0  0.972432  0  0.137084  0.092927  0  3.92231  0
C  C72  1  0.61340831  0.41092696  0.11972131  1  0  0.000891  0  3.764978  0  0  -0.032078  0  4.037045  0  0  -0.029807  0  4.055563  0  0.384018  0  -0.005948  -0.033817  0  4.024743  0
C  C73  1  0.38659230  0.58908102  0.88027971  1  0  0.001042  0  3.765028  0  0  -0.031871  0  4.037111  0  0  -0.02959  0  4.055622  0  0.385018  0  -0.005919  -0.033611  0  4.024807  0
C  C74  1  0.69287487  0.40623478  0.02820752  1  0  -0.05796  0  3.654959  0  0  -0.098937  0  3.916935  0  0  -0.096954  0  3.935176  0  0.318737  0  -0.000238  -0.100159  0  3.904672  0
C  C75  1  0.30712308  0.59377230  0.97179524  1  0  -0.05803  0  3.654812  0  0  -0.099017  0  3.916753  0  0  -0.097034  0  3.934989  0  0.318604  0  -0.000271  -0.100238  0  3.904491  0
C  C76  1  0.80036978  0.55179626  0.92866666  1  0  0.15726  0  3.793375  0  0  0.147075  0  4.042505  0  0  0.151398  0  4.065983  0  0.296423  0  0.084196  0.143969  0  4.02712  0
C  C77  1  0.19962964  0.44820718  0.07133330  1  0  0.157315  0  3.793287  0  0  0.147115  0  4.042422  0  0  0.151439  0  4.065897  0  0.296515  0  0.084219  0.14401  0  4.027037  0
C  C78  1  0.83478719  0.48968681  0.83792053  1  0  -0.120375  0  3.723462  0  0  -0.140487  0  3.974813  0  0  -0.142038  0  3.992873  0  -0.009145  0  -0.087666  -0.1394  0  3.962694  0
C  C79  1  0.16521150  0.51031844  0.16207527  1  0  -0.120506  0  3.723575  0  0  -0.140586  0  3.974957  0  0  -0.142139  0  3.993016  0  -0.008833  0  -0.087696  -0.139506  0  3.962851  0
C  C80  1  0.91689864  0.52466139  0.75819237  1  0  -0.149324  0  3.726578  0  0  -0.170724  0  3.979138  0  0  -0.174877  0  3.998884  0  -0.053871  0  -0.095388  -0.167724  0  3.965579  0
C  C81  1  0.08309392  0.47534659  0.24180484  1  0  -0.149234  0  3.726664  0  0  -0.170667  0  3.979188  0  0  -0.174828  0  3.998942  0  -0.054464  0  -0.095427  -0.167662  0  3.965611  0
C  C82  1  0.96160000  0.62350373  0.76666739  1  0  0.271334  0  3.782794  0  0  0.25887  0  4.047084  0  0  0.269095  0  4.063387  0  0.437933  0  0.082327  0.251734  0  4.035909  0
C  C83  1  0.03839604  0.37650061  0.23332936  1  0  0.271167  0  3.782977  0  0  0.258745  0  4.04717  0  0  0.268969  0  4.063474  0  0.438147  0  0.082306  0.251659  0  4.035991  0
C  C84  1  0.92386126  0.68819975  0.85560601  1  0  -0.180153  0  3.769249  0  0  -0.200423  0  4.022596  0  0  -0.204978  0  4.04333  0  -0.016251  0  -0.10459  -0.197269  0  4.008594  0
C  C85  1  0.07613496  0.31180914  0.14438705  1  0  -0.180196  0  3.769486  0  0  -0.200499  0  4.022825  0  0  -0.20505  0  4.043556  0  -0.016131  0  -0.104573  -0.197342  0  4.008812  0
C  C86  1  0.84553788  0.65045677  0.93700553  1  0  -0.130112  0  3.77599  0  0  -0.150278  0  4.027465  0  0  -0.153108  0  4.049616  0  0.004112  0  -0.093123  -0.148238  0  4.012669  0
C  C87  1  0.15445706  0.34955030  0.06298935  1  0  -0.130057  0  3.776093  0  0  -0.15019  0  4.027585  0  0  -0.153017  0  4.049729  0  0.004019  0  -0.093122  -0.148148  0  4.012788  0
C  C88  1  0.10576853  0.73774002  0.69251838  1  0  0.266422  0  3.639921  0  0  0.184647  0  3.92662  0  0  0.200794  0  3.925191  0  0.906795  0  0.02727  0.173689  0  3.927241  0
C  C89  1  0.89423511  0.26225796  0.30748129  1  0  0.26634  0  3.640001  0  0  0.184548  0  3.92664  0  0  0.200688  0  3.925217  0  0.906614  0  0.027304  0.173633  0  3.927262  0
C  C90  1  0.04786285  0.95201329  0.66025820  1  0  0.266951  0  3.818527  0  0  0.259352  0  4.077074  0  0  0.269373  0  4.094499  0  0.447287  0  0.08215  0.252357  0  4.065298  0
C  C91  1  0.95213439  0.04798560  0.33974468  1  0  0.267062  0  3.818506  0  0  0.259409  0  4.077093  0  0  0.269438  0  4.094507  0  0.447318  0  0.08217  0.252412  0  4.065319  0
C  C92  1  0.95205153  0.06436962  0.61591229  1  0  -0.144579  0  3.726003  0  0  -0.168101  0  3.983315  0  0  -0.172535  0  4.002933  0  0.028981  0  -0.093095  -0.164985  0  3.970069  0
C  C93  1  0.04794581  0.93562654  0.38409248  1  0  -0.144624  0  3.726204  0  0  -0.168129  0  3.9835  0  0  -0.172567  0  4.003116  0  0.028943  0  -0.093117  -0.165012  0  3.970251  0
C  C94  1  0.99332691  0.16617947  0.60173843  1  0  -0.103194  0  3.723298  0  0  -0.129123  0  3.984729  0  0  -0.128314  0  4.00074  0  -0.032576  0  -0.08401  -0.129564  0  3.973944  0
C  C95  1  0.00667033  0.83381942  0.39826842  1  0  -0.103266  0  3.723451  0  0  -0.129231  0  3.984917  0  0  -0.128419  0  4.000922  0  -0.032252  0  -0.084069  -0.129661  0  3.974137  0
C  C96  1  0.13275723  0.15571047  0.62972541  1  0  0.148809  0  3.788906  0  0  0.138422  0  4.041191  0  0  0.142044  0  4.063694  0  0.270052  0  0.082682  0.135925  0  4.026125  0
C  C97  1  0.86723662  0.84428933  0.37027983  1  0  0.14894  0  3.788679  0  0  0.138551  0  4.04097  0  0  0.142172  0  4.063475  0  0.269201  0  0.082753  0.136054  0  4.025901  0
C  C98  1  0.22808765  0.04409439  0.67467053  1  0  -0.123177  0  3.782867  0  0  -0.14445  0  4.036693  0  0  -0.146644  0  4.059635  0  -0.017181  0  -0.090671  -0.142918  0  4.021321  0
C  C99  1  0.77190758  0.95590450  0.32533558  1  0  -0.123262  0  3.782876  0  0  -0.144529  0  4.036698  0  0  -0.146725  0  4.059642  0  -0.016659  0  -0.090715  -0.143  0  4.021331  0
C  C100  1  0.18587358  0.94245890  0.69119544  1  0  -0.194033  0  3.786059  0  0  -0.21253  0  4.035059  0  0  -0.218584  0  4.058024  0  0.010363  0  -0.10893  -0.208413  0  4.019667  0
C  C101  1  0.81412266  0.05753999  0.30881065  1  0  -0.193984  0  3.786115  0  0  -0.21249  0  4.035108  0  0  -0.218549  0  4.058071  0  0.010452  0  -0.108875  -0.208372  0  4.019716  0
C  C102  1  0.13395324  0.35304876  0.52972879  1  0  -0.068443  0  3.650558  0  0  -0.108181  0  3.917069  0  0  -0.107219  0  3.934284  0  0.330552  0  -0.00109  -0.108751  0  3.905767  0
C  C103  1  0.86604199  0.64695013  0.47027731  1  0  -0.06848  0  3.650502  0  0  -0.10821  0  3.916976  0  0  -0.10725  0  3.934195  0  0.330469  0  -0.001104  -0.108779  0  3.905677  0
C  C104  1  0.21443873  0.42526628  0.54033354  1  0  0.0183  0  3.749758  0  0  -0.02102  0  4.026183  0  0  -0.017665  0  4.044588  0  0.369707  0  7.7e-05  -0.023283  0  4.013783  0
C  C105  1  0.78556025  0.57473080  0.45966791  1  0  0.018348  0  3.749632  0  0  -0.020948  0  4.026047  0  0  -0.017595  0  4.044455  0  0.369575  0  0.000115  -0.023207  0  4.01364  0
C  C106  1  0.28484694  0.27458530  0.66750062  1  0  0.154047  0  3.665281  0  0  0.091968  0  3.932353  0  0  0.105893  0  3.94528  0  1.003008  0  0.137133  0.083125  0  3.923044  0
C  C107  1  0.71515405  0.72541177  0.33250159  1  0  0.153908  0  3.665303  0  0  0.091796  0  3.932408  0  0  0.105721  0  3.945336  0  1.002728  0  0.137119  0.082955  0  3.923098  0
N  N108  1  0.71964258  0.51509609  0.01239439  1  0  -0.085659  0  3.600099  0  0  0.00425  0  3.812  0  0  -0.010822  0  3.838489  0  -1.26255  0  -0.222316  0.014353  0  3.79401  0
N  N109  1  0.28035912  0.48490916  0.98760531  1  0  -0.085834  0  3.599992  0  0  0.00409  0  3.811899  0  0  -0.010984  0  3.838391  0  -1.262295  0  -0.222364  0.014194  0  3.793907  0
N  N110  1  0.59164049  0.51972737  0.16008399  1  0  -0.382825  0  3.231083  0  0  -0.316212  0  3.51795  0  0  -0.335803  0  3.535369  0  -1.217898  0  -0.352519  -0.302566  0  3.505543  0
N  N111  1  0.40836240  0.48028244  0.83991440  1  0  -0.382939  0  3.231185  0  0  -0.316323  0  3.518047  0  0  -0.335917  0  3.535468  0  -1.218852  0  -0.352587  -0.302678  0  3.505641  0
N  N112  1  0.30760140  0.37546689  0.62627021  1  0  -0.397087  0  3.304071  0  0  -0.31833  0  3.592648  0  0  -0.340738  0  3.610668  0  -1.220827  0  -0.362639  -0.302872  0  3.579707  0
N  N113  1  0.69239895  0.62452927  0.37373290  1  0  -0.39709  0  3.304033  0  0  -0.318313  0  3.592591  0  0  -0.340722  0  3.610611  0  -1.220584  0  -0.362679  -0.302856  0  3.579651  0
N  N114  1  0.17966865  0.25753395  0.61119676  1  0  -0.079678  0  3.610994  0  0  0.011274  0  3.82092  0  0  -0.003123  0  3.847026  0  -1.272895  0  -0.224278  0.020743  0  3.803155  0
N  N115  1  0.82032859  0.74246494  0.38880851  1  0  -0.079583  0  3.610902  0  0  0.011378  0  3.820819  0  0  -0.003018  0  3.846926  0  -1.272542  0  -0.224233  0.020848  0  3.803053  0
O  O116  1  0.70794066  0.29001288  0.75273289  1  0  -0.64789  0  1.997457  0  0  -0.578103  0  2.245003  0  0  -0.607846  0  2.234486  0  -1.153033  0  -0.336467  -0.55716  0  2.251443  0
O  O117  1  0.29207194  0.70998783  0.24726867  1  0  -0.647956  0  1.997319  0  0  -0.578126  0  2.244837  0  0  -0.60787  0  2.234323  0  -1.152868  0  -0.336485  -0.557187  0  2.251276  0
O  O118  1  0.55068034  0.19369346  0.79847513  1  0  -0.648161  0  1.930575  0  0  -0.599746  0  2.160108  0  0  -0.624676  0  2.150267  0  -1.197095  0  -0.338485  -0.58266  0  2.166282  0
O  O119  1  0.44933071  0.80630361  0.20151414  1  0  -0.648071  0  1.93056  0  0  -0.599642  0  2.160071  0  0  -0.624568  0  2.15023  0  -1.197151  0  -0.338422  -0.582558  0  2.166246  0
O  O120  1  0.59968467  0.35596445  0.49566151  1  0  -0.67303  0  1.960272  0  0  -0.613477  0  2.213685  0  0  -0.639053  0  2.19967  0  -1.204762  0  -0.344759  -0.595559  0  2.222633  0
O  O121  1  0.40032630  0.64402535  0.50433175  1  0  -0.672984  0  1.96048  0  0  -0.613456  0  2.213948  0  0  -0.639034  0  2.199928  0  -1.204647  0  -0.344735  -0.59554  0  2.222897  0
O  O122  1  0.45848192  0.40766034  0.34757769  1  0  -0.6294  0  2.023526  0  0  -0.557627  0  2.277551  0  0  -0.5876  0  2.26744  0  -1.155049  0  -0.327071  -0.536743  0  2.283742  0
O  O123  1  0.54151459  0.59234037  0.65242103  1  0  -0.629441  0  2.023521  0  0  -0.557647  0  2.27751  0  0  -0.587622  0  2.267402  0  -1.155003  0  -0.327059  -0.536762  0  2.283699  0
O  O124  1  0.04144323  0.65095408  0.68267870  1  0  -0.292147  0  2.358996  0  0  -0.222614  0  2.59982  0  0  -0.241394  0  2.601416  0  -1.089506  0  -0.172248  -0.209364  0  2.598236  0
O  O125  1  0.95856069  0.34904572  0.31731997  1  0  -0.292049  0  2.359037  0  0  -0.222482  0  2.599808  0  0  -0.241257  0  2.601411  0  -1.089579  0  -0.172259  -0.209352  0  2.598297  0
O  O126  1  0.99902676  0.85587389  0.66963608  1  0  -0.315228  0  2.291726  0  0  -0.249752  0  2.52967  0  0  -0.267694  0  2.530914  0  -1.058344  0  -0.185544  -0.236939  0  2.528019  0
O  O127  1  0.00097386  0.14412410  0.33035967  1  0  -0.315275  0  2.29175  0  0  -0.249733  0  2.529672  0  0  -0.267678  0  2.530913  0  -1.058353  0  -0.185547  -0.236916  0  2.528008  0
