# generated using pymatgen
data_AlH27(C11O2)3
_symmetry_space_group_name_H-M   'P 1'
_cell_length_a   4.01530710
_cell_length_b   27.78513765
_cell_length_c   27.83092704
_cell_angle_alpha   59.94081069
_cell_angle_beta   89.45364356
_cell_angle_gamma   88.91058429
_symmetry_Int_Tables_number   1
_chemical_formula_structural   AlH27(C11O2)3
_chemical_formula_sum   'Al3 H81 C99 O18'
_cell_volume   2686.90170477
_cell_formula_units_Z   3
loop_
 _symmetry_equiv_pos_site_id
 _symmetry_equiv_pos_as_xyz
  1  'x, y, z'
loop_
 _atom_site_type_symbol
 _atom_site_label
 _atom_site_symmetry_multiplicity
 _atom_site_fract_x
 _atom_site_fract_y
 _atom_site_fract_z
 _atom_site_occupancy
 _atom_site_pbe_bader_charge
 _atom_site_pbe_bader_spin_density
 _atom_site_pbe_cm5_charge
 _atom_site_pbe_ddec_charge
 _atom_site_pbe_ddec_spin_density
 _atom_site_pbe_ddec_sum_bond_order
 _atom_site_pbe_magmom
Al  Al0  1  0.99846515  0.50004504  0.49959392  1  2.507029  0  0.430012  1.602166  0  2.572096  0
Al  Al1  1  0.96362851  0.83336487  0.83300133  1  2.503391  0  0.428557  1.59824  0  2.56671  0
Al  Al2  1  0.04168511  0.16666541  0.16632414  1  2.501731  0  0.428923  1.596443  0  2.569378  0
H  H3  1  0.50249427  0.07696132  0.92299702  1  0.037344  0  0.096215  0.090881  0  1.042151  0
H  H4  1  0.48896985  0.25547572  0.83348704  1  0.046786  0  0.09656  0.092418  0  1.037223  0
H  H5  1  0.52768586  0.16580076  0.74494491  1  0.04748  0  0.096727  0.092319  0  1.036437  0
H  H6  1  0.72570012  0.01292246  0.91395070  1  0.029695  0  0.09777  0.1018  0  1.014381  0
H  H7  1  0.23565512  0.09696191  0.75514609  1  0.060089  0  0.097994  0.102549  0  1.012012  0
H  H8  1  0.28468277  0.08645145  0.98596004  1  0.048748  0  0.097831  0.1019  0  1.014932  0
H  H9  1  0.76303464  0.24521709  0.90355720  1  0.033093  0  0.097819  0.10184  0  1.013269  0
H  H10  1  0.75042855  0.31637840  0.76227174  1  0.040912  0  0.095921  0.097239  0  1.024375  0
H  H11  1  0.26814481  0.23744091  0.68340317  1  0.040361  0  0.095515  0.096464  0  1.025562  0
H  H12  1  0.50173964  0.49996912  0.07729390  1  0.034412  0  0.096209  0.091241  0  1.041093  0
H  H13  1  0.53898984  0.58917318  0.16608173  1  0.046626  0  0.096962  0.09268  0  1.034733  0
H  H14  1  0.47547945  0.41112746  0.25545768  1  0.048322  0  0.096771  0.092518  0  1.035409  0
H  H15  1  0.26374513  0.42877508  0.08686413  1  0.040589  0  0.097866  0.101989  0  1.01377  0
H  H16  1  0.75213709  0.34951191  0.24581609  1  0.041042  0  0.09785  0.101927  0  1.013001  0
H  H17  1  0.74509989  0.57149138  0.01482572  1  0.044121  0  0.09767  0.101391  0  1.013484  0
H  H18  1  0.24693611  0.64989913  0.09586021  1  0.042174  0  0.098228  0.102691  0  1.012323  0
H  H19  1  0.25919453  0.57980028  0.23712922  1  0.053554  0  0.095573  0.096408  0  1.024007  0
H  H20  1  0.75867408  0.42057495  0.31626323  1  0.06453  0  0.095645  0.097079  0  1.023044  0
H  H21  1  0.50572163  0.92287812  0.50015004  1  0.030195  0  0.0962  0.090914  0  1.040565  0
H  H22  1  0.46403991  0.83444623  0.41071536  1  0.042764  0  0.096631  0.092687  0  1.035387  0
H  H23  1  0.51545270  0.74430463  0.58873474  1  0.043065  0  0.096946  0.092903  0  1.036518  0
H  H24  1  0.73001328  0.91293584  0.57183352  1  0.06647  0  0.097672  0.101576  0  1.014366  0
H  H25  1  0.25069248  0.75422067  0.65000858  1  0.039867  0  0.097965  0.102133  0  1.013361  0
H  H26  1  0.26849331  0.98686457  0.42740341  1  0.056667  0  0.09728  0.100544  0  1.015086  0
H  H27  1  0.76661293  0.90312163  0.35170630  1  0.045104  0  0.097889  0.102607  0  1.01119  0
H  H28  1  0.73008996  0.76241230  0.42038508  1  0.055845  0  0.095683  0.096504  0  1.024928  0
H  H29  1  0.23866959  0.68414985  0.57870395  1  0.061706  0  0.095722  0.096898  0  1.023547  0
H  H30  1  0.30823926  0.04036888  0.70013746  1  0.011638  0  0.088623  0.121434  0  0.99822  0
H  H31  1  0.19405866  0.96959948  0.74146857  1  0.04597  0  0.095637  0.138581  0  1.0195  0
H  H32  1  0.91845931  0.02299545  0.73471266  1  0.036129  0  0.091306  0.132534  0  1.02119  0
H  H33  1  0.67063923  0.90985555  0.96847202  1  0.017875  0  0.088362  0.121767  0  0.997608  0
H  H34  1  0.63178899  0.87130639  0.93357623  1  0.063724  0  0.093848  0.135735  0  1.019732  0
H  H35  1  0.00184811  0.90729333  0.92708839  1  0.068831  0  0.092931  0.138639  0  1.023812  0
H  H36  1  0.34525191  0.03155069  0.08934380  1  0.020954  0  0.088197  0.121515  0  0.997643  0
H  H37  1  0.37199813  0.06683884  0.12768037  1  0.053499  0  0.093837  0.136056  0  1.018056  0
H  H38  1  0.00580447  0.07284400  0.09038218  1  0.029131  0  0.09259  0.137827  0  1.024443  0
H  H39  1  0.68728343  0.30032378  0.95891037  1  0.039659  0  0.088621  0.121773  0  0.998332  0
H  H40  1  0.78898240  0.25941688  0.03050419  1  0.034379  0  0.095536  0.138714  0  1.019832  0
H  H41  1  0.07640300  0.26462428  0.97972624  1  0.038941  0  0.091731  0.134026  0  1.021939  0
H  H42  1  0.01629768  0.43161570  0.65486029  1  0.063025  0  0.095052  0.139362  0  1.018111  0
H  H43  1  0.61134348  0.45478775  0.65792894  1  0.052209  0  0.09103  0.128836  0  1.015922  0
H  H44  1  0.82239939  0.40750140  0.72068392  1  0.034933  0  0.084516  0.115584  0  1.006517  0
H  H45  1  0.99339556  0.34488277  0.56808817  1  0.062786  0  0.09498  0.139296  0  1.018535  0
H  H46  1  0.39661305  0.34138524  0.54510365  1  0.034099  0  0.091264  0.128826  0  1.01611  0
H  H47  1  0.19097652  0.27874575  0.59243399  1  0.028323  0  0.084627  0.115668  0  1.006955  0
H  H48  1  0.68587914  0.24005780  0.30087521  1  0.035477  0  0.088506  0.121786  0  0.997112  0
H  H49  1  0.76847567  0.20776731  0.26058708  1  0.065321  0  0.0947  0.136201  0  1.024865  0
H  H50  1  0.06689400  0.25170855  0.26423786  1  0.019516  0  0.092152  0.135059  0  1.020455  0
H  H51  1  0.31242789  0.37976317  0.03223538  1  0.032914  0  0.088275  0.121654  0  0.998688  0
H  H52  1  0.34494246  0.30592772  0.06741037  1  0.028745  0  0.094373  0.137035  0  1.01642  0
H  H53  1  0.97817844  0.33843608  0.07357975  1  0.05395  0  0.09261  0.137917  0  1.024502  0
H  H54  1  0.70329303  0.62004822  0.91176112  1  0.018028  0  0.088228  0.121647  0  0.997884  0
H  H55  1  0.65665077  0.69369911  0.87272211  1  0.053484  0  0.094164  0.136213  0  1.018538  0
H  H56  1  0.02773774  0.66340166  0.91000846  1  0.032814  0  0.092829  0.138427  0  1.024455  0
H  H57  1  0.30530283  0.75979389  0.04079807  1  -0.000669  0  0.088374  0.121445  0  0.997666  0
H  H58  1  0.21945739  0.79149550  0.96860785  1  0.051187  0  0.095058  0.13695  0  1.02355  0
H  H59  1  0.92563772  0.74685760  0.01757819  1  0.043663  0  0.092269  0.135108  0  1.019926  0
H  H60  1  0.98097560  0.58791272  0.34418052  1  0.076286  0  0.095165  0.139772  0  1.016931  0
H  H61  1  0.38083644  0.61339942  0.34177604  1  0.028776  0  0.091002  0.128213  0  1.017673  0
H  H62  1  0.17633528  0.62965669  0.27866215  1  0.019903  0  0.084704  0.115608  0  1.006513  0
H  H63  1  0.03008126  0.41251113  0.43129515  1  0.092446  0  0.095187  0.139524  0  1.017008  0
H  H64  1  0.62940831  0.38675596  0.45458182  1  0.04176  0  0.091305  0.128576  0  1.015897  0
H  H65  1  0.84056251  0.37087817  0.40739863  1  0.017901  0  0.084613  0.115336  0  1.006625  0
H  H66  1  0.32291898  0.69892257  0.75914998  1  0.025923  0  0.088481  0.121317  0  0.997381  0
H  H67  1  0.24062624  0.73910551  0.79158416  1  0.036187  0  0.09496  0.136542  0  1.022682  0
H  H68  1  0.93957173  0.73586927  0.74746382  1  0.033159  0  0.092071  0.134776  0  1.020776  0
H  H69  1  0.66944399  0.96780795  0.62112643  1  0.038961  0  0.088088  0.121215  0  0.998693  0
H  H70  1  0.65352864  0.93184687  0.69492643  1  0.055043  0  0.09459  0.137755  0  1.015326  0
H  H71  1  0.01464657  0.92686990  0.66087436  1  0.067701  0  0.092649  0.137892  0  1.024255  0
H  H72  1  0.30930757  0.08966284  0.37876662  1  0.014759  0  0.088114  0.121866  0  0.997233  0
H  H73  1  0.36346930  0.12851078  0.30547344  1  0.047237  0  0.093453  0.134925  0  1.020652  0
H  H74  1  0.98957556  0.09273887  0.33365009  1  0.035338  0  0.092865  0.13879  0  1.024672  0
H  H75  1  0.70534434  0.95884360  0.24096962  1  0.025993  0  0.088592  0.121539  0  0.999095  0
H  H76  1  0.80622455  0.03027034  0.21035282  1  0.049948  0  0.095328  0.13807  0  1.020843  0
H  H77  1  0.08905559  0.97853910  0.25647001  1  0.052299  0  0.091677  0.133776  0  1.020973  0
H  H78  1  0.00527949  0.65495069  0.41220543  1  0.062342  0  0.095315  0.139818  0  1.016834  0
H  H79  1  0.60375139  0.65824049  0.38631201  1  0.037217  0  0.090902  0.128274  0  1.017455  0
H  H80  1  0.80763872  0.72099542  0.37050537  1  0.024429  0  0.084551  0.116024  0  1.006207  0
H  H81  1  0.96918438  0.56916758  0.58648588  1  0.08319  0  0.094728  0.139278  0  1.018284  0
H  H82  1  0.37191693  0.54554836  0.61259785  1  0.029919  0  0.091419  0.128845  0  1.015373  0
H  H83  1  0.15926307  0.59306752  0.62813970  1  0.013842  0  0.084592  0.115732  0  1.006738  0
C  C84  1  0.48891554  0.57455833  0.49948070  1  1.578881  0  0.272155  0.659148  0  4.05122  0
C  C85  1  0.50337239  0.42556560  0.57407894  1  1.55509  0  0.271351  0.658345  0  4.049378  0
C  C86  1  0.50346692  0.50002993  0.42529219  1  1.533885  0  0.271242  0.657487  0  4.050415  0
C  C87  1  0.45576598  0.90756895  0.83305964  1  1.561  0  0.28279  0.680905  0  4.048233  0
C  C88  1  0.46945181  0.75923539  0.90733093  1  1.555929  0  0.282513  0.680752  0  4.048801  0
C  C89  1  0.46941526  0.83306912  0.75913000  1  1.56131  0  0.282282  0.67918  0  4.049811  0
C  C90  1  0.54558377  0.16668701  0.09226400  1  1.570803  0  0.283087  0.68066  0  4.0482  0
C  C91  1  0.53144201  0.24073456  0.16660926  1  1.563206  0  0.28215  0.680025  0  4.048913  0
C  C92  1  0.54473474  0.09246509  0.24062119  1  1.553174  0  0.283222  0.681178  0  4.047736  0
C  C93  1  0.51045733  0.16619270  0.88460095  1  0.015721  0  -0.006324  0.081318  0  4.012203  0
C  C94  1  0.50464954  0.11616942  0.88382985  1  -0.060026  0  -0.08839  -0.170598  0  3.92463  0
C  C95  1  0.50058808  0.11516964  0.83399653  1  0.008675  0  -0.005525  0.082167  0  4.012199  0
C  C96  1  0.51072481  0.16594211  0.78395101  1  -0.042235  0  -0.089178  -0.174468  0  3.92901  0
C  C97  1  0.50920367  0.21688346  0.78298968  1  0.015589  0  -0.006292  0.081773  0  4.008695  0
C  C98  1  0.50533906  0.21620496  0.83370751  1  -0.050346  0  -0.088292  -0.173484  0  3.927467  0
C  C99  1  0.59320502  0.96139868  0.88042438  1  0.002198  0  -0.004396  0.160871  0  3.977723  0
C  C100  1  0.60781240  0.01217279  0.87918559  1  -0.05031  0  -0.095362  -0.202428  0  3.953363  0
C  C101  1  0.48648043  0.06188699  0.83419001  1  -0.015703  0  -0.008287  0.080485  0  4.035125  0
C  C102  1  0.34617912  0.05945611  0.78954873  1  -0.056864  0  -0.096036  -0.204281  0  3.952681  0
C  C103  1  0.33354008  0.00990966  0.78824748  1  0.058667  0  -0.004688  0.160377  0  3.978747  0
C  C104  1  0.45899025  0.96094779  0.83406630  1  -0.031473  0  -0.013112  -0.164499  0  3.878756  0
C  C105  1  0.39942889  0.12117084  0.98703228  1  -0.000295  0  -0.095478  -0.201924  0  3.953516  0
C  C106  1  0.41203535  0.11981316  0.03781970  1  -0.016743  0  -0.004619  0.159322  0  3.978245  0
C  C107  1  0.54214896  0.16606477  0.03875741  1  -0.009363  0  -0.013106  -0.164331  0  3.87801  0
C  C108  1  0.66446356  0.21199613  0.99019388  1  0.012223  0  -0.005231  0.159659  0  3.979663  0
C  C109  1  0.65444317  0.21075467  0.94066620  1  -0.038835  0  -0.094857  -0.20161  0  3.952433  0
C  C110  1  0.51949113  0.16611907  0.93778231  1  -0.034283  0  -0.008302  0.079779  0  4.03805  0
C  C111  1  0.63897350  0.31835278  0.72573555  1  -0.025047  0  -0.097208  -0.207841  0  3.954086  0
C  C112  1  0.64132488  0.36909496  0.67604451  1  -0.004909  0  0.004472  0.179332  0  3.938386  0
C  C113  1  0.50632721  0.37193093  0.62768720  1  -0.008292  0  -0.01382  -0.17674  0  3.850441  0
C  C114  1  0.37322202  0.32355866  0.63056777  1  -0.033034  0  0.003872  0.178069  0  3.940471  0
C  C115  1  0.37904118  0.27394181  0.68137342  1  -0.022047  0  -0.096513  -0.206359  0  3.954177  0
C  C116  1  0.50972357  0.27001264  0.72972068  1  -0.022066  0  -0.003681  0.092376  0  4.0289  0
C  C117  1  0.50717561  0.55090486  0.11542143  1  -0.028363  0  -0.006389  0.081772  0  4.014167  0
C  C118  1  0.50366410  0.49999545  0.11640549  1  -0.013353  0  -0.088705  -0.17229  0  3.926805  0
C  C119  1  0.50201099  0.44913326  0.16640290  1  -0.041362  0  -0.005723  0.082784  0  4.013554  0
C  C120  1  0.49720735  0.45006872  0.21629332  1  -0.03296  0  -0.089156  -0.174639  0  3.929228  0
C  C121  1  0.50809305  0.50013161  0.21695142  1  -0.006842  0  -0.00635  0.081791  0  4.012783  0
C  C122  1  0.51647923  0.55013862  0.16612645  1  -0.024992  0  -0.08848  -0.173744  0  3.929129  0
C  C123  1  0.38901784  0.34261510  0.12031998  1  -0.046199  0  -0.004382  0.159715  0  3.978789  0
C  C124  1  0.37934457  0.39220343  0.12163424  1  -0.020047  0  -0.095786  -0.202144  0  3.952146  0
C  C125  1  0.50475593  0.39580621  0.16655659  1  -0.02118  0  -0.008225  0.079134  0  4.037959  0
C  C126  1  0.64014193  0.34740383  0.21136689  1  0.000288  0  -0.095779  -0.201323  0  3.952462  0
C  C127  1  0.64828008  0.29651738  0.21259043  1  0.017756  0  -0.004513  0.158704  0  3.980142  0
C  C128  1  0.52238738  0.29467983  0.16652845  1  -0.021063  0  -0.013114  -0.16378  0  3.87972  0
C  C129  1  0.62660043  0.60788788  0.01331365  1  -0.053001  0  -0.095079  -0.20185  0  3.952951  0
C  C130  1  0.61487792  0.65745857  0.96243215  1  -0.048993  0  -0.004902  0.159875  0  3.978225  0
C  C131  1  0.47756817  0.70517256  0.96107055  1  -0.01164  0  -0.013201  -0.164621  0  3.878703  0
C  C132  1  0.34895177  0.70306880  0.00928639  1  0.019196  0  -0.004869  0.159466  0  3.978673  0
C  C133  1  0.35993661  0.65222211  0.05896842  1  0.007937  0  -0.096068  -0.20346  0  3.952793  0
C  C134  1  0.50037483  0.60412659  0.06219946  1  0.00783  0  -0.008214  0.080724  0  4.039191  0
C  C135  1  0.37357723  0.54499626  0.27376046  1  -0.079783  0  -0.096509  -0.205413  0  3.953596  0
C  C136  1  0.36752292  0.54606580  0.32335654  1  -0.021857  0  0.004066  0.177853  0  3.941057  0
C  C137  1  0.50657806  0.50016345  0.37170571  1  0.038508  0  -0.013789  -0.174638  0  3.848548  0
C  C138  1  0.64736025  0.45433368  0.36895420  1  0.016142  0  0.004321  0.17709  0  3.942144  0
C  C139  1  0.64383442  0.45540182  0.31829068  1  -0.103815  0  -0.096635  -0.206313  0  3.954726  0
C  C140  1  0.50909638  0.50018563  0.26999572  1  0.02345  0  -0.003857  0.091086  0  4.033338  0
C  C141  1  0.49909153  0.88480734  0.44922802  1  -0.022861  0  -0.00569  0.082372  0  4.012485  0
C  C142  1  0.50055936  0.88371619  0.50010807  1  -0.014247  0  -0.088831  -0.17127  0  3.924203  0
C  C143  1  0.49696616  0.83359118  0.55087736  1  -0.03981  0  -0.005448  0.082462  0  4.011931  0
C  C144  1  0.49785672  0.78367545  0.54981968  1  -0.026464  0  -0.089191  -0.174395  0  3.929631  0
C  C145  1  0.48841391  0.78313587  0.49975503  1  -0.023023  0  -0.006469  0.081341  0  4.012252  0
C  C146  1  0.48545460  0.83412707  0.44985406  1  -0.00549  0  -0.088668  -0.174774  0  3.929899  0
C  C147  1  0.60686072  0.87949772  0.65758005  1  -0.038282  0  -0.004391  0.159295  0  3.9792  0
C  C148  1  0.61648870  0.87819868  0.60807959  1  -0.031426  0  -0.095477  -0.201006  0  3.952043  0
C  C149  1  0.49339103  0.83339207  0.60415943  1  0.000959  0  -0.008432  0.078512  0  4.038007  0
C  C150  1  0.36071696  0.78865164  0.65223322  1  -0.049845  0  -0.095424  -0.201418  0  3.953607  0
C  C151  1  0.35349322  0.78735837  0.70305896  1  0.027971  0  -0.005305  0.158  0  3.982007  0
C  C152  1  0.47668061  0.83332577  0.70518569  1  -0.02491  0  -0.013113  -0.163671  0  3.879031  0
C  C153  1  0.38784679  0.98774049  0.39161372  1  -0.051319  0  -0.094479  -0.199796  0  3.953304  0
C  C154  1  0.40178156  0.03848447  0.34197890  1  -0.042353  0  -0.004905  0.159503  0  3.977822  0
C  C155  1  0.53954787  0.03902857  0.29495935  1  -0.010046  0  -0.013344  -0.164024  0  3.878322  0
C  C156  1  0.66776634  0.99016291  0.29787956  1  0.046775  0  -0.005078  0.159518  0  3.979523  0
C  C157  1  0.65431333  0.94060004  0.34876720  1  -0.059874  0  -0.095329  -0.20381  0  3.95114  0
C  C158  1  0.51188560  0.93812665  0.39611769  1  0.013104  0  -0.008539  0.079743  0  4.036435  0
C  C159  1  0.61693882  0.72601431  0.45495104  1  -0.011041  0  -0.097488  -0.206728  0  3.954551  0
C  C160  1  0.62147305  0.67641354  0.45373718  1  -0.005189  0  0.004589  0.178385  0  3.939685  0
C  C161  1  0.48513923  0.62822591  0.49939399  1  -0.047682  0  -0.013996  -0.177085  0  3.850352  0
C  C162  1  0.34759725  0.63124748  0.54503365  1  0.063577  0  0.003701  0.178656  0  3.939015  0
C  C163  1  0.35153717  0.68197517  0.54401350  1  -0.062443  0  -0.096505  -0.206804  0  3.951705  0
C  C164  1  0.48469624  0.73007454  0.49955496  1  -0.060073  0  -0.003206  0.093172  0  4.030451  0
C  C165  1  0.18228570  0.01034976  0.73865630  1  -0.032284  0  -0.240017  -0.414037  0  3.948624  0
C  C166  1  0.72958236  0.90955628  0.92999109  1  -0.085695  0  -0.241747  -0.418333  0  3.951144  0
C  C167  1  0.27875842  0.07016555  0.08920664  1  -0.040438  0  -0.240958  -0.416882  0  3.951547  0
C  C168  1  0.81030280  0.26158038  0.99020316  1  -0.047636  0  -0.240481  -0.416406  0  3.951914  0
C  C169  1  0.77999781  0.41840945  0.67745395  1  -0.086803  0  -0.240999  -0.410767  0  3.96582  0
C  C170  1  0.23137336  0.32204995  0.58139534  1  -0.040447  0  -0.241025  -0.410287  0  3.966342  0
C  C171  1  0.79835794  0.24610548  0.26207966  1  -0.050418  0  -0.240121  -0.415509  0  3.950371  0
C  C172  1  0.25077684  0.34142854  0.07078535  1  -0.045008  0  -0.241233  -0.417645  0  3.952556  0
C  C173  1  0.75608838  0.65890164  0.91136600  1  -0.025861  0  -0.241353  -0.417591  0  3.951062  0
C  C174  1  0.19341781  0.75318923  0.00867019  1  -0.039472  0  -0.240262  -0.415787  0  3.950291  0
C  C175  1  0.21894549  0.59700166  0.32191845  1  -0.050277  0  -0.241041  -0.4105  0  3.966644  0
C  C176  1  0.79425613  0.40337931  0.41821242  1  -0.075473  0  -0.241128  -0.409552  0  3.965551  0
C  C177  1  0.20835289  0.73781237  0.75319817  1  -0.015829  0  -0.240182  -0.414269  0  3.950254  0
C  C178  1  0.74132125  0.92908635  0.65892893  1  -0.097211  0  -0.241204  -0.417796  0  3.95169  0
C  C179  1  0.26064282  0.09023280  0.33970125  1  -0.027116  0  -0.241106  -0.417804  0  3.950811  0
C  C180  1  0.82349733  0.98982602  0.24854208  1  -0.065531  0  -0.240099  -0.415039  0  3.951449  0
C  C181  1  0.76678175  0.67772226  0.40295346  1  -0.06754  0  -0.241004  -0.410997  0  3.965128  0
C  C182  1  0.20461036  0.58211325  0.59580630  1  -0.062531  0  -0.240654  -0.410375  0  3.965979  0
O  O183  1  0.73982253  0.47441820  0.45973679  1  -1.260008  0  -0.236299  -0.599503  0  2.410076  0
O  O184  1  0.72607862  0.56541013  0.47396586  1  -1.265571  0  -0.236829  -0.600569  0  2.414558  0
O  O185  1  0.73459036  0.46009875  0.56509537  1  -1.26183  0  -0.236276  -0.599994  0  2.409203  0
O  O186  1  0.26430642  0.52555264  0.43426129  1  -1.253468  0  -0.235965  -0.599543  0  2.413078  0
O  O187  1  0.26946698  0.43457242  0.53956516  1  -1.257429  0  -0.236247  -0.600091  0  2.41137  0
O  O188  1  0.25574785  0.54021781  0.52501828  1  -1.263535  0  -0.236234  -0.59943  0  2.408282  0
O  O189  1  0.70478526  0.80729514  0.79350664  1  -1.263361  0  -0.233172  -0.599299  0  2.382127  0
O  O190  1  0.69106897  0.89895708  0.80701590  1  -1.264341  0  -0.234073  -0.60049  0  2.380232  0
O  O191  1  0.69957518  0.79369432  0.89863067  1  -1.260226  0  -0.233393  -0.59926  0  2.380206  0
O  O192  1  0.22892393  0.85863081  0.76749555  1  -1.255872  0  -0.232897  -0.600662  0  2.388698  0
O  O193  1  0.23384282  0.76764740  0.87344580  1  -1.255923  0  -0.232759  -0.601989  0  2.390497  0
O  O194  1  0.22024489  0.87386671  0.85827183  1  -1.259087  0  -0.232571  -0.601773  0  2.391845  0
O  O195  1  0.77856655  0.12628355  0.23203260  1  -1.254467  0  -0.232695  -0.601617  0  2.393282  0
O  O196  1  0.78398335  0.14128231  0.12608432  1  -1.26464  0  -0.232911  -0.600829  0  2.389912  0
O  O197  1  0.77004723  0.23232343  0.14097462  1  -1.258421  0  -0.233289  -0.602153  0  2.388499  0
O  O198  1  0.31295994  0.10101119  0.20606194  1  -1.260407  0  -0.234154  -0.600156  0  2.379597  0
O  O199  1  0.29934783  0.20641659  0.19222615  1  -1.263438  0  -0.232929  -0.597841  0  2.380493  0
O  O200  1  0.30807721  0.19260437  0.10083742  1  -1.263359  0  -0.233962  -0.599856  0  2.381192  0
