# generated using pymatgen
data_LaH27C31(NO5)2
_symmetry_space_group_name_H-M   'P 1'
_cell_length_a   10.19782350
_cell_length_b   12.82989514
_cell_length_c   26.32733307
_cell_angle_alpha   94.71838229
_cell_angle_beta   89.99983457
_cell_angle_gamma   89.99984978
_symmetry_Int_Tables_number   1
_chemical_formula_structural   LaH27C31(NO5)2
_chemical_formula_sum   'La4 H108 C124 N8 O40'
_cell_volume   3432.91588736
_cell_formula_units_Z   4
loop_
 _symmetry_equiv_pos_site_id
 _symmetry_equiv_pos_as_xyz
  1  'x, y, z'
loop_
 _atom_site_type_symbol
 _atom_site_label
 _atom_site_symmetry_multiplicity
 _atom_site_fract_x
 _atom_site_fract_y
 _atom_site_fract_z
 _atom_site_occupancy
 _atom_site_pbe_bader_charge
 _atom_site_pbe_bader_spin_density
 _atom_site_pbe_cm5_charge
 _atom_site_pbe_ddec_charge
 _atom_site_pbe_ddec_spin_density
 _atom_site_pbe_ddec_sum_bond_order
 _atom_site_pbe_magmom
La  La0  1  0.48899547  0.19444875  0.72082724  1  2.288904  0  1.405778  1.971751  0  2.425584  0
La  La1  1  0.98899588  0.30555029  0.77917189  1  2.288948  0  1.40581  1.971838  0  2.425369  0
La  La2  1  0.51100275  0.80555158  0.27917281  1  2.288919  0  1.405774  1.971744  0  2.425507  0
La  La3  1  0.01100235  0.69444925  0.22082774  1  2.288942  0  1.405777  1.971809  0  2.425434  0
H  H4  1  0.49178294  0.09384803  0.86807749  1  0.108209  0  0.104984  0.106319  0  1.031503  0
H  H5  1  0.99178116  0.40615178  0.63192204  1  0.108217  0  0.104957  0.10628  0  1.031569  0
H  H6  1  0.50821823  0.90615308  0.13192334  1  0.108204  0  0.104975  0.106253  0  1.031538  0
H  H7  1  0.00821804  0.59384854  0.36807724  1  0.108234  0  0.104967  0.106271  0  1.031469  0
H  H8  1  0.53224031  0.05836049  0.95888315  1  0.086293  0  0.094117  0.08912  0  1.03616  0
H  H9  1  0.03224140  0.44163724  0.54111606  1  0.086276  0  0.094118  0.089091  0  1.036191  0
H  H10  1  0.46775889  0.94163906  0.04111724  1  0.086299  0  0.094114  0.089129  0  1.03614  0
H  H11  1  0.96775780  0.55836229  0.45888320  1  0.086281  0  0.094114  0.089091  0  1.03617  0
H  H12  1  0.14613607  0.44462364  0.07067829  1  0.171485  0  0.128185  0.122579  0  1.024872  0
H  H13  1  0.64613227  0.05537971  0.42932055  1  0.171517  0  0.128198  0.122607  0  1.024863  0
H  H14  1  0.85386607  0.55537669  0.92932100  1  0.171438  0  0.128176  0.122536  0  1.024913  0
H  H15  1  0.35386988  0.94461983  0.57067908  1  0.171498  0  0.128183  0.122591  0  1.024861  0
H  H16  1  0.48659968  0.43029793  0.66357510  1  0.116995  0  0.109627  0.104714  0  1.041405  0
H  H17  1  0.98659848  0.06970189  0.83642482  1  0.11699  0  0.10963  0.104686  0  1.041425  0
H  H18  1  0.51340050  0.56970161  0.33642453  1  0.116977  0  0.10964  0.10475  0  1.041385  0
H  H19  1  0.01339974  0.93029921  0.16357564  1  0.116969  0  0.109682  0.10478  0  1.0414  0
H  H20  1  0.13325587  0.14668520  0.99606172  1  0.081261  0  0.095927  0.09293  0  1.026671  0
H  H21  1  0.63325718  0.35331465  0.50393784  1  0.081264  0  0.095906  0.092917  0  1.02669  0
H  H22  1  0.86674431  0.85331434  0.00393868  1  0.081246  0  0.095919  0.092901  0  1.026698  0
H  H23  1  0.36674202  0.64668567  0.49606182  1  0.08128  0  0.095919  0.092927  0  1.026679  0
H  H24  1  0.35395961  0.08988784  0.02323682  1  0.051613  0  0.094631  0.084548  0  1.03551  0
H  H25  1  0.85396115  0.41011190  0.47676241  1  0.051578  0  0.094618  0.084544  0  1.035498  0
H  H26  1  0.64604057  0.91011249  0.97676361  1  0.051636  0  0.094604  0.084547  0  1.035605  0
H  H27  1  0.14603805  0.58988842  0.52323687  1  0.051671  0  0.094599  0.084514  0  1.0355  0
H  H28  1  0.09959036  0.56122934  0.67898186  1  0.086944  0  0.106522  0.108885  0  1.002952  0
H  H29  1  0.59958904  0.93877089  0.82101827  1  0.086934  0  0.106523  0.108852  0  1.002954  0
H  H30  1  0.90040885  0.43877099  0.32101895  1  0.086983  0  0.10653  0.10888  0  1.002972  0
H  H31  1  0.40040820  0.06123100  0.17898070  1  0.086981  0  0.106516  0.108863  0  1.002945  0
H  H32  1  0.16389522  0.70361480  0.62469668  1  0.044006  0  0.09244  0.086882  0  1.043149  0
H  H33  1  0.66389495  0.79638371  0.87530254  1  0.043993  0  0.092446  0.086914  0  1.043116  0
H  H34  1  0.83610300  0.29638552  0.37530336  1  0.04402  0  0.092457  0.086871  0  1.043161  0
H  H35  1  0.33610131  0.20361661  0.12469674  1  0.044018  0  0.092446  0.086886  0  1.043134  0
H  H36  1  0.39011911  0.70743116  0.58894306  1  0.058755  0  0.092524  0.084053  0  1.030369  0
H  H37  1  0.89011956  0.79256761  0.91105592  1  0.058754  0  0.092536  0.084084  0  1.0304  0
H  H38  1  0.60987813  0.29257072  0.41105667  1  0.05869  0  0.092517  0.084055  0  1.030401  0
H  H39  1  0.10987670  0.20743193  0.08894333  1  0.058711  0  0.0925  0.084021  0  1.030399  0
H  H40  1  0.55101144  0.56992863  0.60808273  1  0.058659  0  0.093914  0.088796  0  1.033965  0
H  H41  1  0.05101095  0.93007014  0.89191625  1  0.058587  0  0.093898  0.088773  0  1.033993  0
H  H42  1  0.44898384  0.43007169  0.39191693  1  0.058622  0  0.093909  0.088786  0  1.03392  0
H  H43  1  0.94898433  0.06993018  0.10808341  1  0.058621  0  0.093912  0.088819  0  1.033913  0
H  H44  1  0.44662673  0.07170392  0.48242001  1  0.14014  0  0.100263  0.106741  0  1.06328  0
H  H45  1  0.94662671  0.42829405  0.01757904  1  0.139996  0  0.100277  0.106741  0  1.063314  0
H  H46  1  0.55337345  0.92829562  0.51758000  1  0.140167  0  0.100274  0.106763  0  1.063276  0
H  H47  1  0.05337347  0.57170236  0.98242047  1  0.140143  0  0.100255  0.106698  0  1.063333  0
H  H48  1  0.35299906  0.34029076  0.58485682  1  0.086968  0  0.105438  0.106719  0  1.035738  0
H  H49  1  0.85299895  0.15970936  0.91514326  1  0.086937  0  0.105438  0.106757  0  1.03573  0
H  H50  1  0.64699916  0.65970799  0.41514240  1  0.086934  0  0.105457  0.10678  0  1.035688  0
H  H51  1  0.14700026  0.84029096  0.08485755  1  0.086943  0  0.105432  0.106729  0  1.035709  0
H  H52  1  0.35494748  0.16020037  0.41020344  1  0.049008  0  0.099133  0.096145  0  1.003222  0
H  H53  1  0.85494526  0.33979545  0.08979525  1  0.049004  0  0.099172  0.096206  0  1.003257  0
H  H54  1  0.64505270  0.83979682  0.58979572  1  0.049064  0  0.099158  0.096187  0  1.003231  0
H  H55  1  0.14505394  0.66020174  0.91020467  1  0.049284  0  0.099132  0.096129  0  1.003243  0
H  H56  1  0.26543638  0.43151941  0.51202829  1  0.073784  0  0.097017  0.093916  0  1.046312  0
H  H57  1  0.76543504  0.06847779  0.98797064  1  0.073725  0  0.097033  0.093965  0  1.046236  0
H  H58  1  0.73456282  0.56847857  0.48797090  1  0.073756  0  0.097013  0.093904  0  1.04627  0
H  H59  1  0.23456318  0.93152018  0.01202856  1  0.073767  0  0.097025  0.093927  0  1.046258  0
H  H60  1  0.26234796  0.34091100  0.42495738  1  0.055112  0  0.104133  0.101549  0  0.993771  0
H  H61  1  0.76234743  0.15908660  0.07504149  1  0.05513  0  0.104135  0.10162  0  0.993737  0
H  H62  1  0.73765124  0.65908775  0.57504147  1  0.055133  0  0.104123  0.101515  0  0.993819  0
H  H63  1  0.23765080  0.84091059  0.92495805  1  0.055141  0  0.104129  0.101558  0  0.993787  0
H  H64  1  0.26515251  0.42905632  0.90577370  1  0.130425  0  0.115607  0.129193  0  1.019913  0
H  H65  1  0.76515605  0.07093853  0.59422475  1  0.13054  0  0.115546  0.129144  0  1.019917  0
H  H66  1  0.73484963  0.57093931  0.09422654  1  0.130451  0  0.115588  0.129193  0  1.019822  0
H  H67  1  0.23484512  0.92906180  0.40577567  1  0.130521  0  0.115549  0.129157  0  1.019873  0
H  H68  1  0.34362550  0.41105580  0.81656427  1  0.168508  0  0.144549  0.134747  0  0.987192  0
H  H69  1  0.84362929  0.08894435  0.68343468  1  0.168616  0  0.144557  0.134808  0  0.98725  0
H  H70  1  0.65637468  0.58894296  0.18343609  1  0.168479  0  0.144535  0.134715  0  0.987213  0
H  H71  1  0.15637089  0.91105676  0.31656539  1  0.168609  0  0.14458  0.134786  0  0.987224  0
H  H72  1  0.64361663  0.31036402  0.94985037  1  0.099187  0  0.106162  0.10986  0  1.05017  0
H  H73  1  0.14361653  0.18963579  0.55014462  1  0.099054  0  0.106169  0.109932  0  1.050078  0
H  H74  1  0.35638649  0.68963865  0.05014863  1  0.099201  0  0.10615  0.109848  0  1.050074  0
H  H75  1  0.85638366  0.81036532  0.44985584  1  0.099054  0  0.106107  0.109927  0  1.05009  0
H  H76  1  0.70547235  0.29755580  0.85880965  1  0.173864  0  0.140677  0.130776  0  1.020844  0
H  H77  1  0.20547545  0.20244935  0.64118586  1  0.173851  0  0.140656  0.130728  0  1.020863  0
H  H78  1  0.29452979  0.70244609  0.14118970  1  0.17391  0  0.140691  0.130807  0  1.020822  0
H  H79  1  0.79452376  0.79755098  0.35881457  1  0.173862  0  0.140644  0.130707  0  1.020869  0
H  H80  1  0.51858318  0.35606311  0.11302318  1  0.130576  0  0.134122  0.124285  0  0.969264  0
H  H81  1  0.01857876  0.14393817  0.38697382  1  0.129826  0  0.134128  0.124249  0  0.969273  0
H  H82  1  0.48141700  0.64393721  0.88697686  1  0.130571  0  0.13413  0.124317  0  0.96924  0
H  H83  1  0.98142338  0.85606294  0.61302663  1  0.129849  0  0.134145  0.124247  0  0.969278  0
H  H84  1  0.59519989  0.33676116  0.02313299  1  0.095241  0  0.107232  0.113594  0  1.033572  0
H  H85  1  0.09519965  0.16323760  0.47686383  1  0.09568  0  0.107267  0.113633  0  1.033478  0
H  H86  1  0.40480225  0.66323761  0.97686737  1  0.095284  0  0.107245  0.113615  0  1.033563  0
H  H87  1  0.90480249  0.83676116  0.52313653  1  0.09571  0  0.107271  0.11365  0  1.033441  0
H  H88  1  0.20297721  0.42570986  0.97892056  1  0.122473  0  0.112167  0.124991  0  1.034357  0
H  H89  1  0.70297638  0.07429217  0.52107825  1  0.122519  0  0.112191  0.124999  0  1.034326  0
H  H90  1  0.79702591  0.57428890  0.02107905  1  0.122755  0  0.112187  0.124994  0  1.03436  0
H  H91  1  0.29702478  0.92570737  0.47892138  1  0.122517  0  0.112165  0.124942  0  1.034371  0
H  H92  1  0.09557164  0.18125934  0.90503186  1  0.102527  0  0.104325  0.099973  0  1.061974  0
H  H93  1  0.59557239  0.31874138  0.59496739  1  0.102548  0  0.104338  0.099972  0  1.061975  0
H  H94  1  0.90442854  0.81874255  0.09496862  1  0.102521  0  0.10431  0.099918  0  1.062049  0
H  H95  1  0.40442681  0.68125895  0.40503265  1  0.102543  0  0.104333  0.099984  0  1.061981  0
H  H96  1  0.56624294  0.03338932  0.63147976  1  0.642739  0  0.284849  0.367898  0  0.988672  0
H  H97  1  0.06624152  0.46661068  0.86851950  1  0.642775  0  0.284802  0.367852  0  0.988757  0
H  H98  1  0.43375626  0.96661257  0.36851996  1  0.642747  0  0.284852  0.367924  0  0.988636  0
H  H99  1  0.93375965  0.53338886  0.13148013  1  0.64274  0  0.284892  0.367908  0  0.988666  0
H  H100  1  0.58449119  0.96711875  0.68106146  1  0.599818  0  0.33119  0.408373  0  0.874032  0
H  H101  1  0.08449156  0.53288151  0.81893792  1  0.599804  0  0.331214  0.408414  0  0.873949  0
H  H102  1  0.41551194  0.03288236  0.31893823  1  0.599792  0  0.331179  0.408388  0  0.874004  0
H  H103  1  0.91551254  0.46711959  0.18106215  1  0.599806  0  0.331197  0.408418  0  0.874023  0
H  H104  1  0.21780249  0.09321394  0.71611234  1  0.641998  0  0.300881  0.386874  0  0.950256  0
H  H105  1  0.71780253  0.40678962  0.78388612  1  0.642006  0  0.300896  0.386868  0  0.95026  0
H  H106  1  0.78219769  0.90678716  0.28388773  1  0.642002  0  0.30089  0.386883  0  0.950221  0
H  H107  1  0.28219667  0.59321149  0.21611357  1  0.642009  0  0.300895  0.386894  0  0.950222  0
H  H108  1  0.28230673  0.00666529  0.67848243  1  0.635249  0  0.290506  0.387951  0  0.949288  0
H  H109  1  0.78230621  0.49333500  0.82151773  1  0.63525  0  0.290476  0.387884  0  0.949383  0
H  H110  1  0.71769443  0.99333659  0.32151729  1  0.635236  0  0.290468  0.387889  0  0.949386  0
H  H111  1  0.21769299  0.50666611  0.17848234  1  0.635246  0  0.290484  0.387906  0  0.949357  0
C  C112  1  0.29160970  0.14044798  0.88169455  1  -0.033514  0  -0.021601  -0.053264  0  3.968219  0
C  C113  1  0.79160819  0.35955385  0.61830452  1  -0.033509  0  -0.021573  -0.053206  0  3.968174  0
C  C114  1  0.70839244  0.85955625  0.11830565  1  -0.033524  0  -0.021545  -0.05329  0  3.968293  0
C  C115  1  0.20839102  0.64044726  0.38169517  1  -0.03351  0  -0.021585  -0.053279  0  3.968209  0
C  C116  1  0.19024380  0.15390157  0.91756994  1  -0.110603  0  -0.084997  -0.090755  0  3.957571  0
C  C117  1  0.69024357  0.34609971  0.58242961  1  -0.110788  0  -0.085032  -0.09078  0  3.957603  0
C  C118  1  0.80975834  0.84610189  0.08243099  1  -0.110787  0  -0.085029  -0.090735  0  3.957603  0
C  C119  1  0.30975661  0.65390139  0.41757008  1  -0.110629  0  -0.085011  -0.090751  0  3.957632  0
C  C120  1  0.41419763  0.10399303  0.89654027  1  -0.074938  0  -0.08657  -0.094903  0  3.974132  0
C  C121  1  0.91419708  0.39600697  0.60346050  1  -0.074963  0  -0.086554  -0.094899  0  3.974149  0
C  C122  1  0.58580353  0.89600964  0.10345987  1  -0.074951  0  -0.086533  -0.094771  0  3.974163  0
C  C123  1  0.08580310  0.60399180  0.39654101  1  -0.07495  0  -0.086572  -0.094899  0  3.974158  0
C  C124  1  0.45678722  0.14782878  0.58344022  1  1.564322  0  0.216579  0.58191  0  4.201762  0
C  C125  1  0.95678646  0.35216642  0.91655879  1  1.564304  0  0.216579  0.582028  0  4.201531  0
C  C126  1  0.54321296  0.85217155  0.41655982  1  1.564293  0  0.216593  0.581918  0  4.201697  0
C  C127  1  0.04321373  0.64782999  0.08344110  1  1.564296  0  0.216522  0.581871  0  4.201764  0
C  C128  1  0.40535574  0.20051721  0.53842797  1  -0.05148  0  -0.023762  -0.052565  0  3.975393  0
C  C129  1  0.90535873  0.29948201  0.96157239  1  -0.051482  0  -0.023734  -0.05255  0  3.975248  0
C  C130  1  0.59464150  0.79948155  0.46157201  1  -0.05146  0  -0.023774  -0.052526  0  3.975304  0
C  C131  1  0.09464341  0.70051753  0.03842800  1  -0.051465  0  -0.023732  -0.052501  0  3.975265  0
C  C132  1  0.35340034  0.30181321  0.54638353  1  -0.01897  0  -0.08297  -0.089782  0  3.953163  0
C  C133  1  0.85339981  0.19818222  0.95361598  1  -0.01917  0  -0.083021  -0.089935  0  3.952961  0
C  C134  1  0.64659788  0.69818476  0.45361604  1  -0.019204  0  -0.082973  -0.089921  0  3.953121  0
C  C135  1  0.14659940  0.80181498  0.04638394  1  -0.019145  0  -0.082957  -0.089811  0  3.952981  0
C  C136  1  0.40656999  0.15032206  0.48909982  1  -0.051619  0  -0.090814  -0.111857  0  3.976034  0
C  C137  1  0.90657126  0.34967443  0.01089922  1  -0.051599  0  -0.09083  -0.111805  0  3.976231  0
C  C138  1  0.59343020  0.84967670  0.51089978  1  -0.051728  0  -0.090823  -0.111869  0  3.976046  0
C  C139  1  0.09342990  0.65032354  0.98910073  1  -0.05163  0  -0.09075  -0.111745  0  3.976275  0
C  C140  1  0.35473056  0.20043317  0.44840442  1  -0.121888  0  -0.096618  -0.092437  0  4.019565  0
C  C141  1  0.85473170  0.29956422  0.05159395  1  -0.12169  0  -0.096666  -0.092567  0  4.01983  0
C  C142  1  0.64526864  0.79956402  0.55159474  1  -0.121767  0  -0.096631  -0.092492  0  4.019655  0
C  C143  1  0.14526848  0.70043298  0.94840559  1  -0.122079  0  -0.09671  -0.092522  0  4.019784  0
C  C144  1  0.30300070  0.30145241  0.45657931  1  -0.022353  0  -0.08846  -0.084053  0  4.011566  0
C  C145  1  0.80299831  0.19854510  0.04341950  1  -0.022341  0  -0.088499  -0.084185  0  4.011684  0
C  C146  1  0.69699850  0.69854556  0.54341988  1  -0.022357  0  -0.088477  -0.084076  0  4.011682  0
C  C147  1  0.19699991  0.80145210  0.95658004  1  -0.022413  0  -0.088484  -0.084138  0  4.011609  0
C  C148  1  0.27232730  0.17311981  0.82870117  1  1.597171  0  0.235489  0.635239  0  4.173851  0
C  C149  1  0.77233138  0.32687972  0.67129898  1  1.597226  0  0.235532  0.635256  0  4.173878  0
C  C150  1  0.72766994  0.82688286  0.17129935  1  1.597216  0  0.235576  0.635348  0  4.173793  0
C  C151  1  0.22766978  0.67312061  0.32870106  1  1.597221  0  0.235537  0.635374  0  4.173662  0
C  C152  1  0.43603939  0.08467217  0.94721379  1  -0.076227  0  -0.098624  -0.092743  0  4.013503  0
C  C153  1  0.93604014  0.41532776  0.55278581  1  -0.076227  0  -0.098599  -0.092642  0  4.013413  0
C  C154  1  0.56396079  0.91532893  0.05278667  1  -0.076247  0  -0.098622  -0.092725  0  4.013526  0
C  C155  1  0.06395906  0.58467334  0.44721388  1  -0.076285  0  -0.098584  -0.09265  0  4.013399  0
C  C156  1  0.40504930  0.39194704  0.84820841  1  0.386724  0  0.052968  -0.023254  0  3.841353  0
C  C157  1  0.90505229  0.10805452  0.65178824  1  0.386582  0  0.053028  -0.023387  0  3.841467  0
C  C158  1  0.59495186  0.60805015  0.15179113  1  0.38674  0  0.053  -0.023185  0  3.841182  0
C  C159  1  0.09494495  0.89194502  0.34821063  1  0.386631  0  0.052945  -0.023419  0  3.841558  0
C  C160  1  0.44772576  0.37265587  0.93767705  1  -0.028958  0  0.003682  0.08039  0  3.99642  0
C  C161  1  0.94772738  0.12734168  0.56231940  1  -0.029005  0  0.003783  0.080575  0  3.996066  0
C  C162  1  0.55227737  0.62734367  0.06232296  1  -0.02897  0  0.003712  0.080465  0  3.996276  0
C  C163  1  0.05227476  0.87265630  0.43768055  1  -0.029073  0  0.003803  0.080572  0  3.996045  0
C  C164  1  0.57271039  0.33568968  0.92259688  1  5.1e-05  0  -0.077144  -0.143598  0  3.965895  0
C  C165  1  0.07271310  0.16430951  0.57740006  1  0.000155  0  -0.077254  -0.143903  0  3.965927  0
C  C166  1  0.42729274  0.66430908  0.07740310  1  8.1e-05  0  -0.077141  -0.143617  0  3.965729  0
C  C167  1  0.92728806  0.83568925  0.42260030  1  0.000148  0  -0.077246  -0.143973  0  3.965916  0
C  C168  1  0.61022840  0.32663447  0.87208568  1  0.428996  0  0.050789  -0.025279  0  3.817055  0
C  C169  1  0.11023071  0.17336464  0.62791007  1  0.429552  0  0.05091  -0.025  0  3.81701  0
C  C170  1  0.38977472  0.67336585  0.12791398  1  0.429004  0  0.050826  -0.025265  0  3.817056  0
C  C171  1  0.88977045  0.82663491  0.37209032  1  0.429563  0  0.050951  -0.024962  0  3.816963  0
C  C172  1  0.40695606  0.38099572  0.99129917  1  -0.028857  0  -0.001446  0.072511  0  3.986803  0
C  C173  1  0.90695321  0.11900115  0.50869845  1  -0.029115  0  -0.001553  0.072352  0  3.986982  0
C  C174  1  0.59304510  0.61900226  0.00870117  1  -0.028838  0  -0.001493  0.072419  0  3.986833  0
C  C175  1  0.09304697  0.88099839  0.49130119  1  -0.029024  0  -0.001587  0.072344  0  3.986815  0
C  C176  1  0.49404295  0.36022247  0.03072574  1  0.010512  0  -0.076621  -0.13876  0  3.986044  0
C  C177  1  0.99404151  0.13977616  0.46927138  1  0.010265  0  -0.076671  -0.138827  0  3.985861  0
C  C178  1  0.50595920  0.63977786  0.96927392  1  0.010533  0  -0.076637  -0.13872  0  3.986015  0
C  C179  1  0.00596161  0.86022181  0.53072895  1  0.010294  0  -0.07668  -0.138836  0  3.985742  0
C  C180  1  0.45534821  0.36987428  0.08102179  1  0.362057  0  0.028574  -0.063033  0  3.896422  0
C  C181  1  0.95534522  0.13012757  0.41897551  1  0.362747  0  0.028606  -0.062979  0  3.8962  0
C  C182  1  0.54465295  0.63012761  0.91897832  1  0.362036  0  0.028529  -0.063152  0  3.896403  0
C  C183  1  0.04465692  0.86987197  0.58102488  1  0.362734  0  0.028619  -0.062941  0  3.896207  0
C  C184  1  0.27902158  0.41073442  0.00652753  1  0.067883  0  -0.074332  -0.133497  0  3.94645  0
C  C185  1  0.77902210  0.08926705  0.49347071  1  0.067902  0  -0.074316  -0.133378  0  3.946608  0
C  C186  1  0.72098056  0.58926434  0.99347208  1  0.067722  0  -0.074311  -0.133496  0  3.946458  0
C  C187  1  0.22098005  0.91073171  0.50652965  1  0.068035  0  -0.074243  -0.133279  0  3.946445  0
C  C188  1  0.24320491  0.42035813  0.05724864  1  0.274488  0  0.029975  -0.055061  0  3.849686  0
C  C189  1  0.74320093  0.07964420  0.44274930  1  0.274583  0  0.029952  -0.055142  0  3.84981  0
C  C190  1  0.75679919  0.57964297  0.94275030  1  0.274527  0  0.030025  -0.05492  0  3.849734  0
C  C191  1  0.25680023  0.92035612  0.55725075  1  0.274452  0  0.029949  -0.055146  0  3.84989  0
C  C192  1  0.24793491  0.40263560  0.70711563  1  1.577267  0  0.230384  0.624658  0  4.187983  0
C  C193  1  0.74793689  0.09736633  0.79288501  1  1.577288  0  0.230416  0.624628  0  4.188074  0
C  C194  1  0.75206429  0.59736551  0.29288482  1  1.577649  0  0.230404  0.624551  0  4.188137  0
C  C195  1  0.25206231  0.90263712  0.20711591  1  1.577205  0  0.230396  0.624626  0  4.18796  0
C  C196  1  0.28862201  0.48718030  0.67421952  1  0.00797  0  -0.020359  -0.052293  0  3.971861  0
C  C197  1  0.78862010  0.01281919  0.82578061  1  0.007974  0  -0.020336  -0.052239  0  3.97184  0
C  C198  1  0.71138013  0.51282159  0.32578059  1  0.007576  0  -0.020364  -0.052208  0  3.971751  0
C  C199  1  0.21137813  0.98718113  0.17422019  1  0.007999  0  -0.020339  -0.052239  0  3.971813  0
C  C200  1  0.41618263  0.48994273  0.65448669  1  -0.077653  0  -0.079177  -0.086583  0  3.956158  0
C  C201  1  0.91618254  0.01005726  0.84551293  1  -0.077626  0  -0.079163  -0.08657  0  3.956111  0
C  C202  1  0.58381657  0.51005838  0.34551339  1  -0.077649  0  -0.079199  -0.086659  0  3.956137  0
C  C203  1  0.08381568  0.98994463  0.15448755  1  -0.077621  0  -0.079248  -0.08671  0  3.956221  0
C  C204  1  0.36445417  0.40074055  0.89837396  1  0.011337  0  -0.073687  -0.148099  0  3.952792  0
C  C205  1  0.86445854  0.09925642  0.60162408  1  0.010994  0  -0.073659  -0.148018  0  3.952604  0
C  C206  1  0.63554798  0.59925743  0.10162637  1  0.011214  0  -0.073684  -0.148139  0  3.95267  0
C  C207  1  0.13554263  0.90074234  0.39837628  1  0.010982  0  -0.073656  -0.148022  0  3.952452  0
C  C208  1  0.21216597  0.13482933  0.96822965  1  0.005558  0  -0.096655  -0.089828  0  4.011845  0
C  C209  1  0.71216508  0.36517269  0.53177028  1  0.005715  0  -0.096637  -0.08982  0  4.011818  0
C  C210  1  0.78783618  0.86517413  0.03177128  1  0.005753  0  -0.096625  -0.089696  0  4.011742  0
C  C211  1  0.28783315  0.63482842  0.46822979  1  0.005573  0  -0.096637  -0.089854  0  4.011787  0
C  C212  1  0.33581196  0.10165223  0.98324674  1  -0.080034  0  -0.093962  -0.086699  0  4.021776  0
C  C213  1  0.83581401  0.39834794  0.51675260  1  -0.080015  0  -0.09399  -0.086771  0  4.021704  0
C  C214  1  0.66418822  0.89834888  0.01675410  1  -0.080018  0  -0.093998  -0.086869  0  4.022005  0
C  C215  1  0.16418519  0.60165317  0.48324709  1  -0.080096  0  -0.093972  -0.086676  0  4.021581  0
C  C216  1  0.30347897  0.35222534  0.50567638  1  -0.084288  0  -0.093483  -0.088637  0  4.001973  0
C  C217  1  0.80347634  0.14777100  0.99432399  1  -0.084138  0  -0.093429  -0.088519  0  4.001806  0
C  C218  1  0.69651925  0.64777264  0.49432281  1  -0.084093  0  -0.093467  -0.08851  0  4.001928  0
C  C219  1  0.19652188  0.85222620  0.00567669  1  -0.084137  0  -0.093444  -0.088547  0  4.001878  0
C  C220  1  0.19796336  0.56422267  0.66299414  1  -0.065974  0  -0.086407  -0.095  0  3.976626  0
C  C221  1  0.69796291  0.93577655  0.83700546  1  -0.065979  0  -0.086426  -0.094914  0  3.976598  0
C  C222  1  0.80203388  0.43577688  0.33700663  1  -0.065953  0  -0.086425  -0.095018  0  3.976637  0
C  C223  1  0.30203433  0.06422534  0.16299427  1  -0.065944  0  -0.08642  -0.094961  0  3.976552  0
C  C224  1  0.23419167  0.64296218  0.63238048  1  -0.052127  0  -0.098514  -0.088175  0  4.024086  0
C  C225  1  0.73419321  0.85703696  0.86761907  1  -0.052102  0  -0.098493  -0.08823  0  4.024088  0
C  C226  1  0.76580558  0.35703814  0.36761995  1  -0.052118  0  -0.098475  -0.088091  0  4.024149  0
C  C227  1  0.26580403  0.14296415  0.13238062  1  -0.052118  0  -0.098503  -0.08817  0  4.024058  0
C  C228  1  0.36138750  0.64533895  0.61260936  1  -0.10634  0  -0.092298  -0.076607  0  4.005155  0
C  C229  1  0.86138793  0.85465989  0.88738965  1  -0.106343  0  -0.092319  -0.076709  0  4.00529  0
C  C230  1  0.63860974  0.35466137  0.38739030  1  -0.106335  0  -0.092305  -0.076659  0  4.005319  0
C  C231  1  0.13860833  0.14534200  0.11261045  1  -0.106371  0  -0.092292  -0.076598  0  4.005221  0
C  C232  1  0.45201771  0.56864224  0.62363672  1  0.001182  0  -0.096532  -0.090536  0  4.013233  0
C  C233  1  0.95201993  0.93135718  0.87636336  1  0.001241  0  -0.096528  -0.090474  0  4.013193  0
C  C234  1  0.54798051  0.43135808  0.37636256  1  0.001232  0  -0.096536  -0.09053  0  4.01324  0
C  C235  1  0.04797927  0.06864471  0.12363827  1  0.001182  0  -0.096524  -0.090556  0  4.013245  0
N  N236  1  0.52667733  0.35480860  0.83532681  1  -0.655768  0  -0.109373  0.337191  0  3.955925  0
N  N237  1  0.02668044  0.14519462  0.66467110  1  -0.655987  0  -0.109367  0.337149  0  3.956288  0
N  N238  1  0.47332285  0.64519172  0.16467285  1  -0.655795  0  -0.10942  0.337126  0  3.956011  0
N  N239  1  0.97332072  0.85480493  0.33532891  1  -0.656039  0  -0.109346  0.337224  0  3.956465  0
N  N240  1  0.33065484  0.40044888  0.09470742  1  -0.6002  0  -0.109028  0.330326  0  4.018344  0
N  N241  1  0.83065009  0.09955326  0.40529040  1  -0.600288  0  -0.108932  0.330466  0  4.018571  0
N  N242  1  0.66934828  0.59955223  0.90529303  1  -0.60035  0  -0.10903  0.330291  0  4.018437  0
N  N243  1  0.16935107  0.90044785  0.59470929  1  -0.600335  0  -0.10901  0.330328  0  4.01866  0
O  O244  1  0.43165907  0.19209286  0.62724716  1  -1.199925  0  -0.372868  -0.625721  0  2.327438  0
O  O245  1  0.93165780  0.30790474  0.87275236  1  -1.200004  0  -0.372811  -0.625755  0  2.327548  0
O  O246  1  0.56834013  0.80790981  0.37275336  1  -1.199887  0  -0.372853  -0.625756  0  2.327529  0
O  O247  1  0.06833944  0.69209480  0.12724766  1  -1.199969  0  -0.372838  -0.625721  0  2.327499  0
O  O248  1  0.52153062  0.06257875  0.57551788  1  -1.197859  0  -0.316992  -0.561175  0  2.195238  0
O  O249  1  0.02152986  0.43741745  0.92448166  1  -1.197742  0  -0.317045  -0.561256  0  2.195054  0
O  O250  1  0.47846957  0.93742158  0.42448292  1  -1.19787  0  -0.317037  -0.561202  0  2.195224  0
O  O251  1  0.97847229  0.56257975  0.07551864  1  -1.197792  0  -0.316987  -0.561179  0  2.195282  0
O  O252  1  0.37246054  0.17320528  0.80025907  1  -1.211805  0  -0.386618  -0.630004  0  2.343377  0
O  O253  1  0.87245950  0.32679636  0.69973953  1  -1.211871  0  -0.386582  -0.629985  0  2.343442  0
O  O254  1  0.62754063  0.82679739  0.19974069  1  -1.21186  0  -0.386644  -0.630046  0  2.343424  0
O  O255  1  0.12753872  0.67320318  0.30025973  1  -1.211864  0  -0.386599  -0.630038  0  2.34332  0
O  O256  1  0.56328533  0.34526542  0.78706828  1  -0.657171  0  -0.256655  -0.530766  0  2.067781  0
O  O257  1  0.06328904  0.15474005  0.71292816  1  -0.656991  0  -0.25674  -0.530812  0  2.068092  0
O  O258  1  0.43671387  0.65473412  0.21293135  1  -0.657144  0  -0.256654  -0.53076  0  2.067903  0
O  O259  1  0.93671311  0.84525949  0.28707185  1  -0.656972  0  -0.256717  -0.530795  0  2.068076  0
O  O260  1  0.32836786  0.32894783  0.71340511  1  -1.220782  0  -0.404761  -0.663712  0  2.352132  0
O  O261  1  0.82836474  0.17105314  0.78659541  1  -1.220825  0  -0.404763  -0.663651  0  2.352239  0
O  O262  1  0.67163723  0.67105485  0.28659578  1  -1.220792  0  -0.404761  -0.663601  0  2.352252  0
O  O263  1  0.17163251  0.82894797  0.21340542  1  -1.220824  0  -0.404741  -0.663708  0  2.352135  0
O  O264  1  0.30397881  0.06169248  0.70592778  1  -1.278322  0  -0.638214  -0.832495  0  2.037958  0
O  O265  1  0.80397769  0.43831011  0.79407132  1  -1.278324  0  -0.638209  -0.83245  0  2.038043  0
O  O266  1  0.69602137  0.93830941  0.29407271  1  -1.27831  0  -0.638194  -0.832459  0  2.038004  0
O  O267  1  0.19602151  0.56169022  0.20592873  1  -1.278327  0  -0.638215  -0.83249  0  2.03798  0
O  O268  1  0.60176999  0.03401569  0.66762346  1  -1.254131  0  -0.607222  -0.807226  0  2.050381  0
O  O269  1  0.10176884  0.46598423  0.83237613  1  -1.254123  0  -0.607201  -0.807232  0  2.050337  0
O  O270  1  0.39822823  0.96598620  0.33237702  1  -1.254119  0  -0.607198  -0.807252  0  2.050315  0
O  O271  1  0.89823330  0.53401609  0.16762391  1  -1.254102  0  -0.607264  -0.807293  0  2.050368  0
O  O272  1  0.15849909  0.20273021  0.81610476  1  -1.214082  0  -0.395819  -0.635338  0  2.282528  0
O  O273  1  0.65849827  0.29726723  0.68389505  1  -1.214026  0  -0.395882  -0.635369  0  2.282471  0
O  O274  1  0.84150208  0.79726855  0.18389560  1  -1.214049  0  -0.395876  -0.635381  0  2.282433  0
O  O275  1  0.34149897  0.70273387  0.31610464  1  -1.214034  0  -0.395859  -0.635391  0  2.282445  0
O  O276  1  0.13428411  0.40863994  0.72690257  1  -1.204631  0  -0.384315  -0.628399  0  2.268352  0
O  O277  1  0.63428135  0.09136069  0.77309777  1  -1.204615  0  -0.384353  -0.628449  0  2.268298  0
O  O278  1  0.86571706  0.59135960  0.27309782  1  -1.204626  0  -0.384345  -0.628426  0  2.268348  0
O  O279  1  0.36571393  0.90864042  0.22690192  1  -1.204579  0  -0.384318  -0.628369  0  2.268286  0
O  O280  1  0.29712985  0.40795560  0.14249796  1  -0.61579  0  -0.228466  -0.464265  0  1.913009  0
O  O281  1  0.79712450  0.09204818  0.35750073  1  -0.615941  0  -0.228547  -0.464368  0  1.913124  0
O  O282  1  0.70287131  0.59204707  0.85750217  1  -0.615795  0  -0.228449  -0.464224  0  1.912987  0
O  O283  1  0.20287667  0.90795371  0.64249976  1  -0.615949  0  -0.228509  -0.464302  0  1.91312  0
