# generated using pymatgen
data_ZnH5C10NO4
_symmetry_space_group_name_H-M   'P 1'
_cell_length_a   10.60478365
_cell_length_b   11.87762141
_cell_length_c   13.78339459
_cell_angle_alpha   89.99781870
_cell_angle_beta   98.07479165
_cell_angle_gamma   90.00023625
_symmetry_Int_Tables_number   1
_chemical_formula_structural   ZnH5C10NO4
_chemical_formula_sum   'Zn2 H10 C20 N2 O8'
_cell_volume   1718.93796623
_cell_formula_units_Z   2
loop_
 _symmetry_equiv_pos_site_id
 _symmetry_equiv_pos_as_xyz
  1  'x, y, z'
loop_
 _atom_site_type_symbol
 _atom_site_label
 _atom_site_symmetry_multiplicity
 _atom_site_fract_x
 _atom_site_fract_y
 _atom_site_fract_z
 _atom_site_occupancy
 _atom_site_pbe_bader_charge
 _atom_site_pbe_bader_spin_density
 _atom_site_pbe_cm5_charge
 _atom_site_pbe_ddec_charge
 _atom_site_pbe_ddec_spin_density
 _atom_site_pbe_ddec_sum_bond_order
 _atom_site_pbe_magmom
Zn  Zn0  1  0.37209827  0.49884206  0.50196883  1  1.310211  0  0.684023  0.869641  0  2.433258  0
Zn  Zn1  1  0.62790683  0.49884768  0.49803891  1  1.311812  0  0.68397  0.869656  0  2.433452  0
H  H2  1  0.33593261  0.34440346  0.89407440  1  0.034371  0  0.088731  0.116913  0  1.001092  0
H  H3  1  0.66605470  0.55502464  0.12367641  1  0.059318  0  0.097046  0.098675  0  0.98773  0
H  H4  1  0.24928799  0.35524836  0.99534290  1  0.036423  0  0.087575  0.114203  0  1.002809  0
H  H5  1  0.17721390  0.39680967  0.87637253  1  0.02706  0  0.087827  0.114943  0  0.998501  0
H  H6  1  0.24694496  0.56747054  0.97698779  1  0.023444  0  0.097259  0.095766  0  0.965494  0
H  H7  1  0.33395409  0.55499736  0.87632623  1  0.059584  0  0.097022  0.098682  0  0.987503  0
H  H8  1  0.66411472  0.34443152  0.10595219  1  0.034246  0  0.088801  0.11702  0  1.00096  0
H  H9  1  0.75076120  0.35528709  0.00468063  1  0.036735  0  0.087522  0.114224  0  1.002871  0
H  H10  1  0.82282860  0.39685690  0.12365329  1  0.026494  0  0.088007  0.115207  0  0.998216  0
H  H11  1  0.75306671  0.56751268  0.02301909  1  0.026506  0  0.097365  0.095963  0  0.965222  0
C  C12  1  0.49997887  0.28021692  0.50000106  1  1.739257  0  0.22353  0.66458  0  4.238666  0
C  C13  1  0.56481801  0.51345398  0.88300588  1  -0.512254  0  -0.01744  -0.027573  0  4.112771  0
C  C14  1  0.49997874  0.15875069  0.49997983  1  0.119331  0  -0.012815  -0.139786  0  3.855627  0
C  C15  1  0.49996389  0.83905356  0.49996201  1  0.081221  0  -0.011321  -0.135405  0  3.855459  0
C  C16  1  0.49997104  0.05571238  0.49996405  1  -0.343132  0  -0.012853  0.024326  0  4.242987  0
C  C17  1  0.49996191  0.94207082  0.49996084  1  -0.144747  0  -0.013426  0.021351  0  4.243502  0
C  C18  1  0.93499605  0.49855194  0.49621091  1  0.96227  0  0.306727  0.2989  0  3.901297  0
C  C19  1  0.06501566  0.49854677  0.50379099  1  1.068456  0  0.306832  0.299  0  3.901868  0
C  C20  1  0.31777273  0.51615132  0.94589180  1  0.007094  0  -0.155815  -0.144769  0  3.975472  0
C  C21  1  0.26700686  0.39595249  0.92696880  1  -0.054827  0  -0.238714  -0.344706  0  3.958685  0
C  C22  1  0.68224765  0.51618341  0.05412492  1  0.003829  0  -0.155773  -0.144583  0  3.975517  0
C  C23  1  0.49996408  0.71759069  0.49997492  1  1.685878  0  0.221971  0.661914  0  4.240826  0
C  C24  1  0.73302799  0.39599572  0.07305263  1  -0.05427  0  -0.238953  -0.34523  0  3.958598  0
C  C25  1  0.45124962  0.50262159  0.31067647  1  1.68176  0  0.219875  0.672766  0  4.225814  0
C  C26  1  0.54874403  0.50263786  0.68932852  1  1.681674  0  0.219885  0.672762  0  4.225533  0
C  C27  1  0.56565681  0.50811731  0.79459181  1  0.189926  0  -0.042475  -0.187557  0  3.935157  0
C  C28  1  0.43435020  0.50810140  0.20541727  1  0.189685  0  -0.042485  -0.187595  0  3.935277  0
C  C29  1  0.55902206  0.51800736  0.98435002  1  0.156075  0  0.017028  0.087065  0  3.96896  0
C  C30  1  0.44100201  0.51799898  0.01565396  1  0.048719  0  0.017169  0.087613  0  3.968569  0
C  C31  1  0.43519850  0.51343774  0.11700328  1  -0.511765  0  -0.017471  -0.027727  0  4.112588  0
N  N32  1  0.82458992  0.49877415  0.48971113  1  -0.958404  0  -0.169573  -0.136753  0  2.940708  0
N  N33  1  0.17541710  0.49875900  0.51029753  1  -0.958841  0  -0.169616  -0.136812  0  2.941335  0
O  O34  1  0.39790066  0.32802306  0.51747183  1  -1.131476  0  -0.312112  -0.539929  0  2.244799  0
O  O35  1  0.60869675  0.66990930  0.51484631  1  -1.133253  0  -0.311764  -0.539334  0  2.24427  0
O  O36  1  0.60208191  0.32803179  0.48254576  1  -1.131573  0  -0.312323  -0.540256  0  2.244318  0
O  O37  1  0.39125359  0.66990955  0.48512769  1  -1.133613  0  -0.311847  -0.539176  0  2.244238  0
O  O38  1  0.35407695  0.48244219  0.35320466  1  -1.130268  0  -0.319363  -0.547712  0  2.237285  0
O  O39  1  0.64593671  0.48245817  0.64680015  1  -1.130039  0  -0.31941  -0.547824  0  2.236678  0
O  O40  1  0.56533724  0.51880426  0.35253845  1  -1.136425  0  -0.316337  -0.549289  0  2.260686  0
O  O41  1  0.43466879  0.51879668  0.64746873  1  -1.136492  0  -0.316279  -0.549153  0  2.260911  0
