# generated using pymatgen
data_CdH16C24SN10
_symmetry_space_group_name_H-M   'P 1'
_cell_length_a   9.66779542
_cell_length_b   12.10872037
_cell_length_c   12.54976279
_cell_angle_alpha   116.05839488
_cell_angle_beta   94.90388968
_cell_angle_gamma   106.39919014
_symmetry_Int_Tables_number   1
_chemical_formula_structural   CdH16C24SN10
_chemical_formula_sum   'Cd2 H32 C48 S2 N20'
_cell_volume   1228.11659732
_cell_formula_units_Z   2
loop_
 _symmetry_equiv_pos_site_id
 _symmetry_equiv_pos_as_xyz
  1  'x, y, z'
loop_
 _atom_site_type_symbol
 _atom_site_label
 _atom_site_symmetry_multiplicity
 _atom_site_fract_x
 _atom_site_fract_y
 _atom_site_fract_z
 _atom_site_occupancy
 _atom_site_hle17_bader_spin_density
 _atom_site_hle17_ddec_charge
 _atom_site_hle17_ddec_spin_density
 _atom_site_hle17_ddec_sum_bond_order
 _atom_site_hle17_magmom
 _atom_site_hse06_10hf_bader_spin_density
 _atom_site_hse06_10hf_ddec_charge
 _atom_site_hse06_10hf_ddec_spin_density
 _atom_site_hse06_10hf_ddec_sum_bond_order
 _atom_site_hse06_10hf_magmom
 _atom_site_hse06_bader_spin_density
 _atom_site_hse06_ddec_charge
 _atom_site_hse06_ddec_spin_density
 _atom_site_hse06_ddec_sum_bond_order
 _atom_site_hse06_magmom
 _atom_site_pbe_bader_spin_density
 _atom_site_pbe_cm5_charge
 _atom_site_pbe_ddec_charge
 _atom_site_pbe_ddec_spin_density
 _atom_site_pbe_ddec_sum_bond_order
 _atom_site_pbe_magmom
Cd  Cd0  1  0.22794059  0.23254936  0.57059274  1  0  0.976627  0  1.938511  0  0  0.781306  0  2.418223  0  0  0.827175  0  2.38069  0  0  0.793258  0.749983  0  2.442768  0
Cd  Cd1  1  0.77206179  0.76745124  0.42940743  1  0  0.976634  0  1.938498  0  0  0.781299  0  2.418197  0  0  0.827167  0  2.380666  0  0  0.793218  0.749957  0  2.442749  0
H  H2  1  0.63627709  0.04261148  0.66885086  1  0  0.113012  0  1.000935  0  0  0.116734  0  1.073322  0  0  0.120273  0  1.071919  0  0  0.099923  0.114464  0  1.074283  0
H  H3  1  0.36372303  0.95738903  0.33115466  1  0  0.11303  0  1.000959  0  0  0.116759  0  1.073334  0  0  0.120301  0  1.071934  0  0  0.09992  0.114488  0  1.074302  0
H  H4  1  0.47891734  0.10320050  0.55290821  1  0  0.082856  0  0.95007  0  0  0.091411  0  1.014656  0  0  0.093164  0  1.013446  0  0  0.118122  0.090193  0  1.015536  0
H  H5  1  0.52108615  0.89679518  0.44709234  1  0  0.082897  0  0.950055  0  0  0.091449  0  1.014629  0  0  0.093202  0  1.013419  0  0  0.118155  0.090227  0  1.015512  0
H  H6  1  0.34395924  0.31586770  0.85931321  1  0  0.076085  0  0.946365  0  0  0.08436  0  1.012012  0  0  0.086079  0  1.011104  0  0  0.113332  0.082984  0  1.012934  0
H  H7  1  0.65603788  0.68412994  0.14068288  1  0  0.076069  0  0.94636  0  0  0.084341  0  1.01202  0  0  0.08606  0  1.011112  0  0  0.113325  0.082965  0  1.012942  0
H  H8  1  0.49417012  0.26538476  0.98856565  1  0  0.100688  0  0.988036  0  0  0.110163  0  1.050088  0  0  0.112265  0  1.051765  0  0  0.100811  0.10869  0  1.049149  0
H  H9  1  0.50582453  0.73461477  0.01143503  1  0  0.100695  0  0.988064  0  0  0.110182  0  1.050099  0  0  0.112285  0  1.051771  0  0  0.100813  0.108704  0  1.04917  0
H  H10  1  0.84244291  0.39280155  0.01860335  1  0  0.117157  0  0.93715  0  0  0.125181  0  0.999387  0  0  0.128711  0  0.997718  0  0  0.109932  0.122743  0  1.000534  0
H  H11  1  0.15755310  0.60719316  0.98138981  1  0  0.117194  0  0.937177  0  0  0.125235  0  0.999392  0  0  0.128756  0  0.997734  0  0  0.109954  0.122793  0  1.000539  0
H  H12  1  0.86031812  0.61688518  0.17166952  1  0  0.078627  0  0.973819  0  0  0.082927  0  1.046951  0  0  0.085445  0  1.044308  0  0  0.111321  0.080935  0  1.049081  0
H  H13  1  0.13968036  0.38311053  0.82832427  1  0  0.078654  0  0.973814  0  0  0.082952  0  1.046946  0  0  0.08547  0  1.044301  0  0  0.111314  0.080957  0  1.049081  0
H  H14  1  0.66061120  0.48041059  0.39118202  1  0  0.091859  0  0.940749  0  0  0.099309  0  1.004624  0  0  0.101994  0  1.002247  0  0  0.117471  0.097343  0  1.006467  0
H  H15  1  0.33939292  0.51958907  0.60881629  1  0  0.091775  0  0.940749  0  0  0.099228  0  1.004622  0  0  0.101916  0  1.002246  0  0  0.117445  0.097264  0  1.006462  0
H  H16  1  0.64689217  0.25266643  0.25543775  1  0  0.106651  0  1.000033  0  0  0.108446  0  1.07611  0  0  0.111741  0  1.0752  0  0  0.098435  0.106269  0  1.076622  0
H  H17  1  0.35310943  0.74733220  0.74456152  1  0  0.10663  0  1.000048  0  0  0.108421  0  1.076151  0  0  0.111714  0  1.075244  0  0  0.098418  0.106244  0  1.076658  0
H  H18  1  0.04192826  0.28153450  0.18708778  1  0  0.102136  0  0.992661  0  0  0.111696  0  1.054446  0  0  0.113236  0  1.056791  0  0  0.101536  0.110593  0  1.052919  0
H  H19  1  0.95806819  0.71846699  0.81291468  1  0  0.102327  0  0.992639  0  0  0.111848  0  1.054428  0  0  0.113389  0  1.056772  0  0  0.101622  0.110744  0  1.052907  0
H  H20  1  0.19930638  0.34373195  0.38741111  1  0  0.083278  0  0.948143  0  0  0.089951  0  1.014363  0  0  0.092789  0  1.011667  0  0  0.113563  0.088287  0  1.015558  0
H  H21  1  0.80068970  0.65626857  0.61259011  1  0  0.083261  0  0.948112  0  0  0.089945  0  1.014338  0  0  0.092783  0  1.011642  0  0  0.113548  0.088277  0  1.015538  0
H  H22  1  0.86015134  0.09305100  0.44538189  1  0  0.073877  0  0.962761  0  0  0.080561  0  1.029553  0  0  0.081858  0  1.029194  0  0  0.115039  0.079595  0  1.02994  0
H  H23  1  0.13984397  0.90694756  0.55461843  1  0  0.073847  0  0.962788  0  0  0.08052  0  1.029599  0  0  0.081817  0  1.029238  0  0  0.114986  0.079554  0  1.029989  0
H  H24  1  0.69849611  0.00959526  0.24244100  1  0  0.102394  0  0.98824  0  0  0.110217  0  1.0542  0  0  0.111713  0  1.056739  0  0  0.101321  0.109504  0  1.051831  0
H  H25  1  0.30150106  0.99040529  0.75755873  1  0  0.102345  0  0.988115  0  0  0.110176  0  1.054078  0  0  0.111672  0  1.056617  0  0  0.101301  0.109464  0  1.051713  0
H  H26  1  0.97918509  0.96176524  0.11935929  1  0  0.105698  0  0.969444  0  0  0.113958  0  1.032155  0  0  0.11658  0  1.03299  0  0  0.102109  0.11187  0  1.032239  0
H  H27  1  0.02081329  0.03823828  0.88064021  1  0  0.105702  0  0.969478  0  0  0.113993  0  1.032158  0  0  0.116614  0  1.032994  0  0  0.102118  0.111904  0  1.032243  0
H  H28  1  0.02379823  0.76614422  0.10490043  1  0  0.070685  0  0.93274  0  0  0.080185  0  0.993335  0  0  0.0823  0  0.992033  0  0  0.109216  0.078521  0  0.99443  0
H  H29  1  0.97620417  0.23385929  0.89510416  1  0  0.070727  0  0.932791  0  0  0.080219  0  0.993384  0  0  0.082341  0  0.992065  0  0  0.109231  0.078557  0  0.994481  0
H  H30  1  0.66332409  0.51275359  0.80716916  1  0  0.081263  0  0.916569  0  0  0.091916  0  0.970324  0  0  0.094543  0  0.968893  0  0  0.113846  0.089998  0  0.971449  0
H  H31  1  0.33667965  0.48724798  0.19283392  1  0  0.081311  0  0.916538  0  0  0.091978  0  0.970278  0  0  0.094609  0  0.968841  0  0  0.113846  0.090056  0  0.971401  0
H  H32  1  0.60184244  0.69809261  0.80857079  1  0  0.101649  0  0.974834  0  0  0.110927  0  1.038904  0  0  0.113621  0  1.038844  0  0  0.100337  0.109037  0  1.038967  0
H  H33  1  0.39815776  0.30190793  0.19143236  1  0  0.101644  0  0.974797  0  0  0.110915  0  1.038878  0  0  0.113608  0  1.03882  0  0  0.100332  0.109002  0  1.038961  0
C  C34  1  0.65576593  0.10249131  0.90919431  1  0  -0.072545  0  3.708105  0  0  -0.067732  0  3.977221  0  0  -0.068076  0  3.99802  0  0  -0.007708  -0.067077  0  3.962563  0
C  C35  1  0.34423257  0.89750730  0.09080390  1  0  -0.072682  0  3.708211  0  0  -0.067777  0  3.977214  0  0  -0.068124  0  3.998013  0  0  -0.007698  -0.067103  0  3.962562  0
C  C36  1  0.72278954  0.16569338  0.03392884  1  0  -0.030225  0  3.765508  0  0  -0.031763  0  4.015464  0  0  -0.033127  0  4.03785  0  0  -0.014103  -0.030884  0  3.999757  0
C  C37  1  0.27721078  0.83430721  0.96607036  1  0  -0.030203  0  3.765458  0  0  -0.031778  0  4.015414  0  0  -0.033141  0  4.037797  0  0  -0.014125  -0.030901  0  3.999703  0
C  C38  1  0.77520241  0.08445807  0.06889707  1  0  -0.021141  0  3.741895  0  0  -0.020424  0  3.988303  0  0  -0.021434  0  4.010088  0  0  -0.010827  -0.019592  0  3.973322  0
C  C39  1  0.22479714  0.91554055  0.93110123  1  0  -0.021151  0  3.741782  0  0  -0.020427  0  3.988251  0  0  -0.021432  0  4.010036  0  0  -0.01084  -0.019592  0  3.97327  0
C  C40  1  0.74738055  0.95994131  0.97037085  1  0  -0.077669  0  3.710267  0  0  -0.074411  0  3.980335  0  0  -0.074082  0  4.00047  0  0  -0.011169  -0.074318  0  3.966616  0
C  C41  1  0.25261860  0.04005923  0.02963222  1  0  -0.077717  0  3.710262  0  0  -0.074466  0  3.980347  0  0  -0.074147  0  4.000492  0  0  -0.011186  -0.074375  0  3.966632  0
C  C42  1  0.57787957  0.14698240  0.83998790  1  0  0.111605  0  3.79932  0  0  0.122772  0  4.034873  0  0  0.127747  0  4.055434  0  0  0.005281  0.119583  0  4.02139  0
C  C43  1  0.42212031  0.85301719  0.16001243  1  0  0.111693  0  3.799415  0  0  0.122839  0  4.034943  0  0  0.127813  0  4.055501  0  0  0.00527  0.119599  0  4.021524  0
C  C44  1  0.57245346  0.10270982  0.71518766  1  0  -0.157898  0  3.67601  0  0  -0.175609  0  3.920967  0  0  -0.182553  0  3.940017  0  0  -0.084805  -0.171748  0  3.908915  0
C  C45  1  0.42754780  0.89729075  0.28481480  1  0  -0.157963  0  3.676069  0  0  -0.175679  0  3.920999  0  0  -0.182631  0  3.94006  0  0  -0.084795  -0.171806  0  3.908963  0
C  C46  1  0.48531635  0.13705845  0.64982726  1  0  0.143248  0  3.686613  0  0  0.114838  0  3.933723  0  0  0.122047  0  3.951511  0  0  0.050085  0.109941  0  3.921947  0
C  C47  1  0.51468666  0.86294117  0.35017333  1  0  0.143233  0  3.686702  0  0  0.114836  0  3.933798  0  0  0.122043  0  3.951586  0  0  0.050053  0.109939  0  3.922013  0
C  C48  1  0.41211059  0.25725832  0.82064729  1  0  0.12292  0  3.730223  0  0  0.093565  0  3.983689  0  0  0.100858  0  4.000985  0  0  0.041489  0.088877  0  3.972618  0
C  C49  1  0.58789113  0.74274326  0.17935324  1  0  0.123019  0  3.730222  0  0  0.093663  0  3.983688  0  0  0.100957  0  4.000982  0  0  0.041537  0.088972  0  3.97261  0
C  C50  1  0.49702398  0.22882650  0.89306443  1  0  -0.163807  0  3.716109  0  0  -0.180961  0  3.960336  0  0  -0.187944  0  3.98115  0  0  -0.088243  -0.176916  0  3.947274  0
C  C51  1  0.50297358  0.77117504  0.10693575  1  0  -0.163841  0  3.716175  0  0  -0.181006  0  3.960394  0  0  -0.187986  0  3.981206  0  0  -0.088247  -0.176947  0  3.947342  0
C  C52  1  0.73924248  0.30143680  0.12177975  1  0  0.110936  0  3.77032  0  0  0.123911  0  4.003281  0  0  0.128454  0  4.024521  0  0  0.009813  0.121291  0  3.988619  0
C  C53  1  0.26075528  0.69855986  0.87821677  1  0  0.111005  0  3.770341  0  0  0.123989  0  4.003318  0  0  0.128534  0  4.024554  0  0  0.00987  0.121372  0  3.988652  0
C  C54  1  0.80120535  0.40691864  0.09995882  1  0  -0.150922  0  3.695249  0  0  -0.171871  0  3.946993  0  0  -0.178667  0  3.966775  0  0  -0.080354  -0.167613  0  3.933521  0
C  C55  1  0.19879254  0.59308097  0.90003818  1  0  -0.150979  0  3.695301  0  0  -0.171947  0  3.947061  0  0  -0.178737  0  3.966846  0  0  -0.080371  -0.167685  0  3.933584  0
C  C56  1  0.81039296  0.53224517  0.18445569  1  0  0.124353  0  3.714346  0  0  0.095513  0  3.962924  0  0  0.102457  0  3.980783  0  0  0.04384  0.091127  0  3.950906  0
C  C57  1  0.18960671  0.46775350  0.81553866  1  0  0.124168  0  3.714422  0  0  0.095349  0  3.963012  0  0  0.102293  0  3.980869  0  0  0.043739  0.090968  0  3.951002  0
C  C58  1  0.70232612  0.45658630  0.30870539  1  0  0.132862  0  3.690083  0  0  0.104481  0  3.936403  0  0  0.111548  0  3.953556  0  0  0.046623  0.099946  0  3.92461  0
C  C59  1  0.29767582  0.54341040  0.69129069  1  0  0.132917  0  3.689821  0  0  0.104548  0  3.936155  0  0  0.11161  0  3.953312  0  0  0.046607  0.100014  0  3.924364  0
C  C60  1  0.69262721  0.32886724  0.23067696  1  0  -0.164481  0  3.701006  0  0  -0.182844  0  3.949213  0  0  -0.189851  0  3.969344  0  0  -0.085858  -0.178109  0  3.935459  0
C  C61  1  0.30737325  0.67113134  0.76932538  1  0  -0.164467  0  3.701026  0  0  -0.182842  0  3.949242  0  0  -0.18985  0  3.969375  0  0  -0.085842  -0.178103  0  3.935483  0
C  C62  1  0.99946503  0.23523008  0.24054988  1  0  -0.165073  0  3.715807  0  0  -0.183663  0  3.958511  0  0  -0.190812  0  3.980625  0  0  -0.0883  -0.178872  0  3.943313  0
C  C63  1  0.00053323  0.76477340  0.75945358  1  0  -0.165387  0  3.715923  0  0  -0.183916  0  3.958638  0  0  -0.191065  0  3.980751  0  0  -0.088385  -0.179128  0  3.943444  0
C  C64  1  0.08589106  0.27255833  0.35324520  1  0  0.127494  0  3.719674  0  0  0.098542  0  3.971009  0  0  0.10549  0  3.988195  0  0  0.04042  0.094328  0  3.958061  0
C  C65  1  0.91410643  0.72744318  0.64675735  1  0  0.12769  0  3.719661  0  0  0.098732  0  3.970963  0  0  0.105682  0  3.988146  0  0  0.040526  0.094519  0  3.958013  0
C  C66  1  0.89948801  0.13025104  0.38458787  1  0  0.152635  0  3.688202  0  0  0.122517  0  3.940958  0  0  0.130291  0  3.957651  0  0  0.050453  0.117397  0  3.929244  0
C  C67  1  0.10050737  0.86974755  0.61541007  1  0  0.152695  0  3.68824  0  0  0.122598  0  3.940972  0  0  0.130374  0  3.957662  0  0  0.050478  0.117475  0  3.929254  0
C  C68  1  0.80830727  0.08389084  0.27074208  1  0  -0.139757  0  3.678253  0  0  -0.159794  0  3.92596  0  0  -0.166178  0  3.945543  0  0  -0.080374  -0.154773  0  3.911434  0
C  C69  1  0.19168840  0.91610869  0.72925948  1  0  -0.139716  0  3.678074  0  0  -0.159758  0  3.925814  0  0  -0.166139  0  3.945395  0  0  -0.080335  -0.154739  0  3.911292  0
C  C70  1  0.85993153  0.13406150  0.19465757  1  0  0.109197  0  3.774129  0  0  0.12556  0  4.000872  0  0  0.129937  0  4.021096  0  0  0.011082  0.122801  0  3.98674  0
C  C71  1  0.14006562  0.86593904  0.80534295  1  0  0.109281  0  3.774118  0  0  0.125586  0  4.000948  0  0  0.129959  0  4.021173  0  0  0.011064  0.122827  0  3.986814  0
C  C72  1  0.78348366  0.84875439  0.96619310  1  0  0.104026  0  3.806196  0  0  0.116189  0  4.042748  0  0  0.119945  0  4.064604  0  0  0.001733  0.113422  0  4.028662  0
C  C73  1  0.21651659  0.15124618  0.03380847  1  0  0.103985  0  3.806107  0  0  0.116172  0  4.042637  0  0  0.119931  0  4.064496  0  0  0.001759  0.113405  0  4.028552  0
C  C74  1  0.90446950  0.86470909  0.04908177  1  0  -0.155037  0  3.689445  0  0  -0.17505  0  3.939856  0  0  -0.181592  0  3.961474  0  0  -0.086504  -0.17162  0  3.926944  0
C  C75  1  0.09552927  0.13529543  0.95091818  1  0  -0.155091  0  3.689487  0  0  -0.175136  0  3.939883  0  0  -0.18168  0  3.961502  0  0  -0.086622  -0.171705  0  3.926973  0
C  C76  1  0.92997188  0.75363682  0.04024297  1  0  0.115055  0  3.761306  0  0  0.089828  0  4.031743  0  0  0.095516  0  4.048078  0  0  0.0374  0.086005  0  4.020949  0
C  C77  1  0.07002616  0.24636864  0.95975971  1  0  0.115032  0  3.761451  0  0  0.089811  0  4.031884  0  0  0.0955  0  4.048224  0  0  0.037497  0.085987  0  4.021094  0
C  C78  1  0.73113728  0.61386507  0.87606761  1  0  0.114305  0  3.752481  0  0  0.094788  0  4.007749  0  0  0.100427  0  4.023154  0  0  0.038845  0.090967  0  3.997234  0
C  C79  1  0.26886684  0.38613748  0.12393592  1  0  0.114215  0  3.752532  0  0  0.094681  0  4.007796  0  0  0.10032  0  4.023204  0  0  0.038813  0.090865  0  3.997269  0
C  C80  1  0.69688386  0.71839450  0.87667879  1  0  -0.178391  0  3.721882  0  0  -0.19531  0  3.966266  0  0  -0.201372  0  3.986081  0  0  -0.092824  -0.191342  0  3.953173  0
C  C81  1  0.30311750  0.28160899  0.12332571  1  0  -0.178351  0  3.72183  0  0  -0.195274  0  3.966212  0  0  -0.201336  0  3.986027  0  0  -0.092843  -0.191284  0  3.953136  0
S  S82  1  0.65924503  0.94510265  0.83640817  1  0  0.160903  0  2.622867  0  0  0.159107  0  2.961363  0  0  0.156562  0  2.970248  0  0  0.127661  0.160868  0  2.954431  0
S  S83  1  0.34074744  0.05489393  0.16359029  1  0  0.16097  0  2.622912  0  0  0.15915  0  2.961377  0  0  0.15661  0  2.970263  0  0  0.12767  0.160912  0  2.954439  0
N  N84  1  0.40397858  0.21126773  0.70033130  1  0  -0.328607  0  3.240603  0  0  -0.255074  0  3.504765  0  0  -0.272985  0  3.522767  0  0  -0.327369  -0.243411  0  3.492677  0
N  N85  1  0.59602177  0.78873287  0.29966711  1  0  -0.328666  0  3.240804  0  0  -0.255146  0  3.504992  0  0  -0.273058  0  3.522996  0  0  -0.3274  -0.24348  0  3.492896  0
N  N86  1  0.75941851  0.55667534  0.28587380  1  0  -0.320755  0  3.25833  0  0  -0.243288  0  3.519404  0  0  -0.261622  0  3.537893  0  0  -0.330467  -0.230991  0  3.50672  0
N  N87  1  0.24058281  0.44332235  0.71412185  1  0  -0.320551  0  3.258246  0  0  -0.243121  0  3.519344  0  0  -0.261455  0  3.537835  0  0  -0.33035  -0.230828  0  3.506667  0
N  N88  1  0.03827746  0.21944147  0.42386742  1  0  -0.335696  0  3.233622  0  0  -0.262894  0  3.495707  0  0  -0.281153  0  3.514204  0  0  -0.329875  -0.250281  0  3.482209  0
N  N89  1  0.96172061  0.78055615  0.57613192  1  0  -0.335802  0  3.23376  0  0  -0.263008  0  3.49584  0  0  -0.281269  0  3.514336  0  0  -0.329915  -0.250389  0  3.482333  0
N  N90  1  0.84570519  0.62917901  0.95673891  1  0  -0.330351  0  3.050633  0  0  -0.299307  0  3.322626  0  0  -0.308783  0  3.335267  0  0  -0.334046  -0.292379  0  3.313386  0
N  N91  1  0.15429648  0.37082254  0.04326321  1  0  -0.330307  0  3.050667  0  0  -0.299259  0  3.322663  0  0  -0.308739  0  3.335309  0  0  -0.334048  -0.292332  0  3.313422  0
N  N92  1  0.40994997  0.32404662  0.49565386  1  0  -0.597309  0  2.623179  0  0  -0.57608  0  2.907305  0  0  -0.599128  0  2.916041  0  0  -0.326224  -0.561049  0  2.901291  0
N  N93  1  0.59005055  0.67594909  0.50434169  1  0  -0.597244  0  2.623405  0  0  -0.576021  0  2.907543  0  0  -0.599069  0  2.916282  0  0  -0.326151  -0.560995  0  2.901532  0
N  N94  1  0.50184927  0.27581493  0.46334198  1  0  0.379297  0  4.303604  0  0  0.421829  0  4.58131  0  0  0.437364  0  4.6122  0  0  0.059532  0.411471  0  4.561323  0
N  N95  1  0.49815250  0.72417881  0.53665442  1  0  0.379464  0  4.30377  0  0  0.42199  0  4.581459  0  0  0.437524  0  4.61235  0  0  0.05966  0.41163  0  4.561472  0
N  N96  1  0.59301388  0.23049015  0.43051452  1  0  -0.46708  0  2.405229  0  0  -0.47195  0  2.632394  0  0  -0.481343  0  2.643298  0  0  -0.250409  -0.466029  0  2.62521  0
N  N97  1  0.40698577  0.76950355  0.56948328  1  0  -0.467339  0  2.40524  0  0  -0.472193  0  2.632387  0  0  -0.481585  0  2.643289  0  0  -0.250617  -0.466276  0  2.625203  0
N  N98  1  0.05210059  0.15253828  0.66872652  1  0  -0.500685  0  2.593105  0  0  -0.482958  0  2.872435  0  0  -0.49944  0  2.881147  0  0  -0.25973  -0.47116  0  2.866614  0
N  N99  1  0.94790193  0.84746527  0.33127412  1  0  -0.500634  0  2.593192  0  0  -0.482862  0  2.872531  0  0  -0.49934  0  2.881239  0  0  -0.259698  -0.471071  0  2.866725  0
N  N100  1  0.93274529  0.06921531  0.62296605  1  0  0.398488  0  4.264591  0  0  0.433724  0  4.541856  0  0  0.450327  0  4.5715  0  0  0.076371  0.422506  0  4.521866  0
N  N101  1  0.06725464  0.93078430  0.37703270  1  0  0.398494  0  4.264626  0  0  0.433671  0  4.541954  0  0  0.450274  0  4.571595  0  0  0.07632  0.422453  0  4.52196  0
N  N102  1  0.81170708  0.98727277  0.58014566  1  0  -0.514449  0  2.605283  0  0  -0.495431  0  2.882691  0  0  -0.512319  0  2.890506  0  0  -0.270985  -0.483354  0  2.876825  0
N  N103  1  0.18829714  0.01272982  0.41985471  1  0  -0.514503  0  2.605242  0  0  -0.495458  0  2.882677  0  0  -0.51235  0  2.890495  0  0  -0.270968  -0.483379  0  2.876807  0
