# generated using pymatgen
data_CdH11C9N4
_symmetry_space_group_name_H-M   'P 1'
_cell_length_a   8.08283789
_cell_length_b   8.08284286
_cell_length_c   16.05437948
_cell_angle_alpha   91.12861256
_cell_angle_beta   91.12852225
_cell_angle_gamma   95.74031316
_symmetry_Int_Tables_number   1
_chemical_formula_structural   CdH11C9N4
_chemical_formula_sum   'Cd4 H44 C36 N16'
_cell_volume   1043.16011788
_cell_formula_units_Z   4
loop_
 _symmetry_equiv_pos_site_id
 _symmetry_equiv_pos_as_xyz
  1  'x, y, z'
loop_
 _atom_site_type_symbol
 _atom_site_label
 _atom_site_symmetry_multiplicity
 _atom_site_fract_x
 _atom_site_fract_y
 _atom_site_fract_z
 _atom_site_occupancy
 _atom_site_hle17_bader_spin_density
 _atom_site_hle17_ddec_charge
 _atom_site_hle17_ddec_spin_density
 _atom_site_hle17_ddec_sum_bond_order
 _atom_site_hle17_magmom
 _atom_site_hse06_10hf_bader_spin_density
 _atom_site_hse06_10hf_ddec_charge
 _atom_site_hse06_10hf_ddec_spin_density
 _atom_site_hse06_10hf_ddec_sum_bond_order
 _atom_site_hse06_10hf_magmom
 _atom_site_hse06_bader_spin_density
 _atom_site_hse06_ddec_charge
 _atom_site_hse06_ddec_spin_density
 _atom_site_hse06_ddec_sum_bond_order
 _atom_site_hse06_magmom
 _atom_site_pbe_bader_spin_density
 _atom_site_pbe_cm5_charge
 _atom_site_pbe_ddec_charge
 _atom_site_pbe_ddec_spin_density
 _atom_site_pbe_ddec_sum_bond_order
 _atom_site_pbe_magmom
Cd  Cd0  1  0.51191878  0.49678001  0.74949036  1  0  0.637818  0  2.411835  0  0  0.455801  0  2.912093  0  0  0.484969  0  2.874363  0  0  0.541769  0.435962  0  2.937753  0
Cd  Cd1  1  0.49678891  0.51192544  0.24949073  1  0  0.637799  0  2.411824  0  0  0.455792  0  2.912057  0  0  0.484961  0  2.874328  0  0  0.541725  0.435948  0  2.937717  0
Cd  Cd2  1  0.49876965  0.00483833  0.99979090  1  0  1.083413  0  1.84876  0  0  0.893903  0  2.312741  0  0  0.942589  0  2.267614  0  0  0.805094  0.859903  0  2.343279  0
Cd  Cd3  1  0.00483603  0.49876860  0.49979125  1  0  1.0834  0  1.848705  0  0  0.893895  0  2.31267  0  0  0.94258  0  2.267544  0  0  0.805098  0.859897  0  2.343212  0
H  H4  1  0.18709413  0.81342441  0.96029870  1  0  0.279039  0  0.925502  0  0  0.270739  0  0.982946  0  0  0.274567  0  0.982744  0  0  0.284216  0.268008  0  0.983132  0
H  H5  1  0.81342418  0.18709373  0.46029925  1  0  0.279034  0  0.925491  0  0  0.270737  0  0.982931  0  0  0.274564  0  0.982731  0  0  0.284216  0.268007  0  0.983118  0
H  H6  1  0.20585862  0.97244217  0.89799277  1  0  0.286262  0  0.911249  0  0  0.280384  0  0.962362  0  0  0.283912  0  0.962754  0  0  0.290064  0.277863  0  0.962163  0
H  H7  1  0.97244063  0.20585921  0.39799389  1  0  0.286276  0  0.911252  0  0  0.280408  0  0.962333  0  0  0.283939  0  0.962719  0  0  0.290077  0.277888  0  0.962134  0
H  H8  1  0.12821067  0.15567690  0.01125349  1  0  0.060795  0  0.94597  0  0  0.079242  0  1.007632  0  0  0.078446  0  1.009948  0  0  0.09898  0.079727  0  1.006131  0
H  H9  1  0.15567580  0.12821141  0.51125391  1  0  0.060768  0  0.945967  0  0  0.079208  0  1.007629  0  0  0.078413  0  1.009945  0  0  0.098981  0.079691  0  1.006127  0
H  H10  1  0.10089439  0.97780211  0.07328393  1  0  0.055013  0  0.954342  0  0  0.075136  0  1.013411  0  0  0.07464  0  1.01504  0  0  0.097665  0.075395  0  1.0124  0
H  H11  1  0.97780149  0.10089336  0.57328462  1  0  0.054991  0  0.954328  0  0  0.075107  0  1.013401  0  0  0.074612  0  1.015027  0  0  0.097667  0.075366  0  1.012387  0
H  H12  1  0.89940593  0.03487009  0.91397832  1  0  0.055197  0  0.951182  0  0  0.07281  0  1.01564  0  0  0.072229  0  1.017315  0  0  0.097673  0.073124  0  1.014562  0
H  H13  1  0.03487240  0.89940674  0.41397952  1  0  0.055118  0  0.951266  0  0  0.072777  0  1.015683  0  0  0.072195  0  1.017359  0  0  0.09767  0.073087  0  1.014609  0
H  H14  1  0.87440970  0.85246933  0.97313749  1  0  0.055977  0  0.953051  0  0  0.07159  0  1.019778  0  0  0.071242  0  1.021167  0  0  0.095808  0.071737  0  1.018915  0
H  H15  1  0.85247071  0.87440834  0.47313644  1  0  0.055983  0  0.953016  0  0  0.071597  0  1.01976  0  0  0.071249  0  1.021149  0  0  0.095816  0.071744  0  1.018901  0
H  H16  1  0.80734242  0.03631054  0.09107976  1  0  0.281955  0  0.918181  0  0  0.274837  0  0.973318  0  0  0.278491  0  0.973508  0  0  0.286135  0.272227  0  0.973253  0
H  H17  1  0.03631156  0.80734339  0.59108052  1  0  0.282009  0  0.918073  0  0  0.274868  0  0.973226  0  0  0.278523  0  0.973416  0  0  0.286164  0.272259  0  0.97316  0
H  H18  1  0.81360418  0.19204956  0.02728614  1  0  0.282115  0  0.91562  0  0  0.27513  0  0.970282  0  0  0.279084  0  0.969794  0  0  0.286322  0.272308  0  0.97069  0
H  H19  1  0.19204926  0.81360365  0.52728619  1  0  0.282141  0  0.915585  0  0  0.275155  0  0.97025  0  0  0.279109  0  0.969762  0  0  0.286332  0.272336  0  0.970654  0
H  H20  1  0.64376494  0.72492941  0.58792416  1  0  0.304151  0  0.926527  0  0  0.294435  0  0.982374  0  0  0.29919  0  0.980111  0  0  0.292874  0.291101  0  0.983931  0
H  H21  1  0.72493032  0.64376216  0.08792367  1  0  0.304156  0  0.926554  0  0  0.294442  0  0.982394  0  0  0.299197  0  0.980132  0  0  0.292891  0.29111  0  0.983948  0
H  H22  1  0.67202571  0.90605713  0.64866561  1  0  0.299932  0  0.962616  0  0  0.283758  0  1.028436  0  0  0.290087  0  1.02444  0  0  0.282476  0.279329  0  1.031108  0
H  H23  1  0.90605831  0.67202420  0.14866508  1  0  0.299897  0  0.962716  0  0  0.283716  0  1.028522  0  0  0.290042  0  1.024532  0  0  0.282455  0.279287  0  1.031194  0
H  H24  1  0.48150605  0.71359839  0.45564030  1  0  0.099761  0  0.969451  0  0  0.110489  0  1.029848  0  0  0.112936  0  1.030119  0  0  0.094746  0.108748  0  1.029769  0
H  H25  1  0.71359963  0.48150682  0.95564066  1  0  0.099766  0  0.969478  0  0  0.1105  0  1.02987  0  0  0.112947  0  1.030141  0  0  0.094776  0.108765  0  1.029783  0
H  H26  1  0.37040161  0.87464124  0.34193146  1  0  0.065384  0  0.982878  0  0  0.075468  0  1.051462  0  0  0.077629  0  1.050184  0  0  0.087548  0.07391  0  1.052367  0
H  H27  1  0.87463749  0.37040540  0.84193045  1  0  0.065331  0  0.982845  0  0  0.075427  0  1.051423  0  0  0.077579  0  1.050167  0  0  0.087538  0.073867  0  1.052331  0
H  H28  1  0.36910159  0.18268118  0.35584378  1  0  0.075155  0  0.994853  0  0  0.082282  0  1.068663  0  0  0.084482  0  1.068781  0  0  0.084082  0.080708  0  1.068676  0
H  H29  1  0.18267803  0.36910292  0.85583990  1  0  0.075211  0  0.99484  0  0  0.082365  0  1.068611  0  0  0.084564  0  1.068731  0  0  0.084104  0.080794  0  1.068623  0
H  H30  1  0.48806054  0.32811532  0.48583826  1  0  0.088852  0  0.951114  0  0  0.099308  0  1.010931  0  0  0.101273  0  1.010802  0  0  0.095907  0.097921  0  1.011011  0
H  H31  1  0.32811762  0.48806166  0.98583443  1  0  0.088858  0  0.951111  0  0  0.099297  0  1.010959  0  0  0.101267  0  1.010818  0  0  0.095897  0.097911  0  1.01104  0
H  H32  1  0.60316125  0.16833275  0.59915928  1  0  0.092818  0  0.976679  0  0  0.102641  0  1.041004  0  0  0.105229  0  1.040874  0  0  0.092558  0.100793  0  1.041204  0
H  H33  1  0.16833447  0.60316082  0.09915779  1  0  0.092871  0  0.976598  0  0  0.102668  0  1.040959  0  0  0.105259  0  1.040818  0  0  0.092556  0.10082  0  1.041154  0
H  H34  1  0.68760266  0.98510869  0.79582290  1  0  0.304168  0  0.922645  0  0  0.293164  0  0.982569  0  0  0.297782  0  0.980329  0  0  0.293067  0.289928  0  0.984105  0
H  H35  1  0.98510706  0.68760406  0.29582235  1  0  0.304173  0  0.922645  0  0  0.293169  0  0.98257  0  0  0.297787  0  0.98033  0  0  0.293073  0.289934  0  0.984109  0
H  H36  1  0.75269260  0.16798509  0.75390430  1  0  0.288773  0  0.931821  0  0  0.277133  0  0.997549  0  0  0.281411  0  0.994673  0  0  0.289781  0.274113  0  0.999544  0
H  H37  1  0.16798384  0.75269035  0.25390344  1  0  0.288766  0  0.931835  0  0  0.277125  0  0.997568  0  0  0.281402  0  0.994692  0  0  0.289787  0.274107  0  0.999556  0
H  H38  1  0.85441392  0.74471356  0.78622580  1  0  0.090176  0  0.985438  0  0  0.100027  0  1.052834  0  0  0.101995  0  1.053138  0  0  0.091143  0.098621  0  1.052708  0
H  H39  1  0.74471606  0.85441435  0.28622606  1  0  0.090201  0  0.985385  0  0  0.100059  0  1.052769  0  0  0.102025  0  1.053077  0  0  0.091163  0.098649  0  1.05265  0
H  H40  1  0.13428330  0.65476973  0.76818077  1  0  0.078316  0  0.97644  0  0  0.088111  0  1.042448  0  0  0.089637  0  1.042478  0  0  0.091029  0.087027  0  1.042429  0
H  H41  1  0.65477087  0.13428504  0.26818266  1  0  0.078268  0  0.976447  0  0  0.088057  0  1.042477  0  0  0.089583  0  1.042507  0  0  0.09102  0.086975  0  1.042458  0
H  H42  1  0.36681438  0.85522876  0.71851112  1  0  0.080624  0  0.99412  0  0  0.086272  0  1.068502  0  0  0.08897  0  1.067817  0  0  0.08494  0.084306  0  1.069108  0
H  H43  1  0.85523143  0.36681653  0.21851116  1  0  0.080656  0  0.994071  0  0  0.086278  0  1.068485  0  0  0.088976  0  1.0678  0  0  0.08493  0.084304  0  1.069102  0
H  H44  1  0.31339633  0.14771549  0.69221597  1  0  0.073821  0  0.981715  0  0  0.084006  0  1.049129  0  0  0.085661  0  1.048652  0  0  0.089857  0.082785  0  1.04951  0
H  H45  1  0.14771642  0.31339766  0.19221314  1  0  0.07383  0  0.981719  0  0  0.084021  0  1.049125  0  0  0.085674  0  1.04865  0  0  0.089871  0.082804  0  1.049485  0
H  H46  1  0.03407543  0.23954609  0.71165655  1  0  0.102236  0  0.958838  0  0  0.113638  0  1.018367  0  0  0.116023  0  1.018622  0  0  0.098519  0.111975  0  1.018222  0
H  H47  1  0.23954698  0.03407620  0.21165232  1  0  0.102259  0  0.95886  0  0  0.113655  0  1.018389  0  0  0.116033  0  1.018646  0  0  0.098543  0.111994  0  1.018243  0
C  C48  1  0.50278023  0.28732367  0.83687132  1  0  -0.080748  0  3.264996  0  0  -0.056124  0  3.576245  0  0  -0.054254  0  3.58631  0  0  0.002287  -0.05728  0  3.569283  0
C  C49  1  0.28733042  0.50279504  0.33687184  1  0  -0.080685  0  3.264771  0  0  -0.056055  0  3.576006  0  0  -0.054185  0  3.586074  0  0  0.002375  -0.057212  0  3.569047  0
C  C50  1  0.48039796  0.73001481  0.16754110  1  0  -0.09074  0  3.246795  0  0  -0.067455  0  3.557235  0  0  -0.064765  0  3.565876  0  0  -0.00121  -0.069233  0  3.551341  0
C  C51  1  0.73001947  0.48039339  0.66754393  1  0  -0.090624  0  3.247012  0  0  -0.067301  0  3.557403  0  0  -0.064613  0  3.566043  0  0  -0.001104  -0.069071  0  3.551502  0
C  C52  1  0.31170446  0.47855176  0.65411296  1  0  -0.064897  0  3.265698  0  0  -0.038751  0  3.576407  0  0  -0.036692  0  3.58682  0  0  0.007261  -0.040069  0  3.569216  0
C  C53  1  0.47856203  0.31171167  0.15411016  1  0  -0.064657  0  3.26574  0  0  -0.038489  0  3.576417  0  0  -0.036435  0  3.586833  0  0  0.007403  -0.03981  0  3.569223  0
C  C54  1  0.53766947  0.70424667  0.84180093  1  0  -0.066617  0  3.256526  0  0  -0.041122  0  3.569152  0  0  -0.038717  0  3.578159  0  0  0.009022  -0.042695  0  3.563001  0
C  C55  1  0.70425872  0.53768005  0.34180380  1  0  -0.06666  0  3.257036  0  0  -0.041178  0  3.56968  0  0  -0.038778  0  3.578688  0  0  0.009069  -0.042747  0  3.563532  0
C  C56  1  0.09117407  0.02104578  0.00913157  1  0  0.047754  0  3.652502  0  0  -0.008456  0  3.916855  0  0  -0.00434  0  3.929163  0  0  -0.082892  -0.011256  0  3.908481  0
C  C57  1  0.02104517  0.09117614  0.50913204  1  0  0.047815  0  3.652391  0  0  -0.008361  0  3.916725  0  0  -0.004251  0  3.929039  0  0  -0.082878  -0.011158  0  3.908341  0
C  C58  1  0.91094840  0.98705402  0.97716248  1  0  0.047195  0  3.652617  0  0  -0.0091  0  3.919988  0  0  -0.004668  0  3.931671  0  0  -0.082024  -0.012009  0  3.911959  0
C  C59  1  0.98705546  0.91094922  0.47716266  1  0  0.04726  0  3.652577  0  0  -0.009083  0  3.919975  0  0  -0.004649  0  3.931659  0  0  -0.082055  -0.01199  0  3.911945  0
C  C60  1  0.55045902  0.92907674  0.53601237  1  0  0.317227  0  3.874287  0  0  0.312759  0  4.117673  0  0  0.324526  0  4.135945  0  0  0.092294  0.304768  0  4.10511  0
C  C61  1  0.92907216  0.55045546  0.03601107  1  0  0.317297  0  3.874306  0  0  0.31285  0  4.117658  0  0  0.324617  0  4.13593  0  0  0.092372  0.304855  0  4.105103  0
C  C62  1  0.48329656  0.84825616  0.46232835  1  0  -0.222627  0  3.748905  0  0  -0.232687  0  3.989184  0  0  -0.239425  0  4.009094  0  0  -0.116293  -0.228223  0  3.975801  0
C  C63  1  0.84825501  0.48329872  0.96232678  1  0  -0.22271  0  3.749069  0  0  -0.23278  0  3.989364  0  0  -0.239519  0  4.009274  0  0  -0.116405  -0.228322  0  3.975978  0
C  C64  1  0.42075991  0.94000705  0.39836133  1  0  -0.050974  0  3.830998  0  0  -0.061379  0  4.075058  0  0  -0.059615  0  4.096088  0  0  -0.10165  -0.062279  0  4.060612  0
C  C65  1  0.94000199  0.42075958  0.89836025  1  0  -0.050703  0  3.831061  0  0  -0.061121  0  4.075111  0  0  -0.059358  0  4.096136  0  0  -0.10151  -0.062021  0  4.060667  0
C  C66  1  0.42136298  0.11276282  0.40551899  1  0  -0.136403  0  3.82613  0  0  -0.150195  0  4.077511  0  0  -0.155583  0  4.10007  0  0  -0.121685  -0.146648  0  4.06218  0
C  C67  1  0.11275617  0.42136497  0.90551513  1  0  -0.136644  0  3.826316  0  0  -0.150463  0  4.077722  0  0  -0.155851  0  4.100282  0  0  -0.121785  -0.146914  0  4.06239  0
C  C68  1  0.48706962  0.19355774  0.47856915  1  0  -0.056115  0  3.824741  0  0  -0.068817  0  4.073218  0  0  -0.066308  0  4.09261  0  0  -0.099081  -0.070245  0  4.059884  0
C  C69  1  0.19355535  0.48706785  0.97856591  1  0  -0.05602  0  3.824492  0  0  -0.068696  0  4.07292  0  0  -0.066187  0  4.092316  0  0  -0.09905  -0.070124  0  4.059585  0
C  C70  1  0.55087584  0.10378616  0.54291634  1  0  -0.214594  0  3.736518  0  0  -0.223077  0  3.97606  0  0  -0.229882  0  3.995553  0  0  -0.115576  -0.218566  0  3.962947  0
C  C71  1  0.10378136  0.55087742  0.04291418  1  0  -0.214748  0  3.736401  0  0  -0.223235  0  3.975968  0  0  -0.230039  0  3.995463  0  0  -0.115614  -0.218721  0  3.962854  0
C  C72  1  0.92377606  0.99776791  0.74923597  1  0  0.285355  0  3.866049  0  0  0.282845  0  4.113702  0  0  0.292374  0  4.132302  0  0  0.083218  0.276307  0  4.101073  0
C  C73  1  0.99777053  0.92377671  0.24923492  1  0  0.285405  0  3.866044  0  0  0.282943  0  4.113617  0  0  0.292472  0  4.132213  0  0  0.083256  0.276396  0  4.100998  0
C  C74  1  0.95504367  0.83321236  0.76554849  1  0  -0.205456  0  3.755582  0  0  -0.220475  0  4.001261  0  0  -0.225995  0  4.021285  0  0  -0.115971  -0.216822  0  3.987829  0
C  C75  1  0.83321750  0.95504272  0.26554877  1  0  -0.205545  0  3.755748  0  0  -0.220582  0  4.001416  0  0  -0.226102  0  4.021442  0  0  -0.116031  -0.216919  0  3.987984  0
C  C76  1  0.11357963  0.78314347  0.75539628  1  0  -0.060727  0  3.827028  0  0  -0.071655  0  4.071724  0  0  -0.070132  0  4.091925  0  0  -0.101004  -0.072492  0  4.057938  0
C  C77  1  0.78314452  0.11357847  0.25539807  1  0  -0.060665  0  3.826896  0  0  -0.071594  0  4.071601  0  0  -0.070071  0  4.091802  0  0  -0.101008  -0.07243  0  4.057814  0
C  C78  1  0.24391709  0.89515763  0.72859144  1  0  -0.12284  0  3.809239  0  0  -0.138009  0  4.060223  0  0  -0.142042  0  4.081154  0  0  -0.118047  -0.135352  0  4.046099  0
C  C79  1  0.89516042  0.24391818  0.22859204  1  0  -0.122838  0  3.809064  0  0  -0.137974  0  4.060015  0  0  -0.142007  0  4.080945  0  0  -0.118008  -0.135317  0  4.045902  0
C  C80  1  0.21362186  0.05923373  0.71367791  1  0  -0.052738  0  3.822585  0  0  -0.067279  0  4.072079  0  0  -0.065737  0  4.092583  0  0  -0.100555  -0.068099  0  4.058092  0
C  C81  1  0.05923586  0.21362161  0.21367756  1  0  -0.052778  0  3.822584  0  0  -0.067334  0  4.072084  0  0  -0.065791  0  4.092583  0  0  -0.100572  -0.068145  0  4.058084  0
C  C82  1  0.05593705  0.11128467  0.72444031  1  0  -0.209226  0  3.758089  0  0  -0.221961  0  4.002924  0  0  -0.227915  0  4.02301  0  0  -0.112721  -0.217988  0  3.989379  0
C  C83  1  0.11128778  0.05593701  0.22443926  1  0  -0.209237  0  3.758031  0  0  -0.221982  0  4.002868  0  0  -0.227934  0  4.022952  0  0  -0.112735  -0.21801  0  3.989321  0
N  N84  1  0.51004762  0.19266192  0.89052601  1  0  -0.395337  0  3.023919  0  0  -0.335827  0  3.297262  0  0  -0.352671  0  3.311953  0  0  -0.358737  -0.324326  0  3.287094  0
N  N85  1  0.19266323  0.51005648  0.39052644  1  0  -0.395411  0  3.023744  0  0  -0.335901  0  3.297091  0  0  -0.352747  0  3.311784  0  0  -0.35881  -0.324403  0  3.286936  0
N  N86  1  0.47552407  0.82054442  0.11179711  1  0  -0.395942  0  3.011633  0  0  -0.335378  0  3.283947  0  0  -0.352161  0  3.297167  0  0  -0.35787  -0.323924  0  3.274809  0
N  N87  1  0.82054450  0.47552238  0.61180362  1  0  -0.396072  0  3.011947  0  0  -0.335528  0  3.284249  0  0  -0.352307  0  3.297466  0  0  -0.357987  -0.324077  0  3.275108  0
N  N88  1  0.21700833  0.46280030  0.59791404  1  0  -0.39477  0  3.012261  0  0  -0.33593  0  3.284527  0  0  -0.353218  0  3.299542  0  0  -0.357819  -0.324132  0  3.274135  0
N  N89  1  0.46280412  0.21701154  0.09791670  1  0  -0.394985  0  3.012342  0  0  -0.336164  0  3.284644  0  0  -0.353445  0  3.299649  0  0  -0.35795  -0.324364  0  3.27425  0
N  N90  1  0.55385832  0.79890574  0.89813827  1  0  -0.405414  0  3.002455  0  0  -0.348141  0  3.274429  0  0  -0.364486  0  3.287979  0  0  -0.357707  -0.337039  0  3.265139  0
N  N91  1  0.79890353  0.55385819  0.39813772  1  0  -0.405332  0  3.00299  0  0  -0.34807  0  3.274967  0  0  -0.364411  0  3.288515  0  0  -0.357744  -0.336961  0  3.265657  0
N  N92  1  0.21313777  0.94018814  0.95926902  1  0  -0.624606  0  3.084968  0  0  -0.567862  0  3.322442  0  0  -0.587627  0  3.325222  0  0  -0.622232  -0.553981  0  3.320207  0
N  N93  1  0.94018760  0.21313827  0.45926954  1  0  -0.624619  0  3.084915  0  0  -0.567889  0  3.322406  0  0  -0.587654  0  3.325185  0  0  -0.622242  -0.554009  0  3.320171  0
N  N94  1  0.79095938  0.06509614  0.02973639  1  0  -0.624732  0  3.073592  0  0  -0.570207  0  3.313046  0  0  -0.589701  0  3.315223  0  0  -0.621063  -0.556547  0  3.311227  0
N  N95  1  0.06509642  0.79096054  0.52973651  1  0  -0.624779  0  3.073415  0  0  -0.570228  0  3.312946  0  0  -0.589724  0  3.315126  0  0  -0.62107  -0.556571  0  3.31112  0
N  N96  1  0.61138746  0.84068952  0.60006381  1  0  -0.679186  0  3.157018  0  0  -0.639387  0  3.380121  0  0  -0.659776  0  3.382306  0  0  -0.604214  -0.62488  0  3.378113  0
N  N97  1  0.84068990  0.61138615  0.10006389  1  0  -0.679169  0  3.157131  0  0  -0.639354  0  3.380235  0  0  -0.659743  0  3.382425  0  0  -0.604235  -0.624846  0  3.378224  0
N  N98  1  0.76178270  0.04357021  0.75257264  1  0  -0.664622  0  3.123642  0  0  -0.626683  0  3.341552  0  0  -0.643705  0  3.343271  0  0  -0.597994  -0.614569  0  3.340039  0
N  N99  1  0.04357138  0.76178238  0.25257189  1  0  -0.664628  0  3.12358  0  0  -0.626709  0  3.341466  0  0  -0.64373  0  3.343186  0  0  -0.59802  -0.614597  0  3.339955  0
