# generated using pymatgen
data_CuH12C12(NO2)3
_symmetry_space_group_name_H-M   'P 1'
_cell_length_a   7.03057464
_cell_length_b   9.71261528
_cell_length_c   10.26961639
_cell_angle_alpha   71.83849427
_cell_angle_beta   74.77047560
_cell_angle_gamma   75.77709518
_symmetry_Int_Tables_number   1
_chemical_formula_structural   CuH12C12(NO2)3
_chemical_formula_sum   'Cu2 H24 C24 N6 O12'
_cell_volume   632.58061266
_cell_formula_units_Z   2
loop_
 _symmetry_equiv_pos_site_id
 _symmetry_equiv_pos_as_xyz
  1  'x, y, z'
loop_
 _atom_site_type_symbol
 _atom_site_label
 _atom_site_symmetry_multiplicity
 _atom_site_fract_x
 _atom_site_fract_y
 _atom_site_fract_z
 _atom_site_occupancy
 _atom_site_hle17_ddec_charge
 _atom_site_hle17_ddec_spin_density
 _atom_site_hle17_ddec_sum_bond_order
 _atom_site_hle17_magmom
 _atom_site_hse06_10hf_ddec_charge
 _atom_site_hse06_10hf_ddec_spin_density
 _atom_site_hse06_10hf_ddec_sum_bond_order
 _atom_site_hse06_10hf_magmom
 _atom_site_hse06_ddec_charge
 _atom_site_hse06_ddec_spin_density
 _atom_site_hse06_ddec_sum_bond_order
 _atom_site_hse06_magmom
 _atom_site_pbe_cm5_charge
 _atom_site_pbe_ddec_charge
 _atom_site_pbe_ddec_spin_density
 _atom_site_pbe_ddec_sum_bond_order
 _atom_site_pbe_magmom
Cu  Cu0  1  0.40128728  0.57005932  0.85256919  1  0.902315  -0.743964  1.789745  -0.526  0.879341  -0.822087  2.179518  -0.639  0.962689  -0.893324  2.115733  -0.721  0.744018  0.826641  -0.766326  2.225559  -0.582
Cu  Cu1  1  0.59870873  0.42993899  0.14742797  1  0.902359  0.743963  1.789609  0.526  0.879357  0.822083  2.179397  0.639  0.962734  0.893325  2.115618  0.721  0.744023  0.826685  0.766331  2.225455  0.582
H  H2  1  0.22052831  0.38921691  0.08523645  1  0.419811  -0.000666  0.885463  -0.001  0.388486  -0.001011  0.953811  -0.002  0.40195  -0.00076  0.934428  -0.001  0.291096  0.379105  -0.001172  0.967297  -0.002
H  H3  1  0.77947226  0.61078036  0.91475333  1  0.419811  0.000668  0.885475  0.001  0.388451  0.001011  0.953826  0.002  0.401948  0.000761  0.934422  0.001  0.291068  0.37907  0.001173  0.967307  0.002
H  H4  1  0.18314111  0.56721210  0.08047811  1  0.420666  -8.6e-05  0.891482  0.001  0.388602  -0.00046  0.957742  0.0  0.402662  -0.000245  0.937975  0.0  0.28599  0.37892  -0.000636  0.971296  0.0
H  H5  1  0.81685788  0.43277965  0.91951164  1  0.420764  8.6e-05  0.891471  -0.001  0.388651  0.00046  0.957687  0.0  0.402713  0.000245  0.937916  0.0  0.286047  0.37897  0.000636  0.97124  0.0
H  H6  1  0.36057614  0.24073843  0.96138587  1  0.096743  -0.001415  0.961262  -0.002  0.105784  -0.00118  1.023168  -0.002  0.107507  -0.000835  1.020923  -0.001  0.124175  0.104103  -0.001458  1.025316  -0.002
H  H7  1  0.63941961  0.75926097  0.03861199  1  0.096717  0.001415  0.961299  0.002  0.105778  0.00118  1.02318  0.002  0.107512  0.000835  1.020921  0.001  0.124156  0.104096  0.001458  1.025331  0.002
H  H8  1  0.53266112  0.01699198  0.87488083  1  0.105224  -0.000671  0.957506  -0.001  0.116411  -0.000578  1.017195  -0.001  0.119341  -0.000416  1.016433  0.0  0.110139  0.113989  -0.000624  1.018601  -0.001
H  H9  1  0.46734432  0.98300971  0.12511259  1  0.105226  0.000673  0.957474  0.001  0.116416  0.000578  1.017152  0.001  0.119347  0.000417  1.016398  0.0  0.110152  0.113995  0.000624  1.018558  0.001
H  H10  1  0.76871107  0.04991447  0.64196391  1  0.105634  -0.000203  0.965975  0.0  0.110915  -1.1e-05  1.034522  0.0  0.114413  9e-06  1.030732  0.0  0.109489  0.108146  -4.5e-05  1.037245  0.0
H  H11  1  0.23129591  0.95009275  0.35802759  1  0.1056  0.000202  0.965997  0.0  0.110903  1.1e-05  1.034514  0.0  0.114386  -9e-06  1.030742  0.0  0.109469  0.108137  4.5e-05  1.037239  0.0
H  H12  1  0.81215858  0.30272864  0.49962947  1  0.113024  -0.000732  0.997326  -0.001  0.115376  -0.000547  1.069117  -0.001  0.11875  -0.000372  1.067633  -0.001  0.107357  0.112807  -0.000686  1.070411  -0.001
H  H13  1  0.18784326  0.69728181  0.50036789  1  0.113051  0.000733  0.997326  0.001  0.115385  0.000548  1.069148  0.001  0.118762  0.000372  1.067667  0.001  0.107357  0.112816  0.000686  1.070445  0.001
H  H14  1  0.84512396  0.51986384  0.39617178  1  0.128735  -0.000846  0.965302  -0.001  0.137853  -0.000643  1.025138  -0.001  0.140522  -0.000425  1.024371  -0.001  0.112227  0.135971  -0.000828  1.025769  -0.001
H  H15  1  0.15487326  0.48014767  0.60383004  1  0.12864  0.000845  0.965282  0.001  0.137788  0.000643  1.025079  0.001  0.14046  0.000425  1.024309  0.001  0.112194  0.135909  0.000828  1.025711  0.001
H  H16  1  0.89486250  0.77832406  0.30068772  1  0.105293  -0.000317  0.966026  -0.001  0.112079  -4.2e-05  1.031693  0.0  0.115153  1e-06  1.029556  0.0  0.108624  0.109774  -9.7e-05  1.033386  0.0
H  H17  1  0.10512749  0.22169290  0.69931679  1  0.105425  0.000318  0.966005  0.001  0.112221  4.1e-05  1.031637  0.0  0.115289  -1e-06  1.029516  0.0  0.10866  0.109912  9.7e-05  1.033342  0.0
H  H18  1  0.73328264  0.95840999  0.44816046  1  0.117832  -0.000501  0.959812  -0.001  0.126803  -0.000451  1.021048  0.0  0.129569  -0.000333  1.020442  0.0  0.112041  0.124643  -0.000543  1.021957  -0.001
H  H19  1  0.26670948  0.04159923  0.55185370  1  0.117785  0.0005  0.959788  0.001  0.126731  0.000451  1.021064  0.0  0.129499  0.000333  1.020456  0.0  0.111994  0.124618  0.000543  1.021919  0.001
H  H20  1  0.51029283  0.86642248  0.68347093  1  0.092899  -0.001587  0.951557  -0.003  0.099397  -0.001194  1.01932  -0.002  0.102031  -0.000787  1.01655  -0.002  0.121796  0.097555  -0.00156  1.020687  -0.003
H  H21  1  0.48970259  0.13357354  0.31654259  1  0.092887  0.001587  0.951419  0.003  0.099342  0.001194  1.019239  0.002  0.101975  0.000787  1.016469  0.002  0.121792  0.097498  0.00156  1.020606  0.003
H  H22  1  0.02461523  0.00221919  0.84551497  1  0.110666  0.000355  0.933493  0.0  0.123132  0.00014  0.99792  0.0  0.124759  0.000113  0.997691  0.0  0.102808  0.12212  0.000152  0.99806  0.0
H  H23  1  0.97538324  0.99776369  0.15448527  1  0.110595  -0.000356  0.933566  0.0  0.123097  -0.000141  0.997987  0.0  0.124702  -0.000112  0.997767  0.0  0.102813  0.12208  -0.000152  0.99812  0.0
H  H24  1  0.20795160  0.03120673  0.91625308  1  0.095203  0.000262  0.957612  0.0  0.109432  -3.2e-05  1.022221  0.0  0.110808  -1.4e-05  1.022387  0.0  0.097946  0.108677  -1.2e-05  1.022143  0.0
H  H25  1  0.79204894  0.96877395  0.08374936  1  0.095233  -0.000263  0.957578  0.0  0.109437  3.1e-05  1.022303  0.0  0.110826  1.4e-05  1.022429  0.0  0.097936  0.108672  1.2e-05  1.022218  0.0
C  C26  1  0.46531869  0.24978399  0.86133657  1  0.144233  0.005499  3.659465  0.007  0.115124  0.000427  3.914964  0.002  0.125554  0.00137  3.932601  0.003  0.055676  0.107811  -0.000333  3.904956  0.001
C  C27  1  0.53468267  0.75021656  0.13865990  1  0.144267  -0.005475  3.659425  -0.007  0.115137  -0.000428  3.914944  -0.002  0.125569  -0.00137  3.932574  -0.003  0.055688  0.107824  0.000334  3.90494  -0.001
C  C28  1  0.55938819  0.12629247  0.81215084  1  -0.115286  -0.00797  3.700697  -0.009  -0.126749  -0.003775  3.948505  -0.005  -0.13414  -0.003325  3.968024  -0.004  -0.077675  -0.1231  -0.004255  3.937127  -0.005
C  C29  1  0.44061370  0.87371141  0.18784066  1  -0.115299  0.007941  3.700645  0.009  -0.126766  0.003774  3.948468  0.005  -0.134161  0.003324  3.967992  0.004  -0.077706  -0.123119  0.004255  3.937092  0.005
C  C30  1  0.68798680  0.14449515  0.68155577  1  0.012811  0.006595  3.686102  0.006  -0.007037  0.002308  3.93535  0.002  -0.001483  0.002453  3.950999  0.002  -0.05984  -0.010619  0.002197  3.925023  0.002
C  C31  1  0.31201462  0.85551091  0.31843907  1  0.01288  -0.006569  3.686008  -0.006  -0.006972  -0.002309  3.935261  -0.002  -0.001409  -0.002453  3.950925  -0.002  -0.059816  -0.010558  -0.002197  3.92494  -0.002
C  C32  1  0.71754860  0.28574291  0.60369994  1  -0.129329  -0.005252  3.684536  -0.005  -0.146461  -0.002348  3.930245  -0.002  -0.153867  -0.002113  3.950411  -0.002  -0.074747  -0.141304  -0.002619  3.91683  -0.003
C  C33  1  0.28245435  0.71426315  0.39629754  1  -0.129457  0.005224  3.684562  0.005  -0.146581  0.00235  3.930194  0.002  -0.153998  0.002113  3.950368  0.002  -0.074768  -0.141425  0.002619  3.916783  0.003
C  C34  1  0.62415606  0.40433879  0.66060283  1  0.177015  0.002596  3.755832  0.003  0.173571  -0.000408  3.999309  0.0  0.182234  0.000499  4.019631  0.001  0.122188  0.167831  -0.001082  3.985688  -0.001
C  C35  1  0.37584483  0.59566394  0.33939795  1  0.177082  -0.002574  3.755817  -0.003  0.173705  0.000406  3.999189  0.0  0.182372  -0.000498  4.019511  -0.001  0.122238  0.167966  0.001082  3.98557  0.001
C  C36  1  0.65615152  0.55610329  0.59065764  1  0.170516  0.003052  3.75555  0.003  0.169498  -0.000422  3.99747  0.0  0.17706  0.000694  4.018399  0.001  0.118518  0.164701  -0.00131  3.983492  -0.001
C  C37  1  0.34384356  0.44389937  0.40934815  1  0.170444  -0.003062  3.755495  -0.003  0.169417  0.000423  3.997434  0.0  0.176977  -0.000693  4.01837  -0.001  0.11844  0.16462  0.001311  3.98345  0.001
C  C38  1  0.77546219  0.59897670  0.45785210  1  -0.132412  -0.006632  3.663805  -0.007  -0.151279  -0.002859  3.908043  -0.003  -0.158329  -0.002579  3.929077  -0.003  -0.07691  -0.146715  -0.003049  3.894019  -0.003
C  C39  1  0.22453447  0.40103148  0.54215373  1  -0.132179  0.006646  3.663622  0.007  -0.151067  0.002857  3.907861  0.003  -0.158115  0.002579  3.928891  0.003  -0.076803  -0.146507  0.003048  3.893837  0.003
C  C40  1  0.80229712  0.74499453  0.40458242  1  0.008486  0.008  3.68958  0.007  -0.008094  0.002826  3.936319  0.003  -0.003742  0.002955  3.953978  0.003  -0.061044  -0.011007  0.002617  3.924767  0.002
C  C41  1  0.19769186  0.25501470  0.59542259  1  0.008183  -0.008011  3.689726  -0.007  -0.008415  -0.002825  3.93648  -0.003  -0.004064  -0.002954  3.954134  -0.003  -0.061185  -0.011334  -0.002617  3.92494  -0.002
C  C42  1  0.71015492  0.84463760  0.48503786  1  -0.1146  -0.010619  3.683747  -0.012  -0.127992  -0.00488  3.932838  -0.006  -0.136358  -0.004164  3.955019  -0.005  -0.078193  -0.122597  -0.005378  3.918235  -0.007
C  C43  1  0.28984154  0.15537166  0.51497158  1  -0.114494  0.010629  3.683652  0.012  -0.127847  0.004879  3.932725  0.006  -0.136218  0.004164  3.954911  0.005  -0.078101  -0.122491  0.005378  3.918092  0.007
C  C44  1  0.58921014  0.79532551  0.61522558  1  0.145123  0.006075  3.672756  0.007  0.112077  0.000408  3.936301  0.002  0.121905  0.001618  3.953775  0.003  0.053044  0.106017  -0.000471  3.924226  0.001
C  C45  1  0.41079387  0.20467720  0.38478339  1  0.145132  -0.006078  3.672454  -0.007  0.112134  -0.000409  3.935969  -0.002  0.121966  -0.00162  3.953448  -0.003  0.053066  0.106075  0.00047  3.923904  -0.001
C  C46  1  0.15793148  0.80964653  0.97767552  1  0.694608  0.00242  3.804424  0.006  0.650868  -0.00127  4.115734  0.001  0.68661  -0.000829  4.111794  0.001  0.211693  0.626444  -0.001664  4.117218  0.001
C  C47  1  0.84206268  0.19034183  0.02232587  1  0.694675  -0.002426  3.804266  -0.006  0.651006  0.001268  4.115536  -0.001  0.686726  0.000827  4.111597  -0.001  0.211709  0.626585  0.001664  4.117001  -0.001
C  C48  1  0.08040102  0.97445825  0.94281300  1  -0.241523  -0.00732  3.704213  -0.008  -0.285525  -0.003749  3.959249  -0.004  -0.291312  -0.002509  3.968605  -0.003  -0.169492  -0.281274  -0.004721  3.952025  -0.005
C  C49  1  0.91960093  0.02552245  0.05718625  1  -0.241448  0.007327  3.704177  0.008  -0.285666  0.003751  3.95943  0.004  -0.291374  0.002509  3.968705  0.003  -0.169576  -0.281366  0.004722  3.952164  0.005
N  N50  1  0.49956112  0.38533802  0.78813220  1  -0.326899  -0.079159  3.291585  -0.097  -0.283758  -0.055729  3.583199  -0.073  -0.314847  -0.046327  3.604756  -0.064  -0.341045  -0.265242  -0.06084  3.57111  -0.077
N  N51  1  0.50043737  0.61466248  0.21186871  1  -0.326954  0.079143  3.291571  0.097  -0.283817  0.055734  3.583153  0.073  -0.314914  0.046327  3.604713  0.064  -0.34104  -0.26531  0.060842  3.571078  0.077
N  N52  1  0.56357503  0.65480850  0.66596564  1  -0.317079  -0.088349  3.311109  -0.109  -0.276181  -0.060859  3.602884  -0.08  -0.306995  -0.050352  3.624189  -0.07  -0.340699  -0.25736  -0.065946  3.590442  -0.084
N  N53  1  0.43642562  0.34519532  0.33403682  1  -0.317071  0.088354  3.311022  0.109  -0.276175  0.060862  3.602769  0.08  -0.307001  0.050353  3.624083  0.07  -0.340676  -0.257364  0.065947  3.590337  0.084
N  N54  1  0.99388484  0.75742692  0.73815369  1  0.692763  0.000667  4.14627  0.001  0.722274  0.000697  4.448949  0.001  0.748795  0.000492  4.454847  0.001  0.095101  0.702983  0.000971  4.444968  0.001
N  N55  1  0.00612252  0.24257917  0.26184294  1  0.692883  -0.000668  4.146216  -0.001  0.7223  -0.000695  4.449028  -0.001  0.74879  -0.000496  4.454955  -0.001  0.09521  0.703021  -0.00097  4.445019  -0.001
O  O56  1  0.30437897  0.76874085  0.88316770  1  -0.611524  -0.098636  2.047275  -0.129  -0.594757  -0.056798  2.346344  -0.081  -0.640155  -0.04185  2.34175  -0.063  -0.336847  -0.562378  -0.067681  2.348892  -0.093
O  O57  1  0.69562008  0.23125192  0.11683830  1  -0.611521  0.09864  2.047219  0.129  -0.594784  0.0568  2.346266  0.081  -0.640199  0.041851  2.341694  0.063  -0.336836  -0.562417  0.067681  2.348825  0.093
O  O58  1  0.28210750  0.48074283  0.04886191  1  -0.85286  -0.059997  2.070768  -0.076  -0.824845  -0.043438  2.328776  -0.059  -0.859371  -0.034984  2.28643  -0.049  -0.588291  -0.80103  -0.048894  2.358517  -0.064
O  O59  1  0.71790376  0.51924786  0.95113656  1  -0.85293  0.059986  2.070856  0.076  -0.824831  0.043434  2.328936  0.059  -0.859392  0.03498  2.286498  0.049  -0.588283  -0.801007  0.048885  2.358671  0.064
O  O60  1  0.07984154  0.72491659  0.08891959  1  -0.591075  -0.00027  1.949403  -0.001  -0.534468  2e-05  2.159864  0.0  -0.56099  0.000461  2.152957  0.001  -0.307468  -0.515676  -0.000568  2.163955  -0.001
O  O61  1  0.92015367  0.27506081  0.91107118  1  -0.591265  0.000273  1.949349  0.001  -0.534599  -2.1e-05  2.159769  0.0  -0.561123  -0.00046  2.152875  -0.001  -0.307525  -0.515811  0.000568  2.163854  0.001
O  O62  1  0.83828879  0.77654861  0.83415387  1  -0.492628  0.002402  1.789329  0.003  -0.466573  0.001346  2.001001  0.002  -0.482786  0.000768  1.994762  0.001  -0.196387  -0.454743  0.002029  2.005364  0.002
O  O63  1  0.16171109  0.22345745  0.16583833  1  -0.492633  -0.002403  1.789316  -0.003  -0.466567  -0.001346  2.001084  -0.002  -0.482693  -0.00077  1.994751  -0.001  -0.196456  -0.454741  -0.002029  2.005444  -0.002
O  O64  1  0.04872656  0.86644496  0.64396990  1  -0.441016  0.000927  1.764593  0.001  -0.428558  0.000792  1.98051  0.001  -0.439754  0.000566  1.975409  0.001  -0.173039  -0.419962  0.00103  1.984032  0.001
O  O65  1  0.95128481  0.13355676  0.35602433  1  -0.441126  -0.000925  1.764623  -0.001  -0.42864  -0.000794  1.980599  -0.001  -0.439831  -0.000563  1.975496  -0.001  -0.173074  -0.420057  -0.00103  1.984132  -0.001
O  O66  1  0.08830555  0.62728081  0.74092114  1  -0.493313  0.000721  1.785312  -0.001  -0.494644  0.000993  2.022206  0.0  -0.508127  0.000932  2.010891  0.0  -0.202204  -0.485139  0.000916  2.030586  0.0
O  O67  1  0.91170106  0.37272303  0.25908408  1  -0.493318  -0.000721  1.785252  0.001  -0.494633  -0.000992  2.022217  0.0  -0.508117  -0.000929  2.010905  0.0  -0.202214  -0.485131  -0.000916  2.030594  0.0
