# generated using pymatgen
data_ZnH16C20(NO2)2
_symmetry_space_group_name_H-M   'P 1'
_cell_length_a   9.68401345
_cell_length_b   14.98737750
_cell_length_c   20.13163684
_cell_angle_alpha   89.99998537
_cell_angle_beta   90.00000092
_cell_angle_gamma   93.56708979
_symmetry_Int_Tables_number   1
_chemical_formula_structural   ZnH16C20(NO2)2
_chemical_formula_sum   'Zn4 H64 C80 N8 O16'
_cell_volume   2916.20407440
_cell_formula_units_Z   4
loop_
 _symmetry_equiv_pos_site_id
 _symmetry_equiv_pos_as_xyz
  1  'x, y, z'
loop_
 _atom_site_type_symbol
 _atom_site_label
 _atom_site_symmetry_multiplicity
 _atom_site_fract_x
 _atom_site_fract_y
 _atom_site_fract_z
 _atom_site_occupancy
 _atom_site_pbe_bader_charge
 _atom_site_pbe_bader_spin_density
 _atom_site_pbe_cm5_charge
 _atom_site_pbe_ddec_charge
 _atom_site_pbe_ddec_spin_density
 _atom_site_pbe_ddec_sum_bond_order
 _atom_site_pbe_magmom
Zn  Zn0  1  0.58534757  0.94944026  0.80432497  1  1.244994  0  0.687103  0.749281  0  2.408786  0
Zn  Zn1  1  0.91465290  0.55056042  0.30432444  1  1.244959  0  0.68709  0.749292  0  2.408803  0
Zn  Zn2  1  0.41465276  0.05056037  0.19567559  1  1.244981  0  0.687091  0.74927  0  2.408824  0
Zn  Zn3  1  0.08534634  0.44943954  0.69567563  1  1.244963  0  0.687097  0.749234  0  2.408833  0
H  H4  1  0.85523357  0.74134935  0.75600701  1  0.125189  0  0.101152  0.109562  0  1.023113  0
H  H5  1  0.64476786  0.75865067  0.25600743  1  0.125158  0  0.101194  0.109606  0  1.023178  0
H  H6  1  0.14476786  0.25865195  0.24399256  1  0.125174  0  0.101195  0.109606  0  1.023157  0
H  H7  1  0.35523241  0.24134929  0.74399264  1  0.125156  0  0.101193  0.109601  0  1.023179  0
H  H8  1  0.25661676  0.66664454  0.81669160  1  0.068278  0  0.102489  0.10752  0  0.9997  0
H  H9  1  0.24338400  0.83335563  0.31669201  1  0.068295  0  0.102503  0.107553  0  0.99967  0
H  H10  1  0.74338248  0.33335542  0.18330846  1  0.068277  0  0.102489  0.107498  0  0.999701  0
H  H11  1  0.75661420  0.16664434  0.68330756  1  0.068301  0  0.102511  0.107547  0  0.999696  0
H  H12  1  0.28262518  0.80234153  0.88883774  1  0.040206  0  0.088021  0.081321  0  1.061392  0
H  H13  1  0.21737448  0.69765794  0.38883816  1  0.040186  0  0.088014  0.081288  0  1.061458  0
H  H14  1  0.71737825  0.19765910  0.11116183  1  0.040226  0  0.088016  0.081294  0  1.061399  0
H  H15  1  0.78262153  0.30234069  0.61116141  1  0.040235  0  0.088017  0.0813  0  1.061376  0
H  H16  1  0.09015889  0.90696638  0.89462563  1  0.083716  0  0.097658  0.097856  0  1.026256  0
H  H17  1  0.40984283  0.59303309  0.39462558  1  0.0837  0  0.097665  0.097865  0  1.02623  0
H  H18  1  0.90984460  0.09303492  0.10537295  1  0.083742  0  0.097639  0.097832  0  1.026228  0
H  H19  1  0.59015750  0.40696754  0.60537349  1  0.083673  0  0.097672  0.097892  0  1.026194  0
H  H20  1  0.29996170  0.97916534  0.74986442  1  0.135058  0  0.120278  0.100585  0  1.004428  0
H  H21  1  0.20004022  0.52083618  0.24986538  1  0.135294  0  0.120285  0.100577  0  1.004417  0
H  H22  1  0.70003870  0.02083596  0.25013465  1  0.135291  0  0.120265  0.100543  0  1.004486  0
H  H23  1  0.79996024  0.47916579  0.75013469  1  0.135269  0  0.120306  0.100609  0  1.004362  0
H  H24  1  0.13110807  0.90144113  0.67194627  1  0.089416  0  0.114074  0.123707  0  0.974509  0
H  H25  1  0.36889275  0.59855976  0.17194771  1  0.089299  0  0.114082  0.123748  0  0.974497  0
H  H26  1  0.86889129  0.09856017  0.32805230  1  0.089317  0  0.114087  0.123738  0  0.974495  0
H  H27  1  0.63110836  0.40143820  0.82805285  1  0.089334  0  0.114109  0.123765  0  0.974495  0
H  H28  1  0.40894999  0.68718272  0.65904272  1  0.092639  0  0.116628  0.130809  0  0.990038  0
H  H29  1  0.09105082  0.81281816  0.15904213  1  0.092676  0  0.116622  0.130837  0  0.989999  0
H  H30  1  0.59104931  0.31281791  0.34095784  1  0.092622  0  0.116633  0.130863  0  0.989982  0
H  H31  1  0.90895248  0.18718113  0.84095694  1  0.092594  0  0.116612  0.130822  0  0.990063  0
H  H32  1  0.56719214  0.77501436  0.73565198  1  0.12189  0  0.122977  0.101001  0  0.990923  0
H  H33  1  0.93280833  0.72498634  0.23565141  1  0.121761  0  0.122977  0.101  0  0.990923  0
H  H34  1  0.43280716  0.22498627  0.26434808  1  0.121863  0  0.12299  0.101024  0  0.990877  0
H  H35  1  0.06719297  0.27501362  0.76434766  1  0.121857  0  0.122984  0.101005  0  0.990892  0
H  H36  1  0.14185520  0.79411614  0.56844451  1  0.022797  0  0.100431  0.099314  0  0.973356  0
H  H37  1  0.35814355  0.70588478  0.06844444  1  0.022377  0  0.100445  0.099305  0  0.973349  0
H  H38  1  0.85814294  0.20588315  0.43155555  1  0.022352  0  0.100437  0.099304  0  0.973342  0
H  H39  1  0.64185878  0.29411519  0.93155513  1  0.022393  0  0.100441  0.099309  0  0.973363  0
H  H40  1  0.05797186  0.72984947  0.63147168  1  0.080467  0  0.104076  0.114106  0  0.983618  0
H  H41  1  0.44202786  0.77015076  0.13147111  1  0.080472  0  0.104077  0.114107  0  0.983623  0
H  H42  1  0.94202635  0.27015049  0.36852888  1  0.080451  0  0.104076  0.114114  0  0.983638  0
H  H43  1  0.55797331  0.22984786  0.86852846  1  0.080445  0  0.104081  0.114127  0  0.983617  0
H  H44  1  0.31596057  0.67058758  0.55866837  1  0.04095  0  0.106814  0.113484  0  0.957022  0
H  H45  1  0.18404024  0.82941334  0.05866828  1  0.040961  0  0.106795  0.113441  0  0.957033  0
H  H46  1  0.68403744  0.32941038  0.44133219  1  0.040909  0  0.106819  0.113489  0  0.95704  0
H  H47  1  0.81596209  0.17058662  0.94133179  1  0.040919  0  0.106808  0.113473  0  0.957034  0
H  H48  1  0.21011160  0.60434695  0.61174652  1  0.100487  0  0.105944  0.120984  0  0.997843  0
H  H49  1  0.28988709  0.89565329  0.11174642  1  0.100498  0  0.105939  0.120958  0  0.997842  0
H  H50  1  0.78988648  0.39565168  0.38825503  1  0.100555  0  0.105967  0.121  0  0.997863  0
H  H51  1  0.71011202  0.10434534  0.88825414  1  0.100693  0  0.10594  0.120953  0  0.997888  0
H  H52  1  0.96917794  0.72426979  0.51710493  1  0.085592  0  0.112274  0.121432  0  0.997777  0
H  H53  1  0.53082059  0.77573233  0.01710584  1  0.085621  0  0.112275  0.121459  0  0.997756  0
H  H54  1  0.03082020  0.27572951  0.48289464  1  0.085472  0  0.11225  0.121402  0  0.997779  0
H  H55  1  0.46918084  0.22426897  0.98289472  1  0.085505  0  0.112275  0.121446  0  0.997757  0
H  H56  1  0.85982357  0.67003533  0.41194806  1  0.109611  0  0.122577  0.096201  0  0.993407  0
H  H57  1  0.64017696  0.82996598  0.91194862  1  0.109548  0  0.122589  0.096256  0  0.993354  0
H  H58  1  0.14017670  0.32996464  0.58805151  1  0.109544  0  0.122573  0.096227  0  0.993394  0
H  H59  1  0.35982447  0.17003532  0.08805144  1  0.109557  0  0.122593  0.09624  0  0.993382  0
H  H60  1  0.13346876  0.47102211  0.39097909  1  0.145156  0  0.121292  0.105745  0  1.00591  0
H  H61  1  0.36653041  0.02897840  0.89097921  1  0.145147  0  0.121287  0.10571  0  1.005929  0
H  H62  1  0.86653035  0.52897651  0.60902197  1  0.145147  0  0.121299  0.10571  0  1.005932  0
H  H63  1  0.63346883  0.97102156  0.10902135  1  0.145137  0  0.12129  0.105721  0  1.005917  0
H  H64  1  0.25660401  0.51670047  0.49742200  1  0.114843  0  0.118943  0.136738  0  0.969238  0
H  H65  1  0.24339371  0.98330030  0.99742154  1  0.114837  0  0.118944  0.136729  0  0.96926  0
H  H66  1  0.74339413  0.48329882  0.50257906  1  0.114852  0  0.118966  0.136763  0  0.96925  0
H  H67  1  0.75660552  0.01669966  0.00257853  1  0.114827  0  0.118963  0.136783  0  0.969288  0
C  C68  1  0.84379696  0.89143790  0.83209570  1  1.536766  0  0.190997  0.562059  0  4.235587  0
C  C69  1  0.65620338  0.60856144  0.33209564  1  1.53677  0  0.191044  0.562095  0  4.235511  0
C  C70  1  0.15620441  0.10856274  0.16790387  1  1.536773  0  0.191055  0.562089  0  4.235647  0
C  C71  1  0.34379470  0.39143719  0.66790393  1  1.536774  0  0.191034  0.562028  0  4.23584  0
C  C72  1  0.96103993  0.83068786  0.82610910  1  -0.019962  0  -0.024388  -0.038779  0  3.98489  0
C  C73  1  0.53896254  0.66931215  0.32610954  1  -0.019853  0  -0.024357  -0.038747  0  3.984789  0
C  C74  1  0.03896254  0.16931344  0.17388997  1  -0.019956  0  -0.024341  -0.038729  0  3.984887  0
C  C75  1  0.46103663  0.33068715  0.67389003  1  -0.019943  0  -0.024342  -0.03871  0  3.984828  0
C  C76  1  0.94872834  0.75522772  0.78513877  1  -0.062627  0  -0.08108  -0.108102  0  3.942492  0
C  C77  1  0.55127309  0.74477230  0.28513919  1  -0.062707  0  -0.081144  -0.108136  0  3.942516  0
C  C78  1  0.05127309  0.24477358  0.21486080  1  -0.062627  0  -0.081117  -0.108101  0  3.942522  0
C  C79  1  0.44872718  0.25522766  0.71486137  1  -0.062621  0  -0.081144  -0.108105  0  3.942579  0
C  C80  1  0.05474589  0.69631631  0.78179429  1  -0.02744  0  -0.026283  -0.044052  0  3.996787  0
C  C81  1  0.44525383  0.80368387  0.28179470  1  -0.027394  0  -0.026263  -0.044024  0  3.996723  0
C  C82  1  0.94525444  0.30368432  0.21820528  1  -0.027427  0  -0.026272  -0.044113  0  3.996818  0
C  C83  1  0.55474540  0.19631610  0.71820487  1  -0.0274  0  -0.026266  -0.044118  0  3.996797  0
C  C84  1  0.17499122  0.71329496  0.81972165  1  -0.027967  0  -0.084393  -0.087096  0  3.968017  0
C  C85  1  0.32500941  0.78670387  0.31972207  1  -0.027943  0  -0.08439  -0.087149  0  3.967936  0
C  C86  1  0.82500905  0.28670500  0.18027791  1  -0.027963  0  -0.084336  -0.086935  0  3.968004  0
C  C87  1  0.67499080  0.21329543  0.68027701  1  -0.028189  0  -0.084393  -0.087087  0  3.967991  0
C  C88  1  0.18860995  0.78909753  0.85989871  1  -0.009513  0  -0.102376  -0.095853  0  4.042013  0
C  C89  1  0.31138952  0.71089994  0.35989963  1  -0.009526  0  -0.102364  -0.095776  0  4.04193  0
C  C90  1  0.81139129  0.21090176  0.14010185  1  -0.0095  0  -0.102409  -0.095913  0  4.042125  0
C  C91  1  0.68860868  0.28910002  0.64010242  1  -0.009279  0  -0.102375  -0.095791  0  4.041944  0
C  C92  1  0.08219363  0.84764872  0.86321637  1  -0.057682  0  -0.086836  -0.09389  0  3.976483  0
C  C93  1  0.41780706  0.65235076  0.36321680  1  -0.057689  0  -0.086883  -0.093977  0  3.976413  0
C  C94  1  0.91780980  0.15235191  0.13678320  1  -0.057727  0  -0.086894  -0.093955  0  3.976482  0
C  C95  1  0.58219127  0.34765054  0.63678277  1  -0.057713  0  -0.086905  -0.094048  0  3.97635  0
C  C96  1  0.03715101  0.61491581  0.73871533  1  1.5345  0  0.195758  0.558106  0  4.233288  0
C  C97  1  0.46284975  0.88508439  0.23871573  1  1.534503  0  0.19575  0.558113  0  4.233239  0
C  C98  1  0.96284926  0.38508416  0.26128523  1  1.534518  0  0.195757  0.558171  0  4.2332  0
C  C99  1  0.53714942  0.11491491  0.76128434  1  1.534495  0  0.195764  0.558174  0  4.233172  0
C  C100  1  0.31928492  0.91448328  0.72798940  1  0.425799  0  0.04704  0.093782  0  3.949827  0
C  C101  1  0.18071597  0.58551825  0.22798985  1  0.4256  0  0.047076  0.09385  0  3.949818  0
C  C102  1  0.68071548  0.08551802  0.27200967  1  0.425592  0  0.047057  0.093805  0  3.949906  0
C  C103  1  0.81928656  0.41448372  0.77201121  1  0.425596  0  0.047002  0.093738  0  3.949759  0
C  C104  1  0.22709814  0.87085411  0.68438391  1  0.014877  0  -0.081689  -0.183455  0  3.949855  0
C  C105  1  0.27290384  0.62914811  0.18438485  1  0.015001  0  -0.081731  -0.183566  0  3.949923  0
C  C106  1  0.77290226  0.12914719  0.31561516  1  0.014992  0  -0.081679  -0.183462  0  3.949892  0
C  C107  1  0.72709849  0.37085185  0.81561472  1  0.015021  0  -0.081723  -0.18352  0  3.94986  0
C  C108  1  0.25721909  0.78832524  0.65680196  1  -0.026483  0  0.020024  0.173999  0  3.930815  0
C  C109  1  0.24278179  0.71167632  0.15680189  1  -0.026508  0  0.020006  0.173997  0  3.930889  0
C  C110  1  0.74278021  0.21167539  0.34319761  1  -0.026421  0  0.020004  0.173989  0  3.930873  0
C  C111  1  0.75722048  0.28832298  0.84319718  1  -0.026491  0  0.020035  0.174011  0  3.930795  0
C  C112  1  0.38052041  0.75226686  0.67670496  1  -0.00071  0  -0.081063  -0.184804  0  3.934574  0
C  C113  1  0.11948041  0.74773402  0.17670489  1  -0.000769  0  -0.081064  -0.18485  0  3.934523  0
C  C114  1  0.61947889  0.24773377  0.32329460  1  -0.000725  0  -0.081058  -0.184864  0  3.934544  0
C  C115  1  0.88052180  0.25226460  0.82329419  1  -0.000672  0  -0.081079  -0.184892  0  3.934621  0
C  C116  1  0.46884542  0.80011460  0.72016541  1  0.433958  0  0.051073  0.098384  0  3.941705  0
C  C117  1  0.03115437  0.69988627  0.22016584  1  0.43408  0  0.051085  0.098384  0  3.941664  0
C  C118  1  0.53115388  0.19988603  0.27983466  1  0.433993  0  0.051053  0.098344  0  3.941606  0
C  C119  1  0.96884590  0.30011370  0.77983423  1  0.434018  0  0.051056  0.098375  0  3.941686  0
C  C120  1  0.15909679  0.74390052  0.60716318  1  -0.01295  0  -0.153615  -0.199848  0  3.958927  0
C  C121  1  0.34090300  0.75610039  0.10716310  1  -0.012524  0  -0.153613  -0.19985  0  3.958947  0
C  C122  1  0.84090142  0.25609944  0.39283738  1  -0.012519  0  -0.1536  -0.19982  0  3.958975  0
C  C123  1  0.65909824  0.24389891  0.89283697  1  -0.012517  0  -0.153597  -0.199822  0  3.958955  0
C  C124  1  0.20774568  0.65920444  0.57529991  1  -0.010933  0  -0.152632  -0.202526  0  3.933566  0
C  C125  1  0.29225514  0.84079648  0.07529981  1  -0.010966  0  -0.152592  -0.202407  0  3.933552  0
C  C126  1  0.79225246  0.34079486  0.42470115  1  -0.012364  0  -0.15269  -0.202589  0  3.933732  0
C  C127  1  0.70774817  0.15920281  0.92470075  1  -0.012532  0  -0.152617  -0.20248  0  3.9336  0
C  C128  1  0.12652127  0.62659834  0.51555017  1  -0.08935  0  0.023192  0.181528  0  3.918515  0
C  C129  1  0.37347742  0.87340193  0.01554957  1  -0.089356  0  0.023147  0.181492  0  3.918508  0
C  C130  1  0.87347578  0.37340029  0.48445089  1  -0.08802  0  0.023189  0.181547  0  3.918415  0
C  C131  1  0.62652388  0.12659803  0.98445049  1  -0.087984  0  0.023148  0.181535  0  3.918467  0
C  C132  1  0.01087114  0.66801708  0.49131319  1  0.02318  0  -0.085669  -0.195906  0  3.956338  0
C  C133  1  0.48912762  0.83198369  0.99131326  1  0.023108  0  -0.085676  -0.195921  0  3.956354  0
C  C134  1  0.98912694  0.33198154  0.50868737  1  0.023301  0  -0.085634  -0.195815  0  3.956312  0
C  C135  1  0.51087265  0.16801627  0.00868681  1  0.023338  0  -0.085666  -0.195892  0  3.956353  0
C  C136  1  0.94831344  0.63808033  0.43267167  1  0.448966  0  0.048933  0.093531  0  3.962635  0
C  C137  1  0.55168373  0.86191830  0.93267073  1  0.449114  0  0.048938  0.093449  0  3.962624  0
C  C138  1  0.05168573  0.36191896  0.56732840  1  0.449105  0  0.048914  0.093416  0  3.962616  0
C  C139  1  0.44831434  0.13808033  0.06732834  1  0.449008  0  0.048898  0.093426  0  3.962685  0
C  C140  1  0.10218891  0.52658625  0.42138198  1  0.450266  0  0.048973  0.088908  0  3.943616  0
C  C141  1  0.39781197  0.97341521  0.92138251  1  0.450246  0  0.048928  0.088948  0  3.943575  0
C  C142  1  0.89781142  0.47341438  0.57861858  1  0.449822  0  0.049036  0.089099  0  3.943431  0
C  C143  1  0.60218836  0.02658542  0.07861854  1  0.449838  0  0.049053  0.089091  0  3.943598  0
C  C144  1  0.16938823  0.55283718  0.47971752  1  -0.012116  0  -0.077124  -0.179493  0  3.921563  0
C  C145  1  0.33061162  0.94716427  0.97971757  1  -0.012143  0  -0.077125  -0.179523  0  3.92161  0
C  C146  1  0.83061094  0.44716212  0.52028403  1  -0.012091  0  -0.077277  -0.179726  0  3.921664  0
C  C147  1  0.66938871  0.05283636  0.02028349  1  -0.012115  0  -0.077224  -0.17972  0  3.921739  0
N  N148  1  0.44012711  0.88031318  0.74500491  1  -1.246815  0  -0.331452  -0.238687  0  3.572054  0
N  N149  1  0.05987371  0.61968768  0.24500486  1  -1.246807  0  -0.331455  -0.238659  0  3.572055  0
N  N150  1  0.55987225  0.11968812  0.25499515  1  -1.246873  0  -0.331444  -0.238639  0  3.572012  0
N  N151  1  0.94012759  0.38031228  0.75499521  1  -1.246872  0  -0.331419  -0.238599  0  3.572011  0
N  N152  1  0.99407464  0.56950050  0.39749868  1  -1.259277  0  -0.335361  -0.245983  0  3.617034  0
N  N153  1  0.50592480  0.93050014  0.89749822  1  -1.259292  0  -0.335303  -0.245918  0  3.616936  0
N  N154  1  0.00592557  0.43049879  0.60250189  1  -1.258854  0  -0.3353  -0.245918  0  3.616815  0
N  N155  1  0.49407450  0.06950049  0.10250135  1  -1.258887  0  -0.335335  -0.245956  0  3.617052  0
O  O156  1  0.73463250  0.86660545  0.79708116  1  -1.181801  0  -0.347849  -0.573196  0  2.325869  0
O  O157  1  0.76536900  0.63339524  0.29708160  1  -1.181809  0  -0.347927  -0.573277  0  2.325861  0
O  O158  1  0.26536880  0.13339452  0.20291841  1  -1.181802  0  -0.347886  -0.573193  0  2.325959  0
O  O159  1  0.23462907  0.36660339  0.70291698  1  -1.18182  0  -0.34788  -0.573149  0  2.326026  0
O  O160  1  0.85232835  0.95829715  0.86936688  1  -1.168484  0  -0.343723  -0.569489  0  2.080403  0
O  O161  1  0.64767095  0.54170218  0.36936733  1  -1.16851  0  -0.343694  -0.569446  0  2.080295  0
O  O162  1  0.14766979  0.04170215  0.13063319  1  -1.168487  0  -0.34374  -0.569514  0  2.080344  0
O  O163  1  0.35232932  0.45829779  0.63063373  1  -1.168485  0  -0.343735  -0.569508  0  2.080427  0
O  O164  1  0.13869894  0.56226305  0.74011513  1  -1.158056  0  -0.338064  -0.543614  0  2.302868  0
O  O165  1  0.36129968  0.93773648  0.24011551  1  -1.158057  0  -0.338054  -0.543629  0  2.30283  0
O  O166  1  0.86129919  0.43773625  0.25988593  1  -1.158062  0  -0.33806  -0.543659  0  2.302839  0
O  O167  1  0.63869949  0.06226282  0.75988505  1  -1.158069  0  -0.338072  -0.543642  0  2.302823  0
O  O168  1  0.92962948  0.60012115  0.70441559  1  -1.197397  0  -0.335115  -0.575165  0  2.126427  0
O  O169  1  0.57037086  0.89987822  0.20441598  1  -1.197391  0  -0.335125  -0.575178  0  2.126435  0
O  O170  1  0.07037279  0.39987814  0.29558398  1  -1.197416  0  -0.335124  -0.575205  0  2.126387  0
O  O171  1  0.42962844  0.10012241  0.79558458  1  -1.19739  0  -0.335109  -0.575183  0  2.126389  0
