# generated using pymatgen
data_MnH14C12(N2O)6
_symmetry_space_group_name_H-M   'P 1'
_cell_length_a   7.56754061
_cell_length_b   8.48091123
_cell_length_c   14.40075567
_cell_angle_alpha   90.00088887
_cell_angle_beta   95.53644845
_cell_angle_gamma   90.00081601
_symmetry_Int_Tables_number   1
_chemical_formula_structural   MnH14C12(N2O)6
_chemical_formula_sum   'Mn2 H28 C24 N24 O12'
_cell_volume   919.92378201
_cell_formula_units_Z   2
loop_
 _symmetry_equiv_pos_site_id
 _symmetry_equiv_pos_as_xyz
  1  'x, y, z'
loop_
 _atom_site_type_symbol
 _atom_site_label
 _atom_site_symmetry_multiplicity
 _atom_site_fract_x
 _atom_site_fract_y
 _atom_site_fract_z
 _atom_site_occupancy
 _atom_site_hle17_ddec_charge
 _atom_site_hle17_ddec_spin_density
 _atom_site_hle17_ddec_sum_bond_order
 _atom_site_hle17_magmom
 _atom_site_pbe_cm5_charge
 _atom_site_pbe_ddec_charge
 _atom_site_pbe_ddec_spin_density
 _atom_site_pbe_ddec_sum_bond_order
 _atom_site_pbe_magmom
Mn  Mn0  1  0.99999818  0.00000268  0.49999981  1  0.706453  -1.2135  2.736851  -1.074  0.627057  0.568624  -1.109251  3.322555  -1.039
Mn  Mn1  1  0.49999959  0.49999904  0.00000001  1  0.706168  1.213524  2.736957  1.074  0.62719  0.569  1.10925  3.322335  1.039
H  H2  1  0.29361930  0.56997014  0.18944013  1  0.111983  0.000241  0.924664  0.001  0.148422  0.116754  -0.000261  0.992025  0.0
H  H3  1  0.20637569  0.06996702  0.31055957  1  0.112041  -0.000241  0.924624  -0.001  0.148456  0.116803  0.000261  0.992008  0.0
H  H4  1  0.70638683  0.43003449  0.81055922  1  0.112012  0.000241  0.924626  0.001  0.148428  0.116732  -0.000261  0.992067  0.0
H  H5  1  0.79362782  0.93003289  0.68944037  1  0.111991  -0.000241  0.92462  -0.001  0.148486  0.116783  0.000261  0.991987  0.0
H  H6  1  0.71045653  0.25199713  0.15351371  1  0.104014  0.000102  0.933552  0.0  0.137002  0.109286  -0.000176  0.99768  0.0
H  H7  1  0.78953476  0.75199820  0.34648415  1  0.104021  -0.000102  0.933571  0.0  0.137  0.109302  0.000176  0.997666  0.0
H  H8  1  0.28952977  0.74798863  0.84648695  1  0.103921  0.000102  0.933642  0.0  0.136988  0.1092  -0.000177  0.997758  0.0
H  H9  1  0.21046080  0.24801350  0.65351617  1  0.104088  -0.000102  0.933416  0.0  0.136998  0.109347  0.000176  0.997577  0.0
H  H10  1  0.84391910  0.32652000  0.38578788  1  0.095055  -0.000122  0.970381  0.0  0.131128  0.093525  1.1e-05  1.047933  0.0
H  H11  1  0.65606958  0.82651946  0.11421200  1  0.094962  0.000122  0.970311  0.0  0.1311  0.093417  -1.1e-05  1.047911  0.0
H  H12  1  0.15607906  0.67348227  0.61421115  1  0.095002  -0.000122  0.970356  0.0  0.131106  0.093464  1.1e-05  1.047912  0.0
H  H13  1  0.34392734  0.17347692  0.88578907  1  0.094968  0.000122  0.970311  0.0  0.131085  0.093376  -1.1e-05  1.047944  0.0
H  H14  1  0.36525079  0.19707922  0.48644910  1  0.121959  -0.000192  0.955385  0.0  0.144473  0.123553  8.3e-05  1.027362  0.0
H  H15  1  0.13473443  0.69707001  0.01355008  1  0.122079  0.000193  0.955357  0.0  0.144514  0.123662  -8.3e-05  1.027342  0.0
H  H16  1  0.63474484  0.80292776  0.51355262  1  0.121915  -0.000192  0.955393  0.0  0.144473  0.123553  8.3e-05  1.027313  0.0
H  H17  1  0.86526126  0.30292755  0.98645302  1  0.122105  0.000193  0.955321  0.0  0.144533  0.123688  -8.3e-05  1.027309  0.0
H  H18  1  0.52350659  0.42559619  0.42407112  1  0.1091  -5e-05  0.959206  0.0  0.145455  0.109089  -3.2e-05  1.030541  0.0
H  H19  1  0.97648900  0.92559650  0.07592653  1  0.109048  5e-05  0.959239  0.0  0.145454  0.109058  3.2e-05  1.030578  0.0
H  H20  1  0.47649556  0.57439664  0.57592807  1  0.109075  -5e-05  0.959283  0.0  0.14548  0.109101  -3.2e-05  1.030605  0.0
H  H21  1  0.02351722  0.07439988  0.92407490  1  0.109065  5e-05  0.959238  0.0  0.145454  0.109032  3.2e-05  1.030616  0.0
H  H22  1  0.30097977  0.83836622  0.50206634  1  0.424275  0.000639  0.889745  0.0  0.292427  0.380505  0.000138  0.971579  0.0
H  H23  1  0.19902416  0.33835352  0.99793403  1  0.424182  -0.000638  0.889877  0.0  0.292432  0.380439  -0.000137  0.971662  0.0
H  H24  1  0.69901827  0.16163958  0.49792992  1  0.424264  0.000639  0.88978  0.0  0.292446  0.380495  0.000138  0.971605  0.0
H  H25  1  0.80098067  0.66164403  0.00206596  1  0.424204  -0.000638  0.88984  0.0  0.292421  0.380455  -0.000137  0.971642  0.0
H  H26  1  0.30662602  0.94172191  0.59832554  1  0.412552  -0.001309  0.82047  -0.002  0.325334  0.388552  0.000497  0.885667  0.0
H  H27  1  0.19338465  0.44168906  0.90166707  1  0.412532  0.001309  0.820321  0.002  0.325359  0.388494  -0.000498  0.885582  0.0
H  H28  1  0.69337088  0.05827564  0.40167483  1  0.412495  -0.001309  0.820579  -0.002  0.325306  0.388493  0.000497  0.885773  0.0
H  H29  1  0.80661085  0.55830613  0.09833186  1  0.412547  0.001309  0.820339  0.002  0.325362  0.388547  -0.000498  0.885549  0.0
C  C30  1  0.39965944  0.48460276  0.19957729  1  0.215774  -0.012256  3.577583  -0.01  0.172188  0.128458  -0.008495  3.854008  -0.007
C  C31  1  0.10033607  0.98460024  0.30042374  1  0.215636  0.012259  3.577717  0.01  0.17212  0.128302  0.008493  3.854125  0.007
C  C32  1  0.60034146  0.51539597  0.80042394  1  0.215775  -0.012257  3.577405  -0.01  0.172208  0.128488  -0.008495  3.853824  -0.007
C  C33  1  0.89966484  0.01539967  0.69957749  1  0.215675  0.012256  3.577721  0.01  0.172053  0.128292  0.008491  3.854143  0.007
C  C34  1  0.61028587  0.32110853  0.18402051  1  0.210362  -0.007259  3.659283  -0.006  0.150267  0.148411  -0.003107  3.946319  -0.003
C  C35  1  0.88970652  0.82110779  0.31597530  1  0.210318  0.007257  3.659528  0.006  0.150255  0.14834  0.003104  3.946556  0.003
C  C36  1  0.38970303  0.67887958  0.81597886  1  0.210573  -0.007258  3.659158  -0.006  0.150321  0.148621  -0.003107  3.946172  -0.003
C  C37  1  0.11029037  0.17889920  0.68402508  1  0.210259  0.007258  3.659482  0.006  0.150246  0.148275  0.003104  3.946478  0.003
C  C38  1  0.98694101  0.32679467  0.40101396  1  0.207259  0.003198  3.639798  0.002  0.15139  0.14666  0.000867  3.922821  0.0
C  C39  1  0.51304768  0.82679071  0.09898593  1  0.207422  -0.003206  3.639508  -0.002  0.151443  0.146826  -0.000868  3.922542  0.0
C  C40  1  0.01305719  0.67320878  0.59898577  1  0.207382  0.003198  3.639909  0.002  0.151475  0.146817  0.000867  3.922886  0.0
C  C41  1  0.48695314  0.17320448  0.90101321  1  0.207399  -0.003205  3.639684  -0.002  0.151467  0.146855  -0.000867  3.922736  0.0
C  C42  1  0.25026468  0.25761991  0.45308303  1  0.156375  0.010654  3.593674  0.007  0.156636  0.067032  0.00657  3.859022  0.004
C  C43  1  0.24972696  0.75760829  0.04691839  1  0.156247  -0.010669  3.593664  -0.007  0.156489  0.066928  -0.006573  3.858968  -0.004
C  C44  1  0.74973617  0.74238590  0.54691681  1  0.156355  0.010655  3.593731  0.007  0.156614  0.067073  0.00657  3.859073  0.004
C  C45  1  0.75027265  0.24238808  0.95308348  1  0.156255  -0.010668  3.59351  -0.007  0.156502  0.066938  -0.006572  3.858828  -0.004
C  C46  1  0.41293985  0.46863623  0.37499873  1  0.034512  -8.2e-05  3.616037  0.0  0.126467  -0.024133  -0.000158  3.856107  0.0
C  C47  1  0.08705544  0.96862681  0.12500352  1  0.034602  8.2e-05  3.616171  0.0  0.126475  -0.024127  0.000158  3.856375  0.0
C  C48  1  0.58706100  0.53136840  0.62500110  1  0.034473  -8.2e-05  3.616046  0.0  0.126462  -0.024218  -0.000158  3.85628  0.0
C  C49  1  0.91294682  0.03137546  0.87499845  1  0.034407  8.2e-05  3.61633  0.0  0.126446  -0.024208  0.000157  3.856366  0.0
C  C50  1  0.40087351  0.65057435  0.39095599  1  0.619535  -5.8e-05  3.934435  0.0  0.204925  0.543375  -9e-06  4.260171  0.0
C  C51  1  0.09913505  0.15056719  0.10904990  1  0.619437  5.8e-05  3.934566  0.0  0.204886  0.54328  9e-06  4.260335  0.0
C  C52  1  0.59913395  0.34942792  0.60904341  1  0.619543  -5.8e-05  3.934532  0.0  0.204877  0.543356  -9e-06  4.260336  0.0
C  C53  1  0.90085784  0.84943154  0.89094962  1  0.619482  5.8e-05  3.934497  0.0  0.204912  0.543353  9e-06  4.260183  0.0
N  N54  1  0.08018338  0.21436758  0.45495995  1  -0.345222  0.00112  3.265696  0.009  -0.351437  -0.264936  0.00179  3.555568  0.011
N  N55  1  0.41981137  0.71435695  0.04503839  1  -0.345243  -0.001123  3.265571  -0.009  -0.351416  -0.265027  -0.001787  3.555457  -0.011
N  N56  1  0.91981750  0.78563705  0.54504058  1  -0.345276  0.00112  3.265931  0.009  -0.35145  -0.265025  0.00179  3.555822  0.011
N  N57  1  0.58018821  0.28563707  0.95496279  1  -0.345241  -0.001122  3.265581  -0.009  -0.351439  -0.265031  -0.001788  3.555459  -0.011
N  N58  1  0.25574554  0.38819487  0.40002824  1  0.014116  0.000978  3.605984  0.001  -0.134438  0.121757  0.002177  3.801432  0.002
N  N59  1  0.24425105  0.88818923  0.09997466  1  0.014016  -0.000977  3.606209  -0.001  -0.134418  0.12168  -0.002177  3.801625  -0.002
N  N60  1  0.74425663  0.61180740  0.59997165  1  0.014252  0.000977  3.605894  0.001  -0.134433  0.12172  0.002177  3.801551  0.002
N  N61  1  0.75574862  0.11180479  0.90002860  1  0.014104  -0.000977  3.60613  -0.001  -0.134412  0.121735  -0.002177  3.801544  -0.002
N  N62  1  0.08978617  0.43416014  0.36667629  1  -0.243479  -0.002343  2.832086  -0.002  -0.218408  -0.243033  -0.001066  3.096234  -0.001
N  N63  1  0.41020854  0.93415983  0.13332629  1  -0.243424  0.002348  2.832017  0.002  -0.218412  -0.243001  0.001066  3.096156  0.001
N  N64  1  0.91021468  0.56584449  0.63332354  1  -0.243547  -0.002343  2.83219  -0.002  -0.218448  -0.243046  -0.001066  3.096359  -0.001
N  N65  1  0.58979104  0.06583654  0.86667488  1  -0.24345  0.002347  2.83206  0.002  -0.218425  -0.243026  0.001065  3.096194  0.001
N  N66  1  0.45767859  0.42398687  0.28323895  1  0.01399  0.000708  3.564387  0.001  -0.132973  0.101682  -0.001234  3.784386  -0.001
N  N67  1  0.04231187  0.92398387  0.21676128  1  0.01406  -0.000706  3.564397  -0.001  -0.132967  0.101809  0.001235  3.784377  0.001
N  N68  1  0.54231966  0.57601421  0.71676217  1  0.014055  0.000708  3.564079  0.001  -0.132947  0.101793  -0.001234  3.784057  -0.001
N  N69  1  0.95768505  0.07601486  0.78323979  1  0.014175  -0.000706  3.564374  -0.001  -0.132854  0.101893  0.001234  3.784344  0.001
N  N70  1  0.59237859  0.31896355  0.27459607  1  -0.27638  0.002214  2.856413  0.002  -0.222042  -0.262226  0.000575  3.125516  0.001
N  N71  1  0.90760872  0.81895960  0.22540577  1  -0.276499  -0.002213  2.856784  -0.002  -0.222101  -0.262331  -0.000575  3.12588  -0.001
N  N72  1  0.40761302  0.68103047  0.72540480  1  -0.276549  0.002215  2.856251  0.002  -0.222148  -0.262402  0.000575  3.12535  0.001
N  N73  1  0.09238561  0.18104266  0.77459659  1  -0.27657  -0.002213  2.856669  -0.002  -0.222164  -0.262388  -0.000575  3.125749  -0.001
N  N74  1  0.49484692  0.42315752  0.13434766  1  -0.349239  -0.010331  3.256666  -0.007  -0.34982  -0.281775  -0.009773  3.565223  -0.008
N  N75  1  0.00514869  0.92315184  0.36564929  1  -0.349103  0.010331  3.256706  0.007  -0.349724  -0.281497  0.009771  3.565135  0.008
N  N76  1  0.50514997  0.57683767  0.86565271  1  -0.349267  -0.010332  3.256704  -0.007  -0.349805  -0.281793  -0.009773  3.565243  -0.008
N  N77  1  0.99485224  0.07685042  0.63435263  1  -0.349039  0.010334  3.256688  0.007  -0.349662  -0.281385  0.009771  3.565075  0.008
O  O78  1  0.45910845  0.74281411  0.33446539  1  -0.591341  -2.3e-05  1.913302  0.0  -0.326087  -0.543566  5e-06  2.143974  0.0
O  O79  1  0.04092049  0.24281350  0.16554637  1  -0.591378  2.3e-05  1.913415  0.0  -0.326088  -0.543601  -6e-06  2.144107  0.0
O  O80  1  0.54092836  0.25718108  0.66553863  1  -0.591385  -2.3e-05  1.913457  0.0  -0.326091  -0.543608  5e-06  2.144176  0.0
O  O81  1  0.95906833  0.75718877  0.83445091  1  -0.591362  2.3e-05  1.913316  0.0  -0.326081  -0.543616  -6e-06  2.14401  0.0
O  O82  1  0.34011359  0.68033116  0.46910632  1  -0.63295  0.000701  2.057756  0.001  -0.322404  -0.56114  0.00033  2.300172  0.0
O  O83  1  0.15989018  0.18032638  0.03089967  1  -0.632814  -0.0007  2.057722  -0.001  -0.322343  -0.560998  -0.00033  2.300143  0.0
O  O84  1  0.65988986  0.31967111  0.53089222  1  -0.632965  0.000701  2.057751  0.001  -0.322371  -0.56108  0.000331  2.300125  0.0
O  O85  1  0.84012007  0.81967235  0.96910331  1  -0.632758  -0.0007  2.057729  -0.001  -0.32235  -0.560978  -0.00033  2.300152  0.0
O  O86  1  0.26418153  0.94425474  0.53215490  1  -0.765447  -0.002569  1.990478  0.004  -0.542061  -0.682274  -0.012202  2.227993  -0.005
O  O87  1  0.23583869  0.44424295  0.96784297  1  -0.765284  0.00257  1.990385  -0.004  -0.542116  -0.682163  0.012215  2.228004  0.005
O  O88  1  0.73582192  0.05575224  0.46784364  1  -0.765358  -0.002571  1.990601  0.004  -0.542063  -0.682193  -0.012206  2.228149  -0.005
O  O89  1  0.76416337  0.55575342  0.03215413  1  -0.765326  0.00257  1.990371  -0.004  -0.542095  -0.682252  0.012213  2.227937  0.005
