# generated using pymatgen
data_CoH8C11N4O3
_symmetry_space_group_name_H-M   'P 1'
_cell_length_a   7.72697682
_cell_length_b   9.65139655
_cell_length_c   14.86573157
_cell_angle_alpha   90.77506584
_cell_angle_beta   90.00016167
_cell_angle_gamma   90.00040940
_symmetry_Int_Tables_number   1
_chemical_formula_structural   CoH8C11N4O3
_chemical_formula_sum   'Co4 H32 C44 N16 O12'
_cell_volume   1108.52710944
_cell_formula_units_Z   4
loop_
 _symmetry_equiv_pos_site_id
 _symmetry_equiv_pos_as_xyz
  1  'x, y, z'
loop_
 _atom_site_type_symbol
 _atom_site_label
 _atom_site_symmetry_multiplicity
 _atom_site_fract_x
 _atom_site_fract_y
 _atom_site_fract_z
 _atom_site_occupancy
 _atom_site_hle17_ddec_charge
 _atom_site_hle17_ddec_spin_density
 _atom_site_hle17_ddec_sum_bond_order
 _atom_site_hle17_magmom
 _atom_site_hse06_10hf_ddec_charge
 _atom_site_hse06_10hf_ddec_spin_density
 _atom_site_hse06_10hf_ddec_sum_bond_order
 _atom_site_hse06_10hf_magmom
 _atom_site_hse06_ddec_charge
 _atom_site_hse06_ddec_spin_density
 _atom_site_hse06_ddec_sum_bond_order
 _atom_site_hse06_magmom
 _atom_site_pbe_cm5_charge
 _atom_site_pbe_ddec_charge
 _atom_site_pbe_ddec_spin_density
 _atom_site_pbe_ddec_sum_bond_order
 _atom_site_pbe_magmom
Co  Co0  1  0.98171427  0.42993935  0.90591728  1  0.918814  2.923447  2.168711  2.492  0.893767  2.843139  2.597488  2.563  0.984038  2.909967  2.512979  2.661  0.680318  0.823384  2.784353  2.661436  2.466
Co  Co1  1  0.48171517  0.57005425  0.59409077  1  0.918742  -2.923408  2.168527  -2.492  0.893767  -2.843146  2.597237  -2.563  0.984042  -2.909974  2.512741  -2.661  0.680276  0.823364  -2.784376  2.661182  -2.466
Co  Co2  1  0.01827258  0.57006253  0.09408808  1  0.918878  2.923437  2.168576  2.492  0.893809  2.843121  2.597371  2.563  0.984101  2.909948  2.512832  2.661  0.680355  0.823443  2.784346  2.661275  2.466
Co  Co3  1  0.51828721  0.42994142  0.40591317  1  0.918858  -2.923486  2.168546  -2.492  0.893763  -2.843148  2.597317  -2.563  0.984043  -2.909977  2.512822  -2.661  0.680287  0.823377  -2.784364  2.661261  -2.466
H  H4  1  0.80656199  0.71301281  0.53551946  1  0.087279  -0.001382  0.937478  -0.002  0.092654  -0.001061  1.005836  -0.001  0.095375  -0.000766  1.002222  -0.001  0.12029  0.089716  -0.001366  1.009905  -0.002
H  H5  1  0.30655969  0.28698398  0.96448231  1  0.087315  0.001383  0.937456  0.002  0.092677  0.001062  1.00583  0.001  0.095403  0.000766  1.002217  0.001  0.120297  0.089738  0.001367  1.009899  0.002
H  H6  1  0.19344169  0.28697978  0.46448108  1  0.08731  -0.001383  0.937466  -0.002  0.092675  -0.001061  1.005829  -0.001  0.095403  -0.000766  1.002213  -0.001  0.120298  0.089737  -0.001367  1.009899  -0.002
H  H7  1  0.69343493  0.71301478  0.03552436  1  0.087326  0.001382  0.937461  0.002  0.092698  0.001061  1.005811  0.001  0.095419  0.000766  1.0022  0.001  0.120311  0.089762  0.001367  1.009884  0.002
H  H8  1  0.05375532  0.91083322  0.70352212  1  0.108829  -0.000211  0.976515  0.0  0.119779  -2.3e-05  1.038509  0.0  0.12199  -1.4e-05  1.039051  0.0  0.103589  0.117896  -3.1e-05  1.039025  0.0
H  H9  1  0.55375335  0.08916213  0.79647993  1  0.10881  0.000211  0.97653  0.0  0.119749  2.3e-05  1.038533  0.0  0.121973  1.4e-05  1.039034  0.0  0.103586  0.117867  3.1e-05  1.039046  0.0
H  H10  1  0.94625095  0.08916766  0.29647919  1  0.108829  -0.000211  0.976452  0.0  0.119774  -2.3e-05  1.038455  0.0  0.121978  -1.4e-05  1.039017  0.0  0.103599  0.117891  -3.1e-05  1.038969  0.0
H  H11  1  0.44624903  0.91083668  0.20352001  1  0.108842  0.000211  0.976469  0.0  0.119762  2.3e-05  1.038493  0.0  0.121987  1.4e-05  1.038994  0.0  0.103608  0.117881  3.1e-05  1.039008  0.0
H  H12  1  0.14478753  0.16011000  0.70108125  1  0.111198  6.7e-05  0.934494  0.0  0.120388  -0.000132  0.992634  0.0  0.124109  -0.000101  0.990803  0.0  0.105987  0.117169  -0.000166  0.99469  0.0
H  H13  1  0.64478200  0.83988591  0.79891623  1  0.111265  -6.8e-05  0.93448  0.0  0.12037  0.000132  0.992729  0.0  0.124086  0.000101  0.990901  0.0  0.106019  0.117152  0.000167  0.994778  0.0
H  H14  1  0.85522133  0.83988989  0.29891399  1  0.111303  6.8e-05  0.934448  0.0  0.120402  -0.000132  0.992696  0.0  0.124122  -0.000101  0.990866  0.0  0.106029  0.117183  -0.000166  0.994748  0.0
H  H15  1  0.35521262  0.16011499  0.20108306  1  0.111257  -6.7e-05  0.934506  0.0  0.120407  0.000132  0.992695  0.0  0.124126  0.000101  0.990867  0.0  0.106024  0.117189  0.000167  0.994747  0.0
H  H16  1  0.73159236  0.14952999  0.58771691  1  0.098045  -0.000491  0.956858  -0.001  0.106632  -0.000115  1.023171  0.0  0.109501  -7.8e-05  1.020734  0.0  0.105765  0.103727  -8.4e-05  1.026464  0.0
H  H17  1  0.23158582  0.85046641  0.91228004  1  0.098058  0.000492  0.956878  0.001  0.106597  0.000115  1.023226  0.0  0.109465  7.8e-05  1.020791  0.0  0.105776  0.10369  8.4e-05  1.02652  0.0
H  H18  1  0.26842038  0.85046057  0.41227755  1  0.098007  -0.000491  0.956853  -0.001  0.106603  -0.000115  1.023146  0.0  0.10947  -7.8e-05  1.020714  0.0  0.10578  0.103696  -8.4e-05  1.026441  0.0
H  H19  1  0.76841527  0.14953558  0.08771187  1  0.098031  0.000491  0.956874  0.001  0.106613  0.000115  1.023189  0.0  0.109485  7.8e-05  1.020745  0.0  0.105765  0.103706  8.4e-05  1.026483  0.0
H  H20  1  0.42923139  0.22653078  0.64465653  1  0.113228  -0.000204  0.978799  -0.001  0.119362  4.7e-05  1.047809  0.0  0.123302  0.000134  1.045779  0.0  0.103188  0.115479  -7.7e-05  1.050299  0.0
H  H21  1  0.92922815  0.77346676  0.85533938  1  0.113153  0.000205  0.978824  0.001  0.119295  -4.7e-05  1.047829  0.0  0.123232  -0.000134  1.045802  0.0  0.103156  0.115413  7.7e-05  1.050319  0.0
H  H22  1  0.57077617  0.77347016  0.35533604  1  0.113154  -0.000205  0.97871  -0.001  0.119252  4.7e-05  1.047809  0.0  0.12319  0.000134  1.045774  0.0  0.10312  0.11537  -7.7e-05  1.050298  0.0
H  H23  1  0.07077035  0.22653104  0.14465853  1  0.113199  0.000204  0.978812  0.001  0.119336  -4.7e-05  1.047817  0.0  0.123274  -0.000134  1.045789  0.0  0.10317  0.115452  7.7e-05  1.050309  0.0
H  H24  1  0.01761054  0.63433460  0.69460137  1  0.113291  -0.000262  0.917357  0.0  0.122963  -0.000342  0.978206  0.0  0.125407  -0.000263  0.976036  0.0  0.117013  0.120969  -0.000419  0.980634  0.0
H  H25  1  0.51760983  0.36566670  0.80540810  1  0.113367  0.000262  0.917292  0.0  0.123045  0.000342  0.978241  0.0  0.125475  0.000263  0.976058  0.0  0.117019  0.121047  0.000419  0.980666  0.0
H  H26  1  0.98238666  0.36567557  0.30540409  1  0.113384  -0.000262  0.917373  0.0  0.123028  -0.000342  0.978286  0.0  0.12546  -0.000263  0.976106  0.0  0.117016  0.121035  -0.000419  0.980712  0.0
H  H27  1  0.48238738  0.63433007  0.19458778  1  0.11343  0.000262  0.91728  0.0  0.123058  0.000342  0.978267  0.0  0.125486  0.000263  0.976086  0.0  0.117031  0.121064  0.000419  0.980688  0.0
H  H28  1  0.17204788  0.69353018  0.77597569  1  0.093447  -5.1e-05  0.93121  0.0  0.104252  -0.00012  0.997531  0.0  0.105298  -0.000109  0.996743  0.0  0.114554  0.10345  -0.000135  0.998647  0.0
H  H29  1  0.67203067  0.30646373  0.72403123  1  0.093393  5.1e-05  0.93118  0.0  0.104341  0.000121  0.997488  0.0  0.105339  0.000109  0.99673  0.0  0.114637  0.10354  0.000136  0.998598  0.0
H  H30  1  0.82796227  0.30647588  0.22402501  1  0.093476  -5.1e-05  0.931206  0.0  0.104326  -0.00012  0.997526  0.0  0.105356  -0.000109  0.996736  0.0  0.11459  0.103524  -0.000136  0.998642  0.0
H  H31  1  0.32797559  0.69353923  0.27596742  1  0.093398  5.1e-05  0.931126  0.0  0.104329  0.00012  0.997446  0.0  0.105338  0.000109  0.996672  0.0  0.11464  0.103527  0.000136  0.998559  0.0
H  H32  1  0.92232375  0.95306760  0.53924849  1  0.096563  -0.000237  0.977352  0.0  0.108968  -0.000449  1.034024  0.0  0.111787  -0.00031  1.033637  0.0  0.104538  0.107045  -0.000547  1.034247  0.0
H  H33  1  0.42231797  0.04693090  0.96075213  1  0.096582  0.000237  0.977393  0.0  0.108983  0.000449  1.034073  0.0  0.111798  0.00031  1.033689  0.0  0.104551  0.107059  0.000548  1.034297  0.0
H  H34  1  0.07768252  0.04692293  0.46075068  1  0.096573  -0.000237  0.977348  0.0  0.108938  -0.000449  1.034064  0.0  0.111756  -0.00031  1.033674  0.0  0.104555  0.107018  -0.000548  1.034283  0.0
H  H35  1  0.57767664  0.95306794  0.03924445  1  0.096573  0.000237  0.977336  0.0  0.108977  0.000449  1.034019  0.0  0.111794  0.00031  1.033633  0.0  0.104564  0.107054  0.000547  1.034238  0.0
C  C36  1  0.22139082  0.48683141  0.72383802  1  0.675777  0.001565  3.847753  0.003  0.634868  -0.000482  4.151989  0.0  0.672308  -0.000501  4.144811  0.0  0.214076  0.607451  -0.000505  4.155633  0.0
C  C37  1  0.72137575  0.51317633  0.77615904  1  0.675793  -0.001561  3.848396  -0.003  0.635187  0.000486  4.152285  0.0  0.672603  0.000504  4.145092  0.0  0.214274  0.607764  0.00051  4.15593  0.0
C  C38  1  0.77861157  0.51317256  0.27616467  1  0.675725  0.001565  3.847862  0.003  0.634884  -0.000482  4.152033  0.0  0.672302  -0.000501  4.144856  0.0  0.214094  0.607465  -0.000504  4.155683  0.0
C  C39  1  0.27861757  0.48682973  0.22384233  1  0.675937  -0.001562  3.848368  -0.003  0.635203  0.000486  4.152446  0.0  0.672621  0.000504  4.145249  0.0  0.214272  0.607782  0.00051  4.156099  0.0
C  C40  1  0.46009624  0.87294940  0.61447855  1  0.104722  0.005875  3.757133  0.009  0.100371  7.5e-05  3.994362  0.001  0.10458  0.000219  4.017762  0.001  0.105435  0.097388  0.000472  3.979026  0.001
C  C41  1  0.96009120  0.12704830  0.88551942  1  0.105051  -0.005887  3.756802  -0.009  0.100602  -7.7e-05  3.994164  -0.001  0.104817  -0.000221  4.017557  -0.001  0.105458  0.097611  -0.000475  3.978834  -0.001
C  C42  1  0.53990615  0.12704737  0.38551867  1  0.104785  0.005883  3.757191  0.009  0.100504  7.5e-05  3.994375  0.001  0.104717  0.000221  4.017774  0.001  0.105413  0.097516  0.000473  3.97904  0.001
C  C43  1  0.03990859  0.87295261  0.11447718  1  0.104954  -0.005875  3.756776  -0.009  0.100485  -7.6e-05  3.994146  -0.001  0.104696  -0.00022  4.017541  -0.001  0.105487  0.097497  -0.000474  3.978815  -0.001
C  C44  1  0.72579087  0.79890829  0.55887478  1  0.15865  0.017065  3.660594  0.022  0.127953  0.003202  3.920503  0.004  0.142207  0.001825  3.932078  0.002  0.061718  0.116152  0.006322  3.915604  0.008
C  C45  1  0.22578509  0.20108494  0.94112683  1  0.158654  -0.017078  3.660669  -0.022  0.127967  -0.003204  3.920578  -0.004  0.142216  -0.001825  3.93216  -0.002  0.061699  0.116165  -0.006325  3.915683  -0.008
C  C46  1  0.27421281  0.20108327  0.44112507  1  0.158733  0.017077  3.660258  0.022  0.128081  0.003202  3.920165  0.004  0.14233  0.001825  3.931747  0.002  0.061778  0.116279  0.006324  3.915271  0.008
C  C47  1  0.77421211  0.79891386  0.05887513  1  0.158539  -0.017064  3.660543  -0.022  0.127871  -0.003203  3.920463  -0.004  0.142124  -0.001826  3.932046  -0.002  0.061682  0.116062  -0.006323  3.915574  -0.008
C  C48  1  0.51214636  0.01475109  0.61482164  1  0.027322  -0.007799  3.815576  -0.011  0.047488  -0.001952  4.040284  -0.003  0.043935  -0.001531  4.064879  -0.002  -0.004666  0.050467  -0.002463  4.023412  -0.004
C  C49  1  0.01214477  0.98524403  0.88517900  1  0.02722  0.007811  3.815358  0.011  0.047438  0.001954  4.040036  0.003  0.043896  0.001533  4.064594  0.002  -0.0047  0.050422  0.002464  4.023164  0.004
C  C50  1  0.48785732  0.98524775  0.38517561  1  0.027203  -0.007808  3.815517  -0.011  0.047353  -0.001953  4.040224  -0.003  0.043803  -0.001532  4.064808  -0.002  -0.004698  0.050336  -0.002463  4.023352  -0.004
C  C51  1  0.98785502  0.01475583  0.11481960  1  0.027203  0.007796  3.815527  0.011  0.047464  0.001953  4.040151  0.003  0.043923  0.001532  4.064713  0.002  -0.004732  0.050447  0.002464  4.023277  0.004
C  C52  1  0.29297518  0.83783016  0.64700383  1  0.197591  -0.005795  3.776377  -0.007  0.185278  -0.001331  4.03647  -0.002  0.192669  -0.001165  4.054656  -0.002  0.084347  0.178978  -0.001432  4.025186  -0.002
C  C53  1  0.79297158  0.16216655  0.85299792  1  0.197423  0.005807  3.776585  0.007  0.185021  0.001331  4.036783  0.002  0.192406  0.001165  4.054977  0.002  0.084234  0.178723  0.001432  4.025501  0.002
C  C54  1  0.70702721  0.16216762  0.35299610  1  0.197489  -0.005805  3.776508  -0.007  0.185076  -0.001331  4.036625  -0.002  0.192466  -0.001165  4.054817  -0.002  0.084276  0.178779  -0.001433  4.02534  -0.002
C  C55  1  0.20702951  0.83783541  0.14699735  1  0.19755  0.005793  3.776514  0.007  0.185196  0.001331  4.036615  0.002  0.192586  0.001164  4.054808  0.002  0.084307  0.178896  0.001432  4.025334  0.002
C  C56  1  0.18101860  0.93900553  0.67822557  1  -0.185497  0.006244  3.767467  0.008  -0.209953  0.000785  4.023718  0.001  -0.213587  0.000658  4.044572  0.001  -0.104417  -0.208072  0.001386  4.011382  0.002
C  C57  1  0.68101134  0.06098951  0.82177667  1  -0.185402  -0.006261  3.767397  -0.008  -0.209798  -0.000787  4.02363  -0.001  -0.213425  -0.000658  4.044488  -0.001  -0.104379  -0.20792  -0.00139  4.011298  -0.002
C  C58  1  0.81899025  0.06099640  0.32177441  1  -0.185337  0.006256  3.767242  0.008  -0.209762  0.000785  4.023482  0.001  -0.213398  0.000658  4.044333  0.001  -0.104339  -0.207884  0.001388  4.011148  0.002
C  C59  1  0.31898975  0.93901140  0.17822061  1  -0.185479  -0.006245  3.76746  -0.008  -0.209883  -0.000785  4.023709  -0.001  -0.213513  -0.000657  4.044571  -0.001  -0.10444  -0.208005  -0.001388  4.011376  -0.002
C  C60  1  0.23280859  0.07952399  0.67684997  1  -0.03162  -0.00616  3.742427  -0.008  -0.044977  -0.000845  3.998475  -0.001  -0.046565  -0.000853  4.018534  -0.001  -0.083628  -0.044654  -0.000808  3.986411  -0.001
C  C61  1  0.73280391  0.92047032  0.82315032  1  -0.031672  0.006173  3.74264  0.008  -0.044991  0.000846  3.998739  0.001  -0.04658  0.000852  4.018799  0.001  -0.083643  -0.044665  0.000809  3.986674  0.001
C  C62  1  0.76719768  0.92047692  0.32314731  1  -0.031765  -0.006171  3.742427  -0.008  -0.045059  -0.000845  3.998502  -0.001  -0.046648  -0.000853  4.018559  -0.001  -0.083642  -0.044734  -0.000808  3.986438  -0.001
C  C63  1  0.26719459  0.07952744  0.17685163  1  -0.031627  0.006157  3.742699  0.008  -0.044973  0.000845  3.998789  0.001  -0.046563  0.000852  4.01885  0.001  -0.083626  -0.044648  0.000808  3.986723  0.001
C  C64  1  0.68371804  0.04326316  0.58685792  1  -0.045009  0.017586  3.6869  0.021  -0.070626  0.00394  3.937945  0.005  -0.064066  0.002067  3.952182  0.003  -0.067119  -0.077644  0.008282  3.931523  0.01
C  C65  1  0.18370988  0.95673088  0.91314162  1  -0.045029  -0.017613  3.686683  -0.021  -0.070587  -0.003946  3.937702  -0.005  -0.064028  -0.002071  3.951932  -0.003  -0.06709  -0.077608  -0.008292  3.931283  -0.01
C  C66  1  0.31629081  0.95673152  0.41314063  1  -0.044991  0.017601  3.686755  0.021  -0.070604  0.003942  3.937834  0.005  -0.064046  0.002068  3.952067  0.003  -0.067132  -0.077624  0.008285  3.931415  0.01
C  C67  1  0.81628862  0.04327001  0.08685835  1  -0.045017  -0.01759  3.686725  -0.021  -0.070619  -0.003943  3.937717  -0.005  -0.064064  -0.00207  3.95195  -0.003  -0.067111  -0.077638  -0.008287  3.931293  -0.01
C  C68  1  0.39385614  0.11727558  0.64538217  1  -0.132684  0.00691  3.739981  0.009  -0.158483  0.000903  3.995141  0.001  -0.160601  0.000805  4.015009  0.001  -0.097377  -0.156363  0.001497  3.982438  0.002
C  C69  1  0.89384741  0.88271967  0.85461500  1  -0.132679  -0.006926  3.74  -0.009  -0.158462  -0.000905  3.995123  -0.001  -0.160574  -0.000804  4.014978  -0.001  -0.097408  -0.156345  -0.001499  3.982422  -0.002
C  C70  1  0.60615272  0.88272431  0.35461240  1  -0.132571  0.006922  3.739639  0.009  -0.158334  0.000903  3.994796  0.001  -0.160446  0.000804  4.014655  0.001  -0.097353  -0.156217  0.001498  3.982095  0.002
C  C71  1  0.10614980  0.11727812  0.14538291  1  -0.132727  -0.006908  3.740045  -0.009  -0.158531  -0.000904  3.995174  -0.001  -0.160647  -0.000803  4.015034  -0.001  -0.097408  -0.156412  -0.001499  3.982472  -0.002
C  C72  1  0.15541611  0.63509103  0.71263344  1  -0.059109  -0.001499  3.557597  -0.002  -0.117312  -0.001477  3.812452  -0.001  -0.113057  -0.000911  3.812165  -0.001  -0.059538  -0.120934  -0.00217  3.813948  -0.002
C  C73  1  0.65541011  0.36490589  0.78737416  1  -0.059025  0.001497  3.557121  0.002  -0.117708  0.001476  3.812377  0.001  -0.113356  0.00091  3.812022  0.001  -0.059733  -0.121308  0.002168  3.813838  0.002
C  C74  1  0.84458628  0.36490983  0.28736989  1  -0.059246  -0.001499  3.557652  -0.002  -0.117635  -0.001478  3.81264  -0.001  -0.113307  -0.000913  3.812267  -0.001  -0.059656  -0.121255  -0.00217  3.814138  -0.002
C  C75  1  0.34458839  0.63509604  0.21262447  1  -0.059008  0.001496  3.557159  0.002  -0.117616  0.001475  3.812443  0.001  -0.113267  0.000909  3.812076  0.001  -0.059662  -0.121225  0.002168  3.813926  0.002
C  C76  1  0.78931051  0.93552770  0.55981322  1  -0.11995  -0.012482  3.75201  -0.017  -0.132923  -0.002875  4.004151  -0.004  -0.140865  -0.00208  4.022551  -0.003  -0.086357  -0.127632  -0.00372  3.993766  -0.006
C  C77  1  0.28931126  0.06447420  0.94018590  1  -0.120005  0.012499  3.751829  0.017  -0.132991  0.002876  4.003945  0.004  -0.140933  0.002083  4.022349  0.003  -0.086402  -0.127702  0.003721  3.993563  0.006
C  C78  1  0.21069187  0.06446388  0.44018529  1  -0.119994  -0.012493  3.751675  -0.017  -0.132948  -0.002875  4.003836  -0.004  -0.140887  -0.002081  4.022233  -0.003  -0.086397  -0.12766  -0.00372  3.993454  -0.006
C  C79  1  0.71068724  0.93553084  0.05981344  1  -0.119925  0.012483  3.751649  0.017  -0.13293  0.002876  4.003808  0.004  -0.140869  0.002082  4.022208  0.003  -0.086383  -0.127639  0.00372  3.993423  0.006
N  N80  1  0.84720279  0.45275355  0.02780181  1  -0.586855  0.045312  2.965236  0.065  -0.620088  0.033744  3.345488  0.036  -0.66973  0.018111  3.34994  0.013  -0.331971  -0.579452  0.04946  3.340961  0.058
N  N81  1  0.34721454  0.54724087  0.47220183  1  -0.587027  -0.045393  2.964893  -0.065  -0.620286  -0.033787  3.345108  -0.036  -0.66995  -0.018153  3.349578  -0.013  -0.3321  -0.579626  -0.049505  3.340568  -0.058
N  N82  1  0.15277500  0.54724212  0.97220280  1  -0.586881  0.045398  2.964761  0.065  -0.620163  0.03379  3.344959  0.036  -0.669834  0.018153  3.349424  0.013  -0.331994  -0.579504  0.049511  3.340419  0.058
N  N83  1  0.65279043  0.45275068  0.52780004  1  -0.586978  -0.045333  2.965205  -0.065  -0.620262  -0.033756  3.345484  -0.036  -0.6699  -0.018124  3.349929  -0.013  -0.332043  -0.579618  -0.04947  3.340956  -0.058
N  N84  1  0.56644129  0.76798066  0.58575605  1  -0.328108  -0.050108  3.3435  -0.074  -0.283361  -0.031974  3.63067  -0.043  -0.310279  -0.025654  3.645882  -0.033  -0.331692  -0.264834  -0.037644  3.621677  -0.051
N  N85  1  0.06643953  0.23201475  0.91424737  1  -0.328228  0.05011  3.343539  0.074  -0.283428  0.031972  3.630719  0.043  -0.310354  0.02565  3.64594  0.033  -0.331618  -0.264905  0.037641  3.621735  0.051
N  N86  1  0.43356239  0.23201606  0.41424656  1  -0.328156  -0.050112  3.343401  -0.074  -0.283467  -0.031973  3.630613  -0.043  -0.310398  -0.025653  3.645838  -0.033  -0.331664  -0.264942  -0.037643  3.621628  -0.051
N  N87  1  0.93355379  0.76798611  0.08575529  1  -0.32811  0.050098  3.34342  0.074  -0.283364  0.03197  3.630662  0.043  -0.310294  0.025651  3.645885  0.033  -0.331664  -0.264843  0.03764  3.62168  0.051
N  N88  1  0.70625490  0.40818833  0.04819388  1  0.410712  -0.019736  4.155568  -0.04  0.454491  0.001572  4.466783  -0.004  0.474861  -0.003334  4.50152  -0.011  0.098419  0.43898  0.006473  4.440251  0.002
N  N89  1  0.20625788  0.59181259  0.45180290  1  0.410862  0.019706  4.155954  0.04  0.454671  -0.001584  4.467103  0.004  0.475041  0.003322  4.501836  0.011  0.098627  0.439156  -0.006486  4.440577  -0.002
N  N90  1  0.29374231  0.59181359  0.95180677  1  0.410614  -0.019691  4.155795  -0.04  0.454483  0.001592  4.466884  -0.004  0.474855  -0.003313  4.501612  -0.011  0.098458  0.438969  0.006496  4.440358  0.002
N  N91  1  0.79373545  0.40818829  0.54819707  1  0.41112  0.019739  4.155509  0.04  0.454917  -0.001568  4.466668  0.004  0.475287  0.003338  4.501402  0.011  0.098688  0.439405  -0.006468  4.440141  -0.002
N  N92  1  0.57172735  0.36217018  0.06697152  1  -0.327445  0.119539  2.316366  0.171  -0.345578  0.080345  2.535553  0.112  -0.354906  0.071913  2.547515  0.103  -0.161355  -0.334784  0.092768  2.525381  0.126
N  N93  1  0.07175265  0.63782684  0.43302838  1  -0.3273  -0.119456  2.31708  -0.171  -0.345452  -0.080309  2.536246  -0.112  -0.354767  -0.071868  2.548201  -0.103  -0.161323  -0.334674  -0.092733  2.526086  -0.126
N  N94  1  0.42824785  0.63782340  0.93303508  1  -0.327246  0.11944  2.317212  0.171  -0.345421  0.080311  2.536332  0.112  -0.354736  0.071872  2.548284  0.103  -0.16129  -0.334636  0.092736  2.526166  0.126
N  N95  1  0.92826009  0.36217607  0.56697767  1  -0.327687  -0.119538  2.316362  -0.171  -0.345835  -0.08034  2.535542  -0.112  -0.355162  -0.071903  2.547503  -0.103  -0.161502  -0.335051  -0.092762  2.525377  -0.126
O  O96  1  0.15602096  0.41217811  0.78333980  1  -0.611398  0.015607  2.037851  0.028  -0.582444  0.014452  2.297894  0.024  -0.616701  0.012541  2.287875  0.021  -0.307334  -0.554361  0.015826  2.303472  0.026
O  O97  1  0.65603472  0.58781566  0.71667314  1  -0.611454  -0.015602  2.03918  -0.028  -0.582559  -0.014448  2.299074  -0.024  -0.616806  -0.012538  2.289056  -0.021  -0.307396  -0.554486  -0.015823  2.304663  -0.026
O  O98  1  0.84397366  0.58782896  0.21666427  1  -0.611351  0.01561  2.037921  0.028  -0.582396  0.014453  2.297932  0.024  -0.616657  0.012543  2.287924  0.021  -0.307304  -0.554315  0.015827  2.30351  0.026
O  O99  1  0.34396378  0.41219349  0.28333028  1  -0.611521  -0.015598  2.039027  -0.028  -0.582567  -0.014446  2.298971  -0.024  -0.61681  -0.012536  2.288938  -0.021  -0.307412  -0.554494  -0.01582  2.304564  -0.026
O  O100  1  0.34349388  0.44609947  0.67162715  1  -0.605416  -0.047951  2.123707  -0.074  -0.566982  -0.03386  2.398495  -0.05  -0.609716  -0.025372  2.38913  -0.035  -0.310764  -0.531466  -0.043418  2.401793  -0.064
O  O101  1  0.84350793  0.55390059  0.82838077  1  -0.605445  0.04797  2.123332  0.074  -0.567123  0.033873  2.398049  0.05  -0.609865  0.025381  2.388684  0.035  -0.310838  -0.531602  0.043435  2.401348  0.065
O  O102  1  0.65650203  0.55390038  0.32837280  1  -0.605448  -0.04795  2.123824  -0.074  -0.567017  -0.033862  2.398581  -0.05  -0.609762  -0.025373  2.389247  -0.035  -0.310786  -0.531502  -0.04342  2.401879  -0.065
O  O103  1  0.15648540  0.44610544  0.17162329  1  -0.605625  0.047971  2.123391  0.074  -0.567233  0.033872  2.398141  0.05  -0.609977  0.025381  2.388768  0.035  -0.310912  -0.531709  0.043435  2.401435  0.065
O  O104  1  0.25652432  0.69872686  0.64268353  1  -0.282369  -0.01884  2.494614  -0.03  -0.206491  -0.018365  2.733758  -0.029  -0.2313  -0.015371  2.738874  -0.024  -0.173044  -0.188048  -0.021356  2.729907  -0.033
O  O105  1  0.75652200  0.30126859  0.85732152  1  -0.282467  0.018838  2.494513  0.03  -0.20631  0.018364  2.733632  0.029  -0.231137  0.01537  2.738717  0.024  -0.172976  -0.187877  0.021354  2.729775  0.033
O  O106  1  0.74347677  0.30127506  0.35731713  1  -0.282393  -0.01884  2.494632  -0.03  -0.206278  -0.018364  2.733657  -0.029  -0.231104  -0.015369  2.738752  -0.024  -0.172995  -0.187836  -0.021355  2.729806  -0.033
O  O107  1  0.24347391  0.69873436  0.14267915  1  -0.282563  0.018837  2.494614  0.03  -0.206387  0.018363  2.733656  0.029  -0.231218  0.015369  2.73874  0.024  -0.173028  -0.187952  0.021354  2.729805  0.033
