# generated using pymatgen
data_CuHCIN
_symmetry_space_group_name_H-M   'P 1'
_cell_length_a   6.82561115
_cell_length_b   9.80186248
_cell_length_c   15.63757960
_cell_angle_alpha   90.00004146
_cell_angle_beta   90.00133565
_cell_angle_gamma   90.00146290
_symmetry_Int_Tables_number   1
_chemical_formula_structural   CuHCIN
_chemical_formula_sum   'Cu12 H12 C12 I12 N12'
_cell_volume   1046.21196166
_cell_formula_units_Z   12
loop_
 _symmetry_equiv_pos_site_id
 _symmetry_equiv_pos_as_xyz
  1  'x, y, z'
loop_
 _atom_site_type_symbol
 _atom_site_label
 _atom_site_symmetry_multiplicity
 _atom_site_fract_x
 _atom_site_fract_y
 _atom_site_fract_z
 _atom_site_occupancy
 _atom_site_hle17_bader_spin_density
 _atom_site_hle17_ddec_charge
 _atom_site_hle17_ddec_spin_density
 _atom_site_hle17_ddec_sum_bond_order
 _atom_site_hle17_magmom
 _atom_site_hse06_10hf_bader_spin_density
 _atom_site_hse06_10hf_ddec_charge
 _atom_site_hse06_10hf_ddec_spin_density
 _atom_site_hse06_10hf_ddec_sum_bond_order
 _atom_site_hse06_10hf_magmom
 _atom_site_hse06_bader_spin_density
 _atom_site_hse06_ddec_charge
 _atom_site_hse06_ddec_spin_density
 _atom_site_hse06_ddec_sum_bond_order
 _atom_site_hse06_magmom
 _atom_site_pbe_bader_spin_density
 _atom_site_pbe_cm5_charge
 _atom_site_pbe_ddec_charge
 _atom_site_pbe_ddec_spin_density
 _atom_site_pbe_ddec_sum_bond_order
 _atom_site_pbe_magmom
Cu  Cu0  1  0.97036431  0.25001239  0.40673137  1  0  0.317379  0  2.157579  0  0  0.246962  0  2.63848  0  0  0.251062  0  2.593042  0  0  0.255225  0.247211  0  2.666934  0
Cu  Cu1  1  0.47036330  0.25000366  0.09327154  1  0  0.31725  0  2.157526  0  0  0.246878  0  2.638409  0  0  0.250999  0  2.592943  0  0  0.255172  0.247126  0  2.666869  0
Cu  Cu2  1  0.52963842  0.74998524  0.90673353  1  0  0.317393  0  2.157315  0  0  0.247059  0  2.638191  0  0  0.251152  0  2.592759  0  0  0.255253  0.247296  0  2.666653  0
Cu  Cu3  1  0.02962422  0.74999692  0.59326922  1  0  0.317337  0  2.157624  0  0  0.246953  0  2.638517  0  0  0.251042  0  2.593075  0  0  0.255225  0.247183  0  2.666946  0
Cu  Cu4  1  0.47278122  0.04511728  0.32933427  1  0  0.323674  0  2.137533  0  0  0.25148  0  2.621571  0  0  0.256685  0  2.575216  0  0  0.250965  0.251374  0  2.650637  0
Cu  Cu5  1  0.97278384  0.04512466  0.17066924  1  0  0.323618  0  2.13759  0  0  0.251466  0  2.621632  0  0  0.256656  0  2.575285  0  0  0.250983  0.251365  0  2.650691  0
Cu  Cu6  1  0.47279901  0.45488430  0.32932986  1  0  0.323752  0  2.137442  0  0  0.25152  0  2.621506  0  0  0.256732  0  2.575148  0  0  0.250976  0.251412  0  2.650585  0
Cu  Cu7  1  0.02721181  0.54512579  0.82932680  1  0  0.323676  0  2.1375  0  0  0.251509  0  2.621501  0  0  0.256706  0  2.575143  0  0  0.250994  0.251399  0  2.650578  0
Cu  Cu8  1  0.52720438  0.95487469  0.67066632  1  0  0.323754  0  2.137487  0  0  0.251558  0  2.621445  0  0  0.256759  0  2.575095  0  0  0.250977  0.25145  0  2.650518  0
Cu  Cu9  1  0.02723106  0.95488363  0.82932751  1  0  0.323679  0  2.137641  0  0  0.251474  0  2.621702  0  0  0.25667  0  2.575352  0  0  0.250969  0.251367  0  2.650777  0
Cu  Cu10  1  0.52721589  0.54511277  0.67066625  1  0  0.323728  0  2.137456  0  0  0.25153  0  2.621473  0  0  0.25673  0  2.57512  0  0  0.250976  0.251418  0  2.65055  0
Cu  Cu11  1  0.97279577  0.45487944  0.17067315  1  0  0.323709  0  2.137439  0  0  0.251511  0  2.62149  0  0  0.256712  0  2.575133  0  0  0.250983  0.251405  0  2.650562  0
H  H12  1  0.52882498  0.74999297  0.29596381  1  0  0.077968  0  0.912319  0  0  0.081113  0  0.984864  0  0  0.085993  0  0.977136  0  0  0.119574  0.077077  0  0.991051  0
H  H13  1  0.02886163  0.75000480  0.20404722  1  0  0.078234  0  0.912113  0  0  0.081351  0  0.984639  0  0  0.086234  0  0.976909  0  0  0.119714  0.077281  0  0.990903  0
H  H14  1  0.97118697  0.25000655  0.79594698  1  0  0.078248  0  0.912058  0  0  0.081352  0  0.98466  0  0  0.08624  0  0.976914  0  0  0.119733  0.077306  0  0.990874  0
H  H15  1  0.47116355  0.24999083  0.70403359  1  0  0.077973  0  0.912438  0  0  0.081117  0  0.985  0  0  0.085999  0  0.977265  0  0  0.119609  0.077081  0  0.991189  0
H  H16  1  0.19308164  0.96293741  0.47401769  1  0  0.070969  0  0.949598  0  0  0.075399  0  1.022767  0  0  0.079999  0  1.015305  0  0  0.109865  0.071446  0  1.028887  0
H  H17  1  0.69306398  0.96294254  0.02599202  1  0  0.070736  0  0.949576  0  0  0.075191  0  1.022735  0  0  0.079777  0  1.015303  0  0  0.109816  0.071252  0  1.028823  0
H  H18  1  0.19307674  0.53704284  0.47402592  1  0  0.070988  0  0.949346  0  0  0.075369  0  1.022596  0  0  0.079961  0  1.015154  0  0  0.109909  0.07143  0  1.028683  0
H  H19  1  0.30689869  0.46296950  0.97402911  1  0  0.071039  0  0.949412  0  0  0.075491  0  1.022572  0  0  0.080071  0  1.015161  0  0  0.109934  0.071551  0  1.02866  0
H  H20  1  0.80691568  0.03704844  0.52597779  1  0  0.071081  0  0.949481  0  0  0.075503  0  1.022669  0  0  0.080105  0  1.015206  0  0  0.109939  0.071543  0  1.028801  0
H  H21  1  0.30695532  0.03706371  0.97400793  1  0  0.071196  0  0.949534  0  0  0.075461  0  1.022875  0  0  0.080061  0  1.015411  0  0  0.109922  0.071514  0  1.028978  0
H  H22  1  0.80692058  0.46295015  0.52597595  1  0  0.071133  0  0.949495  0  0  0.075528  0  1.022689  0  0  0.08013  0  1.015227  0  0  0.109959  0.071582  0  1.028789  0
H  H23  1  0.69308252  0.53703573  0.02598747  1  0  0.071081  0  0.949346  0  0  0.07546  0  1.022576  0  0  0.080042  0  1.015158  0  0  0.109945  0.071521  0  1.028665  0
C  C24  1  0.42582159  0.74999618  0.34931357  1  0  0.335561  0  3.604344  0  0  0.276465  0  3.871644  0  0  0.301915  0  3.87147  0  0  0.175614  0.258199  0  3.87441  0
C  C25  1  0.92582616  0.75001067  0.15069927  1  0  0.335286  0  3.603938  0  0  0.276373  0  3.871183  0  0  0.30178  0  3.870993  0  0  0.17551  0.258101  0  3.873938  0
C  C26  1  0.07419021  0.25000884  0.84930069  1  0  0.335309  0  3.603946  0  0  0.27627  0  3.871252  0  0  0.301702  0  3.871084  0  0  0.175448  0.258007  0  3.874015  0
C  C27  1  0.57416841  0.24999579  0.65068766  1  0  0.335713  0  3.604179  0  0  0.276598  0  3.871519  0  0  0.302052  0  3.871345  0  0  0.175709  0.258325  0  3.874292  0
C  C28  1  0.24093717  0.86644901  0.44638642  1  0  0.33585  0  3.618648  0  0  0.278696  0  3.882937  0  0  0.303193  0  3.883672  0  0  0.173472  0.26132  0  3.884802  0
C  C29  1  0.74094138  0.86644092  0.05362442  1  0  0.336007  0  3.618981  0  0  0.278931  0  3.88319  0  0  0.303405  0  3.883914  0  0  0.173604  0.261561  0  3.88506  0
C  C30  1  0.24095633  0.63354531  0.44638446  1  0  0.335792  0  3.619137  0  0  0.278664  0  3.883407  0  0  0.303159  0  3.884159  0  0  0.173508  0.261297  0  3.885272  0
C  C31  1  0.25904851  0.36646086  0.94638005  1  0  0.335728  0  3.619239  0  0  0.27859  0  3.883506  0  0  0.303074  0  3.884247  0  0  0.173534  0.261225  0  3.885371  0
C  C32  1  0.75904550  0.13354398  0.55361417  1  0  0.335625  0  3.619115  0  0  0.278483  0  3.883362  0  0  0.302979  0  3.884114  0  0  0.173431  0.261115  0  3.885217  0
C  C33  1  0.25907206  0.13355105  0.94638512  1  0  0.335606  0  3.618566  0  0  0.278598  0  3.882783  0  0  0.303105  0  3.883503  0  0  0.173366  0.261219  0  3.884666  0
C  C34  1  0.75904978  0.36645176  0.55361166  1  0  0.335491  0  3.619276  0  0  0.278385  0  3.883499  0  0  0.302882  0  3.884243  0  0  0.173334  0.261015  0  3.885368  0
C  C35  1  0.74096347  0.63353722  0.05362374  1  0  0.335712  0  3.618705  0  0  0.27865  0  3.882955  0  0  0.303135  0  3.88368  0  0  0.173469  0.261278  0  3.884827  0
I  I36  1  0.85326992  0.02845137  0.32908568  1  0  -0.399042  0  1.933811  0  0  -0.350276  0  2.458759  0  0  -0.368666  0  2.410699  0  0  -0.184197  -0.336793  0  2.489708  0
I  I37  1  0.35327271  0.02843764  0.17091139  1  0  -0.399027  0  1.93374  0  0  -0.350245  0  2.45865  0  0  -0.368637  0  2.41059  0  0  -0.184187  -0.336768  0  2.489602  0
I  I38  1  0.85329125  0.47158348  0.32909088  1  0  -0.399074  0  1.933793  0  0  -0.350286  0  2.458724  0  0  -0.368671  0  2.410653  0  0  -0.184186  -0.336802  0  2.489678  0
I  I39  1  0.64671939  0.52842323  0.82908784  1  0  -0.399032  0  1.933706  0  0  -0.350293  0  2.458667  0  0  -0.368662  0  2.410584  0  0  -0.184179  -0.33681  0  2.489627  0
I  I40  1  0.14671129  0.97157121  0.67090532  1  0  -0.399067  0  1.933771  0  0  -0.350297  0  2.458692  0  0  -0.368679  0  2.410624  0  0  -0.184182  -0.336807  0  2.489637  0
I  I41  1  0.64673486  0.97154718  0.82908409  1  0  -0.39909  0  1.933717  0  0  -0.350322  0  2.458638  0  0  -0.368705  0  2.410572  0  0  -0.184196  -0.33684  0  2.489595  0
I  I42  1  0.14671633  0.52843195  0.67090844  1  0  -0.399106  0  1.933824  0  0  -0.350284  0  2.458651  0  0  -0.368663  0  2.410577  0  0  -0.1842  -0.336801  0  2.489604  0
I  I43  1  0.35329112  0.47157077  0.17090955  1  0  -0.399026  0  1.933783  0  0  -0.35024  0  2.458705  0  0  -0.368619  0  2.410627  0  0  -0.184177  -0.336761  0  2.489664  0
I  I44  1  0.34652885  0.25000381  0.41706777  1  0  -0.37604  0  2.020923  0  0  -0.329093  0  2.567072  0  0  -0.344349  0  2.516529  0  0  -0.182083  -0.317884  0  2.599592  0
I  I45  1  0.84652863  0.25000189  0.08292802  1  0  -0.375989  0  2.020899  0  0  -0.329054  0  2.567045  0  0  -0.344307  0  2.516497  0  0  -0.182074  -0.317856  0  2.599569  0
I  I46  1  0.15347016  0.75000742  0.91707385  1  0  -0.376023  0  2.020823  0  0  -0.329083  0  2.566952  0  0  -0.344331  0  2.516405  0  0  -0.182069  -0.317868  0  2.599471  0
I  I47  1  0.65346408  0.74999734  0.58292514  1  0  -0.375995  0  2.020895  0  0  -0.329052  0  2.567024  0  0  -0.344302  0  2.516469  0  0  -0.182054  -0.317835  0  2.599531  0
N  N48  1  0.36653464  0.87077476  0.38035323  1  0  -0.338621  0  3.321012  0  0  -0.261151  0  3.608458  0  0  -0.278359  0  3.609192  0  0  -0.355119  -0.252148  0  3.61032  0
N  N49  1  0.86652890  0.87078003  0.11965835  1  0  -0.338542  0  3.321177  0  0  -0.261232  0  3.608654  0  0  -0.27838  0  3.609347  0  0  -0.355241  -0.252225  0  3.610516  0
N  N50  1  0.36651848  0.62921455  0.38036278  1  0  -0.338705  0  3.321719  0  0  -0.261188  0  3.609042  0  0  -0.278418  0  3.609807  0  0  -0.355281  -0.252194  0  3.610917  0
N  N51  1  0.13346847  0.37079562  0.88035251  1  0  -0.33868  0  3.321356  0  0  -0.261246  0  3.608801  0  0  -0.278446  0  3.609541  0  0  -0.355345  -0.252246  0  3.610663  0
N  N52  1  0.63345535  0.12920904  0.61963649  1  0  -0.338715  0  3.321368  0  0  -0.261234  0  3.608762  0  0  -0.278465  0  3.609529  0  0  -0.355333  -0.25223  0  3.610623  0
N  N53  1  0.13348161  0.12923234  0.88033648  1  0  -0.338656  0  3.320715  0  0  -0.261188  0  3.608101  0  0  -0.278398  0  3.60884  0  0  -0.355077  -0.252192  0  3.609978  0
N  N54  1  0.63345686  0.37077130  0.61963909  1  0  -0.338626  0  3.321248  0  0  -0.261157  0  3.608663  0  0  -0.278373  0  3.609411  0  0  -0.355226  -0.252157  0  3.610532  0
N  N55  1  0.86653178  0.62922186  0.11965319  1  0  -0.338699  0  3.321325  0  0  -0.261309  0  3.608697  0  0  -0.278492  0  3.609427  0  0  -0.355255  -0.252301  0  3.610559  0
N  N56  1  0.17588825  0.74999610  0.48193566  1  0  -0.34044  0  3.319091  0  0  -0.263714  0  3.608694  0  0  -0.28028  0  3.609096  0  0  -0.35828  -0.254964  0  3.610208  0
N  N57  1  0.67588339  0.74999918  0.01807890  1  0  -0.340406  0  3.318947  0  0  -0.263773  0  3.608589  0  0  -0.280337  0  3.608985  0  0  -0.3583  -0.255032  0  3.610133  0
N  N58  1  0.32409636  0.25001625  0.98192936  1  0  -0.340318  0  3.319515  0  0  -0.263616  0  3.609063  0  0  -0.280186  0  3.609469  0  0  -0.358219  -0.254873  0  3.610601  0
N  N59  1  0.82409149  0.24999995  0.51806174  1  0  -0.340354  0  3.319377  0  0  -0.263607  0  3.608896  0  0  -0.280174  0  3.609303  0  0  -0.358159  -0.254866  0  3.610428  0
