# generated using pymatgen
data_CuH8C12(NO2)2
_symmetry_space_group_name_H-M   'P 1'
_cell_length_a   8.65250255
_cell_length_b   8.65501392
_cell_length_c   17.31600490
_cell_angle_alpha   90.00464092
_cell_angle_beta   89.99990169
_cell_angle_gamma   119.98971213
_symmetry_Int_Tables_number   1
_chemical_formula_structural   CuH8C12(NO2)2
_chemical_formula_sum   'Cu3 H24 C36 N6 O12'
_cell_volume   1123.13729670
_cell_formula_units_Z   3
loop_
 _symmetry_equiv_pos_site_id
 _symmetry_equiv_pos_as_xyz
  1  'x, y, z'
loop_
 _atom_site_type_symbol
 _atom_site_label
 _atom_site_symmetry_multiplicity
 _atom_site_fract_x
 _atom_site_fract_y
 _atom_site_fract_z
 _atom_site_occupancy
 _atom_site_pbe_bader_charge
 _atom_site_pbe_bader_spin_density
 _atom_site_pbe_cm5_charge
 _atom_site_pbe_ddec_charge
 _atom_site_pbe_ddec_spin_density
 _atom_site_pbe_ddec_sum_bond_order
 _atom_site_pbe_magmom
Cu  Cu0  1  0.53798804  0.00000330  0.00000033  1  1.044108  0.548904  0.739559  0.742769  0.713168  2.16688  0.55
Cu  Cu1  1  0.46264079  0.46273623  0.33326904  1  1.041807  0.548646  0.739684  0.743038  0.712522  2.165849  0.55
Cu  Cu2  1  0.99991279  0.53725084  0.66672644  1  1.042454  0.548649  0.739732  0.74315  0.712509  2.16594  0.55
H  H3  1  0.06404042  0.80736762  0.22661633  1  0.166696  0.000191  0.117886  0.129198  6.2e-05  1.000214  0.0
H  H4  1  0.96796626  0.61771606  0.34525604  1  0.10997  0.001252  0.113467  0.125618  0.000653  1.000437  0.001
H  H5  1  0.14346060  0.47167255  0.38732520  1  0.11978  0.001737  0.120195  0.096225  0.000685  1.010378  0.002
H  H6  1  0.50265234  0.70606392  0.20741733  1  0.163253  0.002403  0.120155  0.09985  0.001366  1.04298  0.001
H  H7  1  0.74293063  0.93632625  0.55998501  1  0.163301  0.000193  0.117831  0.12914  6.2e-05  1.000677  0.0
H  H8  1  0.64901039  0.03275240  0.67841687  1  0.092027  0.00128  0.113365  0.126238  0.000654  1.000902  0.001
H  H9  1  0.32747255  0.85721451  0.72048145  1  0.150205  0.001716  0.120091  0.0959  0.000692  1.011004  0.002
H  H10  1  0.20320698  0.49768014  0.54077407  1  0.174926  0.002395  0.120316  0.100244  0.001368  1.043021  0.001
H  H11  1  0.19280164  0.25646895  0.89372959  1  0.119248  0.000188  0.117917  0.1296  6.2e-05  1.000225  0.0
H  H12  1  0.38183008  0.34994760  0.01254489  1  0.120789  0.001248  0.113605  0.126157  0.000657  0.999918  0.001
H  H13  1  0.52830751  0.67156850  0.05445849  1  0.135972  0.00172  0.120126  0.096088  0.000687  1.01062  0.002
H  H14  1  0.29530060  0.79652524  0.87402798  1  0.149328  0.002412  0.120148  0.099643  0.001362  1.043191  0.001
H  H15  1  0.25669690  0.19264383  0.77338429  1  0.153648  0.000192  0.117882  0.129243  6.2e-05  1.000311  0.0
H  H16  1  0.35027696  0.38229165  0.65474239  1  0.108426  0.001253  0.113478  0.125707  0.000653  1.000444  0.001
H  H17  1  0.67180908  0.52832423  0.61267462  1  0.095771  0.001763  0.120227  0.096206  0.000685  1.010518  0.002
H  H18  1  0.79660015  0.29390210  0.79257591  1  0.157589  0.002404  0.120179  0.100042  0.001366  1.042776  0.001
H  H19  1  0.80659770  0.06366809  0.44001274  1  0.148942  0.000189  0.117831  0.129089  6.1e-05  1.000806  0.0
H  H20  1  0.61624551  0.96723426  0.32158505  1  0.097726  0.001264  0.113355  0.126201  0.000654  1.000909  0.001
H  H21  1  0.47024687  0.14277710  0.27951954  1  0.138193  0.001727  0.120088  0.095886  0.000691  1.011049  0.002
H  H22  1  0.70551554  0.50232017  0.45922397  1  0.171113  0.002397  0.120308  0.100214  0.001368  1.043018  0.001
H  H23  1  0.93634208  0.74354119  0.10627470  1  0.171628  0.000192  0.117915  0.129554  6.2e-05  1.000204  0.0
H  H24  1  0.03189824  0.65006464  0.98746089  1  0.089123  0.001284  0.113587  0.12618  0.000657  0.999858  0.001
H  H25  1  0.85677324  0.32844870  0.94554568  1  0.127372  0.001726  0.120116  0.096084  0.000687  1.010716  0.002
H  H26  1  0.49880492  0.20347440  0.12597416  1  0.137792  0.002426  0.120141  0.099559  0.001362  1.043301  0.001
C  C27  1  0.35087099  0.87767850  0.13410654  1  1.575203  6.2e-05  0.192744  0.543518  -0.000151  4.256517  -0.002
C  C28  1  0.29013926  0.76915161  0.20718348  1  -0.019561  0.013361  -0.011162  -0.070233  0.00941  3.95159  0.011
C  C29  1  0.13913261  0.74520929  0.24704604  1  -0.069968  -0.002469  -0.051546  -0.032468  -0.003131  3.897264  -0.001
C  C30  1  0.08439766  0.63799978  0.31280031  1  0.050598  0.006297  -0.07714  -0.113263  0.004396  3.94428  0.005
C  C31  1  0.18018642  0.55657796  0.33640806  1  0.41286  -0.000293  0.049067  0.089352  -0.000828  3.921703  0.0
C  C32  1  0.38109612  0.68557822  0.23516401  1  0.46293  -0.001114  0.053468  0.076479  -0.001581  3.894331  -0.001
C  C33  1  0.52670454  0.64959935  0.46744867  1  1.576576  4.9e-05  0.193444  0.54354  -0.000164  4.256139  -0.002
C  C34  1  0.47871537  0.71030426  0.54050815  1  0.014271  0.013375  -0.011407  -0.069822  0.009456  3.952087  0.011
C  C35  1  0.60561976  0.86136267  0.58035904  1  -0.056226  -0.00249  -0.051269  -0.031874  -0.003154  3.898869  -0.001
C  C36  1  0.55300289  0.91623163  0.64601827  1  0.036953  0.006287  -0.077663  -0.115199  0.004407  3.94705  0.005
C  C37  1  0.37578904  0.82040635  0.66962403  1  0.395027  -0.000282  0.050018  0.090744  -0.000859  3.923062  0.0
C  C38  1  0.30418432  0.61931760  0.56849149  1  0.424695  -0.00103  0.052919  0.074971  -0.001581  3.89587  -0.001
C  C39  1  0.12303171  0.47283606  0.80090332  1  1.572559  0.000141  0.193807  0.544734  -0.000155  4.256133  -0.002
C  C40  1  0.23162153  0.52081295  0.87401609  1  -0.021461  0.013377  -0.011563  -0.071113  0.009445  3.951362  0.011
C  C41  1  0.25512711  0.39373334  0.91407623  1  0.046058  -0.002482  -0.051444  -0.032225  -0.003131  3.898807  -0.001
C  C42  1  0.36199850  0.44614818  0.97992127  1  -0.054772  0.006397  -0.077618  -0.114499  0.004409  3.946423  0.005
C  C43  1  0.44363380  0.62340962  0.00346397  1  0.431977  -0.000357  0.049644  0.090185  -0.000826  3.921824  0.0
C  C44  1  0.31542284  0.69538848  0.90192607  1  0.477401  -0.001107  0.05315  0.076118  -0.001582  3.892842  -0.001
C  C45  1  0.47321617  0.12233051  0.86589155  1  1.570973  0.000143  0.192782  0.543673  -0.000152  4.255942  -0.002
C  C46  1  0.52100116  0.23083694  0.79281172  1  -0.011954  0.013311  -0.01107  -0.070071  0.009407  3.951595  0.011
C  C47  1  0.39394829  0.25479494  0.75295160  1  -0.020441  -0.002476  -0.051585  -0.032546  -0.003133  3.897403  -0.001
C  C48  1  0.44641317  0.36199775  0.68719502  1  0.011453  0.006301  -0.077156  -0.113446  0.004397  3.944348  0.005
C  C49  1  0.62362555  0.44341407  0.66358830  1  0.437157  -0.000335  0.049129  0.089568  -0.00083  3.922072  0.0
C  C50  1  0.69552368  0.31440051  0.76483107  1  0.477197  -0.001113  0.053299  0.07605  -0.00158  3.894391  -0.001
C  C51  1  0.87710518  0.35040465  0.53254452  1  1.576466  6.1e-05  0.19343  0.543554  -0.000165  4.256286  -0.002
C  C52  1  0.76840417  0.28969702  0.45949090  1  0.015342  0.013375  -0.011437  -0.069999  0.009453  3.952391  0.011
C  C53  1  0.74424983  0.13863232  0.41964169  1  -0.052998  -0.002477  -0.051325  -0.031894  -0.003155  3.899054  -0.001
C  C54  1  0.63676381  0.08376166  0.35398369  1  0.006091  0.006361  -0.077575  -0.115005  0.004407  3.946839  0.005
C  C55  1  0.55536821  0.17958720  0.33037574  1  0.429529  -0.000356  0.04991  0.090607  -0.000859  3.922921  0.0
C  C56  1  0.68486001  0.38067902  0.43150941  1  0.426146  -0.001029  0.05296  0.07512  -0.00158  3.89572  -0.001
C  C57  1  0.65020573  0.52716625  0.19909710  1  1.583816  0.000104  0.193711  0.54472  -0.000155  4.256115  -0.002
C  C58  1  0.71082675  0.47919483  0.12598772  1  -0.010639  0.013346  -0.0115  -0.070961  0.009441  3.951531  0.011
C  C59  1  0.86140817  0.60627169  0.08592634  1  -0.023105  -0.002484  -0.051452  -0.032151  -0.00313  3.898924  -0.001
C  C60  1  0.91587152  0.55386795  0.02008411  1  0.01435  0.00632  -0.077636  -0.11462  0.004409  3.946493  0.005
C  C61  1  0.82025101  0.37660054  0.99653795  1  0.415192  -0.000298  0.049644  0.09021  -0.000826  3.921708  0.0
C  C62  1  0.62006292  0.30462437  0.09807716  1  0.481557  -0.001091  0.053251  0.076236  -0.001581  3.892975  -0.001
N  N63  1  0.32645486  0.58047167  0.29806202  1  -1.231746  0.083922  -0.347726  -0.227984  0.056347  3.625918  0.073
N  N64  1  0.25361330  0.67395964  0.63138564  1  -1.230164  0.084081  -0.347884  -0.227103  0.05649  3.628211  0.073
N  N65  1  0.42027946  0.74587558  0.96494478  1  -1.230086  0.084115  -0.347327  -0.227463  0.056476  3.624337  0.073
N  N66  1  0.74599531  0.41950916  0.70192959  1  -1.234229  0.083916  -0.347728  -0.228084  0.056343  3.62631  0.073
N  N67  1  0.57964162  0.32603955  0.36861302  1  -1.216536  0.084091  -0.347801  -0.227023  0.056493  3.627893  0.073
N  N68  1  0.67443764  0.25413220  0.03505838  1  -1.233564  0.084082  -0.34737  -0.227532  0.056472  3.624154  0.073
O  O69  1  0.25396038  0.92819338  0.10265263  1  -1.153993  0.002719  -0.315243  -0.536656  0.000929  2.113566  0.002
O  O70  1  0.50552978  0.91048846  0.10820933  1  -1.106704  0.11724  -0.334127  -0.551043  0.075282  2.311442  0.105
O  O71  1  0.67431680  0.74644608  0.43614025  1  -1.153489  0.002705  -0.315732  -0.537093  0.00092  2.113082  0.002
O  O72  1  0.40487706  0.49513407  0.44144095  1  -1.108698  0.117614  -0.33395  -0.550986  0.075523  2.310597  0.106
O  O73  1  0.07228131  0.32521262  0.76963529  1  -1.160182  0.002707  -0.315892  -0.53728  0.000923  2.114075  0.002
O  O74  1  0.09030874  0.59462871  0.77485898  1  -1.109057  0.117331  -0.334176  -0.551675  0.075316  2.310493  0.106
O  O75  1  0.32578723  0.07180762  0.89734846  1  -1.157338  0.002712  -0.315191  -0.536701  0.000927  2.113161  0.002
O  O76  1  0.59506563  0.08951901  0.89179383  1  -1.109602  0.117239  -0.334199  -0.55111  0.07529  2.311375  0.105
O  O77  1  0.92785672  0.25355549  0.56386209  1  -1.154637  0.002711  -0.315667  -0.53704  0.000918  2.113312  0.002
O  O78  1  0.90975658  0.50488198  0.55855344  1  -1.104861  0.117605  -0.333988  -0.551021  0.075539  2.310439  0.106
O  O79  1  0.74705756  0.67479236  0.23036799  1  -1.166529  0.002701  -0.315813  -0.537292  0.000922  2.11406  0.002
O  O80  1  0.49568333  0.40536180  0.22514153  1  -1.111025  0.11737  -0.334198  -0.551721  0.075326  2.310398  0.106
