# generated using pymatgen
data_AgPH2(CN)2
_symmetry_space_group_name_H-M   'P 1'
_cell_length_a   7.48485969
_cell_length_b   10.58926016
_cell_length_c   11.14992304
_cell_angle_alpha   90.00063693
_cell_angle_beta   89.99990467
_cell_angle_gamma   90.00011746
_symmetry_Int_Tables_number   1
_chemical_formula_structural   AgPH2(CN)2
_chemical_formula_sum   'Ag8 P8 H16 C16 N16'
_cell_volume   883.73316183
_cell_formula_units_Z   8
loop_
 _symmetry_equiv_pos_site_id
 _symmetry_equiv_pos_as_xyz
  1  'x, y, z'
loop_
 _atom_site_type_symbol
 _atom_site_label
 _atom_site_symmetry_multiplicity
 _atom_site_fract_x
 _atom_site_fract_y
 _atom_site_fract_z
 _atom_site_occupancy
 _atom_site_pbe_bader_spin_density
 _atom_site_pbe_cm5_charge
 _atom_site_pbe_ddec_charge
 _atom_site_pbe_ddec_spin_density
 _atom_site_pbe_ddec_sum_bond_order
 _atom_site_pbe_magmom
Ag  Ag0  1  0.59877092  0.63521616  0.07587529  1  0  0.475606  0.17915  0  2.612012  0
Ag  Ag1  1  0.90123175  0.13521473  0.92412586  1  0  0.475603  0.179157  0  2.612018  0
Ag  Ag2  1  0.09876875  0.36478441  0.42412229  1  0  0.475616  0.179159  0  2.612061  0
Ag  Ag3  1  0.40123189  0.86478550  0.57587468  1  0  0.475616  0.17914  0  2.612085  0
Ag  Ag4  1  0.40123073  0.36478660  0.92412467  1  0  0.475617  0.179131  0  2.612032  0
Ag  Ag5  1  0.09876990  0.86478331  0.07587320  1  0  0.475608  0.179169  0  2.612036  0
Ag  Ag6  1  0.90123290  0.63521269  0.57587587  1  0  0.475619  0.179147  0  2.612022  0
Ag  Ag7  1  0.59876843  0.13521537  0.42412796  1  0  0.47559  0.179089  0  2.61208  0
P  P8  1  0.59462996  0.68891353  0.64744723  1  0  -0.18863  0.003973  0  4.101133  0
P  P9  1  0.90537154  0.18890731  0.35255358  1  0  -0.18863  0.003934  0  4.101167  0
P  P10  1  0.09463181  0.31108438  0.85255097  1  0  -0.188641  0.003996  0  4.101171  0
P  P11  1  0.40536867  0.81108898  0.14744453  1  0  -0.188601  0.003964  0  4.101084  0
P  P12  1  0.40537303  0.31108924  0.35255452  1  0  -0.188579  0.004027  0  4.101132  0
P  P13  1  0.09463012  0.81109073  0.64744458  1  0  -0.188612  0.003926  0  4.101127  0
P  P14  1  0.90536985  0.68891271  0.14744629  1  0  -0.188629  0.004005  0  4.101265  0
P  P15  1  0.59462897  0.18891190  0.85255721  1  0  -0.18862  0.003981  0  4.101219  0
H  H16  1  0.41537045  0.48148246  0.64412514  1  0  0.112571  0.122992  0  1.019054  0
H  H17  1  0.08463053  0.98147864  0.35587217  1  0  0.112563  0.122887  0  1.019108  0
H  H18  1  0.91537294  0.51851213  0.85587449  1  0  0.112599  0.12302  0  1.019078  0
H  H19  1  0.58462805  0.01852097  0.14412721  1  0  0.112577  0.122952  0  1.019072  0
H  H20  1  0.58463388  0.51851936  0.35587392  1  0  0.112592  0.12297  0  1.019062  0
H  H21  1  0.91537112  0.01852035  0.64412688  1  0  0.112577  0.12292  0  1.01908  0
H  H22  1  0.08462871  0.48148496  0.14412457  1  0  0.112564  0.123007  0  1.019107  0
H  H23  1  0.41536559  0.98148369  0.85587453  1  0  0.112596  0.123046  0  1.019059  0
H  H24  1  0.72111055  0.79620739  0.83590822  1  0  0.114404  0.127496  0  1.01625  0
H  H25  1  0.77888859  0.29620257  0.16409552  1  0  0.114407  0.127512  0  1.016254  0
H  H26  1  0.22110986  0.20379259  0.66408715  1  0  0.114403  0.127485  0  1.01622  0
H  H27  1  0.27889030  0.70379165  0.33590633  1  0  0.114415  0.127507  0  1.016204  0
H  H28  1  0.27888843  0.20379254  0.16409174  1  0  0.114407  0.12749  0  1.016206  0
H  H29  1  0.22110906  0.70379453  0.83590443  1  0  0.114404  0.127494  0  1.016249  0
H  H30  1  0.77889179  0.79620640  0.33591101  1  0  0.114368  0.127426  0  1.016296  0
H  H31  1  0.72111403  0.29620828  0.66409542  1  0  0.114413  0.127524  0  1.016159  0
C  C32  1  0.48593026  0.55123557  0.69808548  1  0  0.007189  -0.110979  0  3.913285  0
C  C33  1  0.01406945  0.05123009  0.30191087  1  0  0.00728  -0.11067  0  3.91346  0
C  C34  1  0.98593134  0.44876290  0.80191496  1  0  0.007148  -0.111022  0  3.913228  0
C  C35  1  0.51406691  0.94876752  0.19808950  1  0  0.007166  -0.110911  0  3.913532  0
C  C36  1  0.51407006  0.44876530  0.30191268  1  0  0.007195  -0.110938  0  3.913464  0
C  C37  1  0.98592953  0.94876795  0.69808819  1  0  0.007207  -0.110791  0  3.91337  0
C  C38  1  0.01406897  0.55123515  0.19808140  1  0  0.007182  -0.110991  0  3.913275  0
C  C39  1  0.48592806  0.05123524  0.80191674  1  0  0.007144  -0.111097  0  3.913336  0
C  C40  1  0.64670828  0.71672092  0.79927620  1  0  0.006933  -0.117092  0  3.934325  0
C  C41  1  0.85329463  0.21671664  0.20072670  1  0  0.006933  -0.117153  0  3.934462  0
C  C42  1  0.14670373  0.28327989  0.70072194  1  0  0.006961  -0.117094  0  3.934369  0
C  C43  1  0.35328865  0.78328146  0.29927416  1  0  0.006913  -0.117081  0  3.9343  0
C  C44  1  0.35329337  0.28328278  0.20072465  1  0  0.006924  -0.117085  0  3.934351  0
C  C45  1  0.14670569  0.78328140  0.79927325  1  0  0.006939  -0.117099  0  3.934352  0
C  C46  1  0.85329659  0.71672004  0.29927352  1  0  0.006978  -0.117014  0  3.934402  0
C  C47  1  0.64671033  0.21671941  0.70072758  1  0  0.006909  -0.117142  0  3.934428  0
N  N48  1  0.58608835  0.62872367  0.87376955  1  0  -0.266443  -0.107861  0  3.57727  0
N  N49  1  0.91391430  0.12872049  0.12623241  1  0  -0.26651  -0.107853  0  3.57743  0
N  N50  1  0.08608291  0.37127706  0.62622686  1  0  -0.266501  -0.107926  0  3.577379  0
N  N51  1  0.41391507  0.87127676  0.37377107  1  0  -0.266498  -0.107932  0  3.577407  0
N  N52  1  0.41391063  0.37127721  0.12623129  1  0  -0.266416  -0.107849  0  3.577324  0
N  N53  1  0.08608335  0.87127756  0.87376754  1  0  -0.266481  -0.107861  0  3.577372  0
N  N54  1  0.91391741  0.62872192  0.37377130  1  0  -0.266512  -0.10794  0  3.577455  0
N  N55  1  0.58608658  0.12872506  0.62623247  1  0  -0.266448  -0.107848  0  3.577452  0
N  N56  1  0.49465704  0.53428135  0.81617499  1  0  -0.261636  -0.097653  0  3.539464  0
N  N57  1  0.00534395  0.03427732  0.18382566  1  0  -0.261634  -0.097809  0  3.539928  0
N  N58  1  0.99465445  0.46571902  0.68382185  1  0  -0.2616  -0.097612  0  3.539406  0
N  N59  1  0.50534118  0.96572123  0.31617561  1  0  -0.261563  -0.097624  0  3.539716  0
N  N60  1  0.50534327  0.46572047  0.18382586  1  0  -0.261704  -0.097749  0  3.539604  0
N  N61  1  0.99465369  0.96572073  0.81617429  1  0  -0.261633  -0.097735  0  3.539791  0
N  N62  1  0.00534587  0.53427808  0.31617810  1  0  -0.26161  -0.097676  0  3.539517  0
N  N63  1  0.49465379  0.03428153  0.68382435  1  0  -0.261605  -0.097588  0  3.539365  0
