# generated using pymatgen
data_AgH12C20(NO)3
_symmetry_space_group_name_H-M   'P 1'
_cell_length_a   5.28373684
_cell_length_b   9.55259057
_cell_length_c   17.43418641
_cell_angle_alpha   88.64590583
_cell_angle_beta   84.44164875
_cell_angle_gamma   73.85931754
_symmetry_Int_Tables_number   1
_chemical_formula_structural   AgH12C20(NO)3
_chemical_formula_sum   'Ag2 H24 C40 N6 O6'
_cell_volume   841.29645427
_cell_formula_units_Z   2
loop_
 _symmetry_equiv_pos_site_id
 _symmetry_equiv_pos_as_xyz
  1  'x, y, z'
loop_
 _atom_site_type_symbol
 _atom_site_label
 _atom_site_symmetry_multiplicity
 _atom_site_fract_x
 _atom_site_fract_y
 _atom_site_fract_z
 _atom_site_occupancy
 _atom_site_pbe_bader_spin_density
 _atom_site_pbe_cm5_charge
 _atom_site_pbe_ddec_charge
 _atom_site_pbe_ddec_spin_density
 _atom_site_pbe_ddec_sum_bond_order
 _atom_site_pbe_magmom
Ag  Ag0  1  0.46268135  0.07554829  0.74985312  1  0  0.465743  0.323362  0  1.87131  0
Ag  Ag1  1  0.53732073  0.92445315  0.25014740  1  0  0.46574  0.323378  0  1.871354  0
H  H2  1  0.80898392  0.22067219  0.83376530  1  0  0.120941  0.109919  0  1.037937  0
H  H3  1  0.97304004  0.22109225  0.66571488  1  0  0.120762  0.109881  0  1.03932  0
H  H4  1  0.19102088  0.77932381  0.16623578  1  0  0.120913  0.109915  0  1.037915  0
H  H5  1  0.02696969  0.77890485  0.33429180  1  0  0.120686  0.109786  0  1.039397  0
H  H6  1  0.21760978  0.39116926  0.09133669  1  0  0.106769  0.112367  0  1.008021  0
H  H7  1  0.39498386  0.39205532  0.40915116  1  0  0.106677  0.111849  0  1.010077  0
H  H8  1  0.78237442  0.60883001  0.90866317  1  0  0.10676  0.112336  0  1.008066  0
H  H9  1  0.60500886  0.60794178  0.59085310  1  0  0.106678  0.111892  0  1.010047  0
H  H10  1  0.81902158  0.78730743  0.81486639  1  0  0.118384  0.090756  0  0.99469  0
H  H11  1  0.39215308  0.78696005  0.68516790  1  0  0.118486  0.091122  0  0.994686  0
H  H12  1  0.18098742  0.21269182  0.18513111  1  0  0.118364  0.090759  0  0.994631  0
H  H13  1  0.60785383  0.21303593  0.31482796  1  0  0.118476  0.09105  0  0.99472  0
H  H14  1  0.36732291  0.89470128  0.95568787  1  0  0.10657  0.111024  0  1.008176  0
H  H15  1  0.73588204  0.89527580  0.54468381  1  0  0.106797  0.111764  0  1.007795  0
H  H16  1  0.63267948  0.10529580  0.04431212  1  0  0.106586  0.111084  0  1.008155  0
H  H17  1  0.26411781  0.10473001  0.45531786  1  0  0.106777  0.111714  0  1.007765  0
H  H18  1  0.58562352  0.42712079  0.86148762  1  0  0.108243  0.120914  0  1.041604  0
H  H19  1  0.98428326  0.42689867  0.63818391  1  0  0.108378  0.121594  0  1.040401  0
H  H20  1  0.41436773  0.57287957  0.13851262  1  0  0.108172  0.120754  0  1.041658  0
H  H21  1  0.01571785  0.57310061  0.36182068  1  0  0.108414  0.121595  0  1.040466  0
H  H22  1  0.18659361  0.70677699  0.89934024  1  0  0.107215  0.114415  0  1.029834  0
H  H23  1  0.10291103  0.70680405  0.60108087  1  0  0.106785  0.113848  0  1.030765  0
H  H24  1  0.81340966  0.29322227  0.10065797  1  0  0.107231  0.114377  0  1.029887  0
H  H25  1  0.89708882  0.29319847  0.39891453  1  0  0.106846  0.113926  0  1.030877  0
C  C26  1  0.89245393  0.10894531  0.85165788  1  0  0.050098  0.039367  0  3.863107  0
C  C27  1  0.00003463  0.10919086  0.64806141  1  0  0.050026  0.038479  0  3.861345  0
C  C28  1  0.10754794  0.89105286  0.14834153  1  0  0.050162  0.039408  0  3.862966  0
C  C29  1  0.99996056  0.89081278  0.35194155  1  0  0.050139  0.038656  0  3.861357  0
C  C30  1  0.10097834  0.07388508  0.89969248  1  0  -0.003357  0.082902  0  4.12159  0
C  C31  1  0.82544819  0.07437909  0.60030432  1  0  -0.003752  0.082987  0  4.121206  0
C  C32  1  0.89901811  0.92610874  0.10030712  1  0  -0.003322  0.08296  0  4.121525  0
C  C33  1  0.17455711  0.92562344  0.39969725  1  0  -0.003779  0.082752  0  4.121194  0
C  C34  1  0.20661874  0.92605217  0.91842676  1  0  -0.063161  -0.080184  0  3.902111  0
C  C35  1  0.86604883  0.92644886  0.58177013  1  0  -0.063114  -0.08134  0  3.905035  0
C  C36  1  0.79338187  0.07394491  0.08157041  1  0  -0.063129  -0.080218  0  3.901918  0
C  C37  1  0.13395837  0.07355368  0.41823139  1  0  -0.06315  -0.081214  0  3.904873  0
C  C38  1  0.10538845  0.82218100  0.88771605  1  0  -0.082515  -0.114655  0  3.98381  0
C  C39  1  0.07040786  0.82223899  0.61250204  1  0  -0.081708  -0.112558  0  3.983038  0
C  C40  1  0.89461347  0.17781716  0.11228221  1  0  -0.082588  -0.11467  0  3.983893  0
C  C41  1  0.92960431  0.17776898  0.38749699  1  0  -0.081784  -0.112736  0  3.983033  0
C  C42  1  0.89917600  0.86663540  0.84068498  1  0  0.043595  0.074508  0  3.938665  0
C  C43  1  0.23320052  0.86643337  0.65932666  1  0  0.043201  0.073785  0  3.938399  0
C  C44  1  0.10082156  0.13336386  0.15931338  1  0  0.043638  0.074547  0  3.938648  0
C  C45  1  0.76681222  0.13356589  0.34067246  1  0  0.043347  0.074017  0  3.938509  0
C  C46  1  0.19979329  0.18544906  0.92670290  1  0  -0.041604  -0.097696  0  4.09564  0
C  C47  1  0.61542994  0.18619670  0.57330869  1  0  -0.042339  -0.098168  0  4.092915  0
C  C48  1  0.80020354  0.81454801  0.07329379  1  0  -0.041628  -0.097674  0  4.095589  0
C  C49  1  0.38458480  0.81380584  0.42669435  1  0  -0.042241  -0.097902  0  4.093005  0
C  C50  1  0.28467964  0.28297323  0.94802283  1  0  -0.030411  -0.07645  0  4.065557  0
C  C51  1  0.43273148  0.28368736  0.55208626  1  0  -0.029312  -0.074967  0  4.064576  0
C  C52  1  0.71531281  0.71702494  0.05197453  1  0  -0.030451  -0.076601  0  4.065696  0
C  C53  1  0.56726262  0.71631845  0.44791671  1  0  -0.029344  -0.075065  0  4.064743  0
C  C54  1  0.38971382  0.39340077  0.97340044  1  0  -0.001464  0.122103  0  4.102543  0
C  C55  1  0.21718995  0.39392903  0.52666642  1  0  -0.001582  0.120844  0  4.105293  0
C  C56  1  0.61027835  0.60660176  0.02659688  1  0  -0.001429  0.122208  0  4.102759  0
C  C57  1  0.78280649  0.60606808  0.47334003  1  0  -0.001573  0.12091  0  4.105063  0
C  C58  1  0.54870641  0.45771718  0.92222733  1  0  -0.078629  -0.117492  0  3.92357  0
C  C59  1  0.99180450  0.45760307  0.57756782  1  0  -0.07969  -0.119836  0  3.927076  0
C  C60  1  0.45128279  0.54228752  0.07776946  1  0  -0.078545  -0.117311  0  3.923516  0
C  C61  1  0.00818493  0.54240057  0.42243702  1  0  -0.079726  -0.119942  0  3.927109  0
C  C62  1  0.34208356  0.43839666  0.05123569  1  0  -0.079383  -0.116723  0  3.944185  0
C  C63  1  0.22168099  0.43897523  0.44899150  1  0  -0.078996  -0.114444  0  3.943512  0
C  C64  1  0.65790973  0.56160369  0.94876105  1  0  -0.079346  -0.116649  0  3.944225  0
C  C65  1  0.77831768  0.56102514  0.55101313  1  0  -0.07909  -0.114709  0  3.943813  0
N  N66  1  0.79218156  0.00809404  0.82378110  1  0  -0.341951  -0.195476  0  3.626008  0
N  N67  1  0.20047174  0.00801317  0.67596877  1  0  -0.341834  -0.194654  0  3.623651  0
N  N68  1  0.20781913  0.99190632  0.17622061  1  0  -0.341982  -0.195557  0  3.625924  0
N  N69  1  0.79952581  0.99199372  0.32402950  1  0  -0.341957  -0.194781  0  3.623888  0
N  N70  1  0.29539561  0.41084241  0.74963124  1  0  0.086948  0.700476  0  4.449738  0
N  N71  1  0.70460144  0.58915794  0.25036656  1  0  0.086948  0.70057  0  4.449686  0
O  O72  1  0.12156005  0.34040123  0.75382029  1  0  -0.207416  -0.459553  0  2.038479  0
O  O73  1  0.53966468  0.33969043  0.74594014  1  0  -0.207971  -0.460317  0  2.040625  0
O  O74  1  0.87844638  0.65959150  0.24618079  1  0  -0.207422  -0.459572  0  2.038463  0
O  O75  1  0.46033365  0.66031863  0.25405865  1  0  -0.207926  -0.460306  0  2.040603  0
O  O76  1  0.22720050  0.54803176  0.74915541  1  0  -0.21543  -0.46369  0  1.903205  0
O  O77  1  0.77278969  0.45196749  0.25083741  1  0  -0.215461  -0.46375  0  1.903203  0
