# generated using pymatgen
data_CuH18AuC10N4ClO4
_symmetry_space_group_name_H-M   'P 1'
_cell_length_a   7.14606913
_cell_length_b   9.38586417
_cell_length_c   12.81007373
_cell_angle_alpha   90.00001470
_cell_angle_beta   90.00028388
_cell_angle_gamma   112.37239101
_symmetry_Int_Tables_number   1
_chemical_formula_structural   CuH18AuC10N4ClO4
_chemical_formula_sum   'Cu2 H36 Au2 C20 N8 Cl2 O8'
_cell_volume   794.52550641
_cell_formula_units_Z   2
loop_
 _symmetry_equiv_pos_site_id
 _symmetry_equiv_pos_as_xyz
  1  'x, y, z'
loop_
 _atom_site_type_symbol
 _atom_site_label
 _atom_site_symmetry_multiplicity
 _atom_site_fract_x
 _atom_site_fract_y
 _atom_site_fract_z
 _atom_site_occupancy
 _atom_site_hle17_ddec_charge
 _atom_site_hle17_ddec_spin_density
 _atom_site_hle17_ddec_sum_bond_order
 _atom_site_hle17_magmom
 _atom_site_hse06_10hf_ddec_charge
 _atom_site_hse06_10hf_ddec_spin_density
 _atom_site_hse06_10hf_ddec_sum_bond_order
 _atom_site_hse06_10hf_magmom
 _atom_site_hse06_ddec_charge
 _atom_site_hse06_ddec_spin_density
 _atom_site_hse06_ddec_sum_bond_order
 _atom_site_hse06_magmom
 _atom_site_pbe_cm5_charge
 _atom_site_pbe_ddec_charge
 _atom_site_pbe_ddec_spin_density
 _atom_site_pbe_ddec_sum_bond_order
 _atom_site_pbe_magmom
Cu  Cu0  1  0.22661378  0.45315202  0.75001321  1  0.827245  -0.700232  1.889235  -0.477  0.795094  -0.781734  2.277736  -0.586  0.869784  -0.860041  2.223014  -0.669  0.788361  0.753828  -0.728811  2.314534  -0.536
Cu  Cu1  1  0.77338645  0.54684930  0.25001213  1  0.827197  0.70024  1.889435  0.477  0.79508  0.781729  2.277963  0.586  0.869749  0.860034  2.223249  0.669  0.788347  0.753796  0.728809  2.314683  0.536
H  H2  1  0.14864505  0.63413772  0.86527788  1  0.261002  0.001043  0.919368  0.002  0.25526  -0.00015  0.9733  0.0  0.25995  0.000228  0.972257  0.001  0.295206  0.251886  -0.000472  0.974457  0.0
H  H3  1  0.51424004  0.36589771  0.13471189  1  0.260217  -0.001053  0.921756  -0.002  0.254756  0.000149  0.975412  0.0  0.259405  -0.000229  0.974454  -0.001  0.294995  0.251447  0.000478  0.976472  0.0
H  H4  1  0.48576337  0.63410091  0.63471291  1  0.260213  0.001053  0.921727  0.002  0.25475  -0.000148  0.975393  0.0  0.259399  0.000229  0.974436  0.001  0.294983  0.251445  -0.000478  0.97645  0.0
H  H5  1  0.85135703  0.36586516  0.36527853  1  0.260941  -0.001042  0.919396  -0.002  0.255246  0.000151  0.973263  0.0  0.259936  -0.000228  0.97222  -0.001  0.295216  0.25187  0.000472  0.974424  0.0
H  H6  1  0.57687278  0.77217138  0.80416015  1  0.058458  -9.3e-05  0.911993  0.0  0.070013  -1.7e-05  0.973928  0.0  0.069331  1e-06  0.974465  0.0  0.109438  0.070207  -8.5e-05  0.973839  0.0
H  H7  1  0.80439497  0.22780030  0.19580012  1  0.057896  0.000159  0.910905  0.0  0.069698  7.2e-05  0.972615  0.0  0.069017  3.6e-05  0.973133  0.0  0.109315  0.069976  8.6e-05  0.972434  0.0
H  H8  1  0.19560549  0.77219969  0.69579884  1  0.057889  -0.000159  0.91084  0.0  0.069683  -7.2e-05  0.972558  0.0  0.069003  -3.7e-05  0.973075  0.0  0.109311  0.069963  -8.6e-05  0.972375  0.0
H  H9  1  0.42312887  0.22782898  0.30415808  1  0.058466  9.2e-05  0.911988  0.0  0.069988  1.7e-05  0.973948  0.0  0.069304  -2e-06  0.974487  0.0  0.109434  0.07018  8.5e-05  0.973863  0.0
H  H10  1  0.49087571  0.91868782  0.94329040  1  0.064945  0.000274  0.974686  0.0  0.080951  4e-06  1.042575  0.0  0.081373  1.3e-05  1.043231  0.0  0.086888  0.080637  -1.8e-05  1.042037  0.0
H  H11  1  0.57181228  0.08126903  0.05668896  1  0.064718  -0.000273  0.974312  0.0  0.080998  0.0  1.041996  0.0  0.081434  -1e-05  1.042676  0.0  0.086966  0.080676  1.8e-05  1.041471  0.0
H  H12  1  0.42818656  0.91872471  0.55668677  1  0.064713  0.000273  0.974282  0.0  0.080993  0.0  1.041981  0.0  0.081427  9e-06  1.04266  0.0  0.086948  0.080669  -1.8e-05  1.041462  0.0
H  H13  1  0.50913200  0.08131648  0.44329321  1  0.064944  -0.000275  0.974637  0.0  0.080935  -4e-06  1.04254  0.0  0.081357  -1.3e-05  1.043198  0.0  0.086903  0.080622  1.8e-05  1.042007  0.0
H  H14  1  0.27780919  0.91753027  0.87196188  1  0.066983  0.000231  0.949734  0.0  0.080465  -2.3e-05  1.022684  0.0  0.081333  -1.6e-05  1.021865  0.0  0.08089  0.079757  2.3e-05  1.023371  0.0
H  H15  1  0.35993651  0.08234345  0.12808562  1  0.067148  -0.000287  0.950324  0.0  0.080899  -2.6e-05  1.023032  0.0  0.081804  -2e-05  1.022159  0.0  0.081067  0.080255  -2.4e-05  1.023544  0.0
H  H16  1  0.64006625  0.91765400  0.62808398  1  0.067168  0.000287  0.950179  0.0  0.080905  2.7e-05  1.022917  0.0  0.081813  2.1e-05  1.022037  0.0  0.081059  0.080265  2.4e-05  1.023426  0.0
H  H17  1  0.72219773  0.08247379  0.37196291  1  0.067014  -0.00023  0.949704  0.0  0.080454  2.4e-05  1.022685  0.0  0.08132  1.5e-05  1.021874  0.0  0.080888  0.07975  -2.3e-05  1.023371  0.0
H  H18  1  0.56555124  0.16819853  0.84672735  1  0.072796  -0.000926  0.945411  -0.001  0.090016  -0.000386  1.005981  -0.001  0.08989  -0.000198  1.007429  0.0  0.087949  0.090081  -0.000567  1.005025  -0.001
H  H19  1  0.39744054  0.83177624  0.15329638  1  0.072566  0.000914  0.945971  0.001  0.089674  0.000382  1.006561  0.001  0.089574  0.000199  1.008005  0.0  0.087593  0.089687  0.000568  1.005727  0.001
H  H20  1  0.60255969  0.16822130  0.65329214  1  0.072539  -0.000915  0.945974  -0.001  0.089655  -0.000382  1.006551  -0.001  0.089554  -0.000199  1.007994  0.0  0.087568  0.089671  -0.000568  1.005717  -0.001
H  H21  1  0.43445343  0.83180429  0.34673169  1  0.072832  0.000926  0.945412  0.001  0.090037  0.000386  1.005977  0.001  0.089913  0.000198  1.007422  0.0  0.087941  0.090098  0.000567  1.005026  0.001
H  H22  1  0.72488397  0.07342531  0.80730233  1  0.061281  0.000146  0.950897  0.0  0.07737  6.1e-05  1.01583  0.0  0.07678  5.9e-05  1.01786  0.0  0.081964  0.077809  6.6e-05  1.014326  0.0
H  H23  1  0.65152176  0.92673548  0.19268369  1  0.061379  -0.000151  0.951357  0.0  0.077765  -6.9e-05  1.015776  0.0  0.077172  -6.7e-05  1.017858  0.0  0.082004  0.078168  -6.6e-05  1.014384  0.0
H  H24  1  0.34847891  0.07326220  0.69267876  1  0.061421  0.000151  0.951287  0.0  0.077801  7.1e-05  1.015729  0.0  0.07721  6.7e-05  1.017808  0.0  0.082002  0.078206  6.6e-05  1.014336  0.0
H  H25  1  0.27511830  0.92657622  0.30730549  1  0.061292  -0.000146  0.950874  0.0  0.077376  -6e-05  1.015804  0.0  0.076789  -5.8e-05  1.017839  0.0  0.08197  0.077813  -6.6e-05  1.0143  0.0
H  H26  1  0.26361763  0.49398664  0.99143342  1  0.108426  -0.001065  0.966368  -0.002  0.123934  -0.000679  1.031821  -0.001  0.123323  -0.000453  1.033456  -0.001  0.100147  0.124235  -0.000854  1.030725  -0.001
H  H27  1  0.76924050  0.50603561  0.00852249  1  0.107375  0.001071  0.966473  0.002  0.123344  0.000678  1.031399  0.001  0.122713  0.000451  1.033041  0.001  0.100041  0.123655  0.000853  1.030358  0.001
H  H28  1  0.23076234  0.49396142  0.50852280  1  0.107337  -0.001071  0.966451  -0.002  0.123289  -0.000678  1.031409  -0.001  0.12266  -0.000452  1.033048  -0.001  0.100038  0.123605  -0.000853  1.030367  -0.001
H  H29  1  0.73638724  0.50601668  0.49143302  1  0.108393  0.001067  0.966431  0.002  0.123897  0.000679  1.031882  0.001  0.123286  0.000453  1.033522  0.001  0.100153  0.124199  0.000854  1.030786  0.001
H  H30  1  0.37452292  0.69561527  0.01474131  1  0.093092  -0.007137  0.950458  -0.009  0.111466  -0.004295  1.013826  -0.006  0.109668  -0.002918  1.015762  -0.004  0.097704  0.11254  -0.005288  1.012604  -0.007
H  H31  1  0.67864372  0.30440869  0.98520681  1  0.092193  0.007184  0.950635  0.009  0.110431  0.004324  1.01432  0.006  0.108625  0.002933  1.016243  0.004  0.097306  0.111425  0.005296  1.013227  0.007
H  H32  1  0.32135762  0.69558769  0.48520614  1  0.092159  -0.007185  0.950646  -0.009  0.110412  -0.004323  1.014333  -0.006  0.108596  -0.002933  1.016266  -0.004  0.097272  0.111421  -0.005296  1.013222  -0.007
H  H33  1  0.62547587  0.30438755  0.51474107  1  0.092989  0.007138  0.950444  0.009  0.111385  0.004295  1.013796  0.006  0.10959  0.002917  1.015733  0.004  0.097671  0.11246  0.005287  1.012577  0.007
H  H34  1  0.51603574  0.60105627  0.94938014  1  0.10317  -0.000601  0.947968  -0.001  0.119764  -0.000407  1.015751  -0.001  0.119016  -0.00026  1.017508  -0.001  0.100536  0.120078  -0.000538  1.014681  -0.001
H  H35  1  0.91468281  0.39903263  0.05055912  1  0.102882  0.000606  0.947509  0.001  0.119889  0.000408  1.014774  0.001  0.119074  0.000259  1.016586  0.001  0.100893  0.12019  0.000541  1.013813  0.001
H  H36  1  0.08531711  0.60096339  0.55055517  1  0.102869  -0.000606  0.947504  -0.001  0.119878  -0.000408  1.014775  -0.001  0.119063  -0.00026  1.016584  -0.001  0.10086  0.12018  -0.000541  1.013815  -0.001
H  H37  1  0.48397097  0.39895151  0.44937827  1  0.103143  0.000604  0.948018  0.001  0.119732  0.000408  1.015806  0.001  0.118987  0.00026  1.017563  0.001  0.100529  0.120048  0.000538  1.014738  0.001
Au  Au38  1  0.01106759  0.99995810  0.50007375  1  0.139631  -0.000202  2.269464  0.0  0.093188  6e-06  2.698352  0.0  0.103679  2.1e-05  2.662148  0.0  0.31625  0.085229  3e-06  2.723684  0.0
Au  Au39  1  0.98891170  0.00004236  0.00007468  1  0.139629  0.000195  2.269386  0.0  0.093159  -5e-06  2.698292  0.0  0.103653  -2.2e-05  2.662084  0.0  0.316264  0.085201  -3e-06  2.72362  0.0
C  C40  1  0.10425617  0.18460359  0.58904907  1  0.081659  0.012114  3.575691  0.006  0.092295  0.002589  3.908061  -0.002  0.106878  0.004166  3.91027  0.0  0.018464  0.08311  0.001132  3.907023  -0.004
C  C41  1  0.91990476  0.81532328  0.41108637  1  0.08171  -0.011947  3.576671  -0.006  0.092437  -0.00246  3.90879  0.002  0.107003  -0.004072  3.911027  0.0  0.018569  0.08322  -0.001126  3.907921  0.004
C  C42  1  0.08007264  0.18467976  0.91108700  1  0.081829  0.011941  3.576427  0.006  0.092565  0.002461  3.908535  -0.002  0.107131  0.004071  3.910766  0.0  0.018648  0.083353  0.001129  3.907664  -0.004
C  C43  1  0.89573784  0.81539948  0.08904838  1  0.081813  -0.012121  3.574922  -0.006  0.092459  -0.002594  3.907294  0.002  0.107043  -0.00417  3.909499  0.0  0.018488  0.083264  -0.001133  3.906257  0.004
C  C44  1  0.42400796  0.77501714  0.80589140  1  0.096713  0.001207  3.585292  0.004  0.081575  -0.001048  3.827562  0.001  0.08638  -0.000125  3.844794  0.002  -0.00175  0.078775  -0.001949  3.815752  0.0
C  C45  1  0.64868630  0.22496362  0.19406534  1  0.09861  -0.001116  3.582397  -0.004  0.083934  0.001116  3.824637  -0.001  0.088743  0.000171  3.841892  -0.002  -0.001288  0.080989  0.001946  3.812934  0.0
C  C46  1  0.35131637  0.77503521  0.69406369  1  0.098699  0.001114  3.582262  0.004  0.084046  -0.001118  3.824494  0.001  0.088859  -0.000169  3.841747  0.002  -0.001305  0.081103  -0.001946  3.812789  0.0
C  C47  1  0.57599174  0.22498208  0.30589286  1  0.096776  -0.00121  3.585285  -0.004  0.081662  0.001045  3.827522  -0.001  0.086467  0.000131  3.844757  -0.002  -0.001767  0.078864  0.001949  3.815719  0.0
C  C48  1  0.43283429  0.91970791  0.86409640  1  -0.158427  -0.008705  3.673568  -0.009  -0.203554  -0.004803  3.929798  -0.005  -0.20618  -0.003184  3.945514  -0.004  -0.168448  -0.201177  -0.006152  3.918342  -0.006
C  C49  1  0.51282754  0.08023856  0.13590310  1  -0.158415  0.008883  3.673186  0.009  -0.204158  0.004922  3.929569  0.005  -0.206861  0.003253  3.945416  0.004  -0.168948  -0.201879  0.006158  3.918191  0.006
C  C50  1  0.48717530  0.91975892  0.63590107  1  -0.158427  -0.008886  3.672977  -0.009  -0.204168  -0.004922  3.929378  -0.005  -0.206875  -0.003255  3.945231  -0.004  -0.168893  -0.201894  -0.006158  3.918001  -0.006
C  C51  1  0.56717140  0.08029381  0.36409858  1  -0.158409  0.008706  3.673566  0.009  -0.203473  0.004804  3.929711  0.005  -0.206083  0.003181  3.945408  0.004  -0.168419  -0.201081  0.006151  3.918219  0.006
C  C52  1  0.56712154  0.06538087  0.80632476  1  -0.101129  -0.00182  3.681478  -0.002  -0.138532  -0.001146  3.940839  -0.001  -0.140024  -0.000659  3.958022  -0.001  -0.170067  -0.137345  -0.001429  3.928756  -0.002
C  C53  1  0.50172565  0.93464148  0.19369052  1  -0.102113  0.00175  3.683137  0.002  -0.139658  0.001093  3.942731  0.001  -0.141198  0.000624  3.959963  0.001  -0.169999  -0.13858  0.001429  3.930831  0.002
C  C54  1  0.49827503  0.06535620  0.69368676  1  -0.102092  -0.001746  3.683086  -0.002  -0.139633  -0.001098  3.94272  -0.001  -0.141179  -0.000621  3.959952  -0.001  -0.169942  -0.138557  -0.001429  3.930827  -0.002
C  C55  1  0.43288071  0.93462066  0.30632912  1  -0.101178  0.001815  3.681609  0.002  -0.138559  0.001145  3.940915  0.001  -0.140065  0.000659  3.95812  0.001  -0.170052  -0.137374  0.001428  3.928842  0.002
C  C56  1  0.36530216  0.60396073  0.95926903  1  -0.142595  0.002364  3.626564  0.007  -0.235537  -0.001318  3.889543  0.002  -0.230229  -0.000274  3.904302  0.003  -0.154477  -0.23848  -0.002133  3.879713  0.002
C  C57  1  0.76100761  0.39607605  0.04068387  1  -0.14031  -0.002392  3.624819  -0.007  -0.23358  0.001321  3.888425  -0.002  -0.228191  0.000275  3.903246  -0.003  -0.154563  -0.23656  0.002135  3.878832  -0.002
C  C58  1  0.23899418  0.60392109  0.54068189  1  -0.140185  0.002394  3.62469  0.007  -0.233465  -0.001324  3.888337  0.002  -0.228068  -0.000275  3.903159  0.003  -0.154489  -0.236456  -0.002135  3.878731  0.002
C  C59  1  0.63470014  0.39604363  0.45926834  1  -0.142458  -0.002375  3.626544  -0.007  -0.235423  0.001315  3.889536  -0.002  -0.230111  0.000276  3.904273  -0.003  -0.154464  -0.238369  0.002133  3.879714  -0.002
N  N60  1  0.16120812  0.29362746  0.64254456  1  -0.397673  -0.05414  3.144855  -0.062  -0.351199  -0.041485  3.430246  -0.05  -0.376128  -0.038597  3.439166  -0.049  -0.380358  -0.336943  -0.04253  3.425392  -0.05
N  N61  1  0.86779308  0.70633269  0.35755810  1  -0.398547  0.054081  3.145135  0.062  -0.351965  0.0415  3.430345  0.05  -0.376902  0.038598  3.439278  0.048  -0.380792  -0.337881  0.042568  3.425614  0.05
N  N62  1  0.13219599  0.29366671  0.85755655  1  -0.398661  -0.05407  3.14493  -0.062  -0.352074  -0.041499  3.430143  -0.05  -0.377012  -0.038593  3.43907  -0.048  -0.38087  -0.337996  -0.042567  3.425438  -0.05
N  N63  1  0.83879225  0.70636774  0.14254915  1  -0.397824  0.054152  3.144308  0.062  -0.351376  0.041491  3.429769  0.05  -0.376299  0.038605  3.438676  0.049  -0.380403  -0.337117  0.042534  3.424895  0.05
N  N64  1  0.29001965  0.62980023  0.85676992  1  -0.348554  -0.138396  3.246264  -0.166  -0.314839  -0.088663  3.53359  -0.114  -0.349924  -0.070325  3.556277  -0.095  -0.486796  -0.293982  -0.098848  3.5198  -0.122
N  N65  1  0.65993562  0.37020257  0.14319212  1  -0.348257  0.139234  3.246823  0.167  -0.315908  0.08913  3.535546  0.114  -0.351168  0.070592  3.558395  0.096  -0.486438  -0.295253  0.098929  3.521868  0.122
N  N66  1  0.34006426  0.62979724  0.64319120  1  -0.34835  -0.139236  3.24678  -0.167  -0.315978  -0.089125  3.535485  -0.114  -0.351245  -0.07059  3.558337  -0.096  -0.486419  -0.295339  -0.098926  3.521836  -0.122
N  N67  1  0.70998316  0.37020147  0.35677020  1  -0.34851  0.138393  3.24619  0.166  -0.314839  0.088664  3.533511  0.114  -0.349915  0.070321  3.556193  0.095  -0.486781  -0.293972  0.098841  3.519703  0.122
Cl  Cl68  1  0.77549217  0.55102558  0.74998818  1  1.389638  0.000484  6.168029  0.0  1.332096  0.000494  6.729103  0.0  1.384614  0.000406  6.70436  0.0  0.732324  1.296252  0.000553  6.74459  0.0
Cl  Cl69  1  0.22450946  0.44897574  0.24999422  1  1.389764  -0.000483  6.167937  0.0  1.332164  -0.000493  6.729073  0.0  1.384688  -0.000408  6.704322  0.0  0.732327  1.296317  -0.000553  6.74456  0.0
O  O70  1  0.88146791  0.45361777  0.71547094  1  -0.542122  0.00143  1.909734  0.0  -0.52107  0.001264  2.17349  0.001  -0.537579  0.001282  2.15765  0.001  -0.303241  -0.510061  0.001171  2.184304  0.0
O  O71  1  0.42795647  0.54630417  0.28448377  1  -0.542687  -0.001429  1.910171  0.0  -0.521349  -0.001291  2.173775  -0.001  -0.537941  -0.001305  2.158018  -0.001  -0.303826  -0.51022  -0.001173  2.184351  0.0
O  O72  1  0.57204052  0.45369843  0.78448107  1  -0.542636  0.001427  1.910011  0.0  -0.521325  0.001292  2.173629  0.001  -0.537902  0.001306  2.15784  0.001  -0.303816  -0.510192  0.001173  2.184196  0.0
O  O73  1  0.11852717  0.54638228  0.21547361  1  -0.542196  -0.001428  1.909622  0.0  -0.521091  -0.001262  2.173357  -0.001  -0.537595  -0.001285  2.157513  -0.001  -0.303232  -0.510078  -0.001171  2.184161  0.0
O  O74  1  0.88564828  0.64939380  0.83683873  1  -0.555824  0.000295  1.85776  0.0  -0.528435  0.000174  2.103625  0.0  -0.542624  0.000157  2.089612  0.0  -0.312074  -0.518246  0.000158  2.112744  0.0
O  O75  1  0.23614260  0.35047720  0.16318286  1  -0.555234  -0.000242  1.858242  0.0  -0.527682  -0.000151  2.103807  0.0  -0.541772  -0.00015  2.089646  0.0  -0.311898  -0.517658  -0.000158  2.113049  0.0
O  O76  1  0.76385412  0.64952152  0.66318306  1  -0.555175  0.000242  1.858482  0.0  -0.527612  0.000151  2.104033  0.0  -0.541708  0.000154  2.089875  0.0  -0.311845  -0.517589  0.000158  2.113275  0.0
O  O77  1  0.11435489  0.35060898  0.33683978  1  -0.555778  -0.000292  1.857889  0.0  -0.528381  -0.000174  2.103778  0.0  -0.542583  -0.000156  2.089774  0.0  -0.312032  -0.518196  -0.000158  2.112904  0.0
