# generated using pymatgen
data_Zn8H31C56(BrO11)3
_symmetry_space_group_name_H-M   'P 1'
_cell_length_a   18.45054967
_cell_length_b   18.46101235
_cell_length_c   18.41786418
_cell_angle_alpha   89.61181601
_cell_angle_beta   120.06934092
_cell_angle_gamma   119.91600420
_symmetry_Int_Tables_number   1
_chemical_formula_structural   Zn8H31C56(BrO11)3
_chemical_formula_sum   'Zn8 H31 C56 Br3 O33'
_cell_volume   4451.73814715
_cell_formula_units_Z   1
loop_
 _symmetry_equiv_pos_site_id
 _symmetry_equiv_pos_as_xyz
  1  'x, y, z'
loop_
 _atom_site_type_symbol
 _atom_site_label
 _atom_site_symmetry_multiplicity
 _atom_site_fract_x
 _atom_site_fract_y
 _atom_site_fract_z
 _atom_site_occupancy
 _atom_site_pbe_bader_charge
 _atom_site_pbe_bader_spin_density
 _atom_site_pbe_cm5_charge
 _atom_site_pbe_ddec_charge
 _atom_site_pbe_ddec_spin_density
 _atom_site_pbe_ddec_sum_bond_order
 _atom_site_pbe_magmom
Zn  Zn0  1  0.42099115  0.55200925  0.95643650  1  1.313879  0  0.672675  0.957774  0  2.381026  0
Zn  Zn1  1  0.58812753  0.54677588  0.12925583  1  1.312628  0  0.675036  0.959645  0  2.380081  0
Zn  Zn2  1  0.58574187  0.53867148  0.95588250  1  1.297999  0  0.670671  0.953932  0  2.379636  0
Zn  Zn3  1  0.40687676  0.37107108  0.95418094  1  1.325799  0  0.675129  0.969399  0  2.354838  0
Zn  Zn4  1  0.59367746  0.96379714  0.54160618  1  1.316115  0  0.672141  0.965674  0  2.371043  0
Zn  Zn5  1  0.41121995  0.95321248  0.54181822  1  1.313639  0  0.68118  0.968088  0  2.331415  0
Zn  Zn6  1  0.41357062  0.95813414  0.36921071  1  1.301378  0  0.672155  0.957524  0  2.388193  0
Zn  Zn7  1  0.58311004  0.12922795  0.54198847  1  1.293869  0  0.669518  0.954523  0  2.392848  0
H  H8  1  0.90174331  0.32163847  0.69269987  1  0.095827  0  0.116195  0.122443  0  0.983371  0
H  H9  1  0.39133087  0.13415269  0.03570157  1  0.041334  0  0.090179  0.107758  0  1.003215  0
H  H10  1  0.29231693  0.13411986  0.03039017  1  0.075349  0  0.098673  0.112123  0  0.977287  0
H  H11  1  0.09683468  0.78382341  0.18288847  1  0.122856  0  0.115193  0.141498  0  0.980798  0
H  H12  1  0.08821479  0.90308454  0.43704806  1  0.03573  0  0.096149  0.029329  0  0.976325  0
H  H13  1  0.90353928  0.71291986  0.37455006  1  0.066811  0  0.101658  0.126631  0  0.977522  0
H  H14  1  0.89656664  0.80310443  0.34491084  1  0.036965  0  0.092865  0.108469  0  0.992347  0
H  H15  1  0.39504329  0.71615783  0.08629976  1  0.091058  0  0.108612  0.116803  0  0.991723  0
H  H16  1  0.39566777  0.81038335  0.18254497  1  0.095809  0  0.108445  0.114952  0  0.993331  0
H  H17  1  0.70859488  0.83226651  0.47091671  1  0.045429  0  0.098099  0.109022  0  0.979333  0
H  H18  1  0.60450273  0.73560021  0.46236579  1  0.048842  0  0.090211  0.105184  0  1.00332  0
H  H19  1  0.25782018  0.05190054  0.61038908  1  0.062959  0  0.095342  0.109701  0  0.984038  0
H  H20  1  0.70874620  0.73758379  0.37263508  1  0.046194  0  0.097053  0.106141  0  0.986324  0
H  H21  1  0.60562681  0.64114349  0.36535641  1  0.049434  0  0.099878  0.112142  0  0.976853  0
H  H22  1  0.07853077  0.25639165  0.80194130  1  0.124341  0  0.110704  0.145884  0  1.002621  0
H  H23  1  0.58269761  0.66240838  0.75344373  1  0.131759  0  0.112922  0.130191  0  0.988904  0
H  H24  1  0.33878805  0.80289831  0.70275372  1  0.093605  0  0.103228  0.065642  0  0.97924  0
H  H25  1  0.65610017  0.44438478  0.88553938  1  0.633973  0  0.309109  0.354519  0  0.964164  0
H  H26  1  0.64935849  0.27245578  0.70211191  1  0.656051  0  0.309561  0.354483  0  0.962156  0
H  H27  1  0.82930378  0.65986881  0.03970195  1  0.632292  0  0.307655  0.356437  0  0.96137  0
H  H28  1  0.11543606  0.83890952  0.54136248  1  0.570071  0  0.318915  0.342754  0  0.913116  0
H  H29  1  0.03961790  0.44355519  0.71818787  1  0.605487  0  0.34291  0.365625  0  0.865851  0
H  H30  1  0.31423831  0.01903610  0.70333755  1  0.051947  0  0.092397  0.110152  0  0.997158  0
H  H31  1  0.44922216  0.92626510  0.82868838  1  0.597983  0  0.332014  0.361587  0  0.878962  0
H  H32  1  0.47017626  0.74845990  0.93088725  1  0.638503  0  0.321666  0.376177  0  0.889015  0
H  H33  1  0.25754808  0.14920659  0.70704709  1  0.090312  0  0.105646  0.099671  0  0.959581  0
H  H34  1  0.61814475  0.41681977  0.31861545  1  0.093203  0  0.105879  0.112262  0  0.996711  0
H  H35  1  0.61054375  0.32124159  0.41405789  1  0.117451  0  0.10503  0.111305  0  0.99779  0
H  H36  1  0.38681042  0.03753661  0.13336994  1  0.057167  0  0.100094  0.112352  0  0.977356  0
H  H37  1  0.92552540  0.17029547  0.67372931  1  0.090766  0  0.118162  0.137127  0  0.976511  0
H  H38  1  0.28674418  0.03654352  0.12708523  1  0.060702  0  0.100199  0.111818  0  0.976856  0
C  C39  1  0.50874055  0.36657613  0.13857167  1  1.574268  0  0.229249  0.613328  0  4.166139  0
C  C40  1  0.40847006  0.75360355  0.81402172  1  0.628468  0  0.090589  0.273451  0  3.832875  0
C  C41  1  0.42217546  0.20857537  0.76751387  1  0.058763  0  -0.028671  -0.000488  0  3.975598  0
C  C42  1  0.50982353  0.63491687  0.85733921  1  1.546137  0  0.23264  0.616189  0  4.143288  0
C  C43  1  0.50252441  0.29849288  0.81578847  1  -0.021662  0  -0.033707  -0.20703  0  4.0073  0
C  C44  1  0.58520287  0.33234677  0.80787259  1  0.610523  0  0.095436  0.214941  0  4.001633  0
C  C45  1  0.58384213  0.27804387  0.75106636  1  0.552928  0  0.096949  0.220121  0  4.001879  0
C  C46  1  0.50144064  0.18794182  0.70333036  1  -0.001559  0  -0.034436  -0.220698  0  4.010021  0
C  C47  1  0.42202524  0.15573603  0.71460849  1  -0.02012  0  -0.014297  0.074121  0  3.939846  0
C  C48  1  0.31685101  0.07546429  0.68203617  1  0.012726  0  -0.154321  -0.235184  0  3.890045  0
C  C49  1  0.31695591  0.13705468  0.74086284  1  -0.013968  0  -0.062281  0.036833  0  3.743723  0
C  C50  1  0.11609399  0.32487794  0.80396894  1  0.04559  0  -0.121304  -0.389169  0  3.857508  0
C  C51  1  0.44243896  0.21712699  0.15992407  1  -0.020284  0  -0.000459  0.069229  0  3.870933  0
C  C52  1  0.50626294  0.30904721  0.19538065  1  -0.01574  0  -0.013431  -0.080483  0  3.977329  0
C  C53  1  0.56731443  0.34515145  0.28875969  1  -0.079978  0  -0.08423  -0.100256  0  3.985477  0
C  C54  1  0.50049986  0.64124114  0.13637457  1  1.538763  0  0.227509  0.609208  0  4.17336  0
C  C55  1  0.56313632  0.29159769  0.34223452  1  -0.049459  0  -0.084394  -0.098717  0  3.985776  0
C  C56  1  0.49837263  0.19847542  0.30579194  1  0.036058  0  -0.014508  -0.082883  0  3.982144  0
C  C57  1  0.43905165  0.16337985  0.21364823  1  -0.032512  0  -0.001141  0.066751  0  3.875317  0
C  C58  1  0.36029385  0.07860494  0.13560705  1  -0.038444  0  -0.150447  -0.200732  0  3.881192  0
C  C59  1  0.36368066  0.13940292  0.07480677  1  4.3e-05  0  -0.152496  -0.200053  0  3.871813  0
C  C60  1  0.94661946  0.75402671  0.28153642  1  0.112363  0  -0.000553  0.109622  0  3.932361  0
C  C61  1  0.46192745  0.73378653  0.78552724  1  -0.008868  0  -0.013978  -0.050698  0  3.961304  0
C  C62  1  0.88987524  0.71290953  0.19015597  1  -0.056815  0  -0.034933  -0.238154  0  3.97809  0
C  C63  1  0.94843419  0.72667612  0.15572929  1  0.614398  0  0.099479  0.322207  0  4.045729  0
C  C64  1  0.05581637  0.77656847  0.21208087  1  -0.085127  0  -0.092234  -0.219066  0  3.908587  0
C  C65  1  0.11006952  0.81594609  0.30323654  1  -0.025737  0  -0.003131  -0.023945  0  3.983085  0
C  C66  1  0.50039723  0.35560262  0.86883108  1  1.520471  0  0.227621  0.624799  0  4.139679  0
C  C67  1  0.05261026  0.80410853  0.33659553  1  -0.085116  0  -0.021265  -0.046228  0  3.87034  0
C  C68  1  0.05722927  0.83226969  0.41703172  1  0.521821  0  0.007727  0.205275  0  3.896839  0
C  C69  1  0.93576211  0.77075061  0.35470989  1  -0.008828  0  -0.160146  -0.290293  0  3.874366  0
C  C70  1  0.56005280  0.71997413  0.28615262  1  0.022249  0  -0.00166  0.06537  0  3.881494  0
C  C71  1  0.50124807  0.69781072  0.19402947  1  -0.029877  0  -0.013686  -0.081296  0  3.982875  0
C  C72  1  0.50553840  0.68764431  0.79597639  1  0.033425  0  -0.005751  -0.025892  0  3.958405  0
C  C73  1  0.44193200  0.73208101  0.15805575  1  -0.016766  0  -0.0817  -0.096608  0  3.976332  0
C  C74  1  0.44222062  0.78487333  0.21202406  1  -0.037758  0  -0.080909  -0.094699  0  3.975198  0
C  C75  1  0.50176901  0.80679636  0.30528197  1  0.017128  0  -0.012857  -0.078767  0  3.977872  0
C  C76  1  0.56029689  0.77289994  0.34025041  1  -0.042891  0  -0.001889  0.064886  0  3.878581  0
C  C77  1  0.63523163  0.76868397  0.42501740  1  0.001319  0  -0.152351  -0.197564  0  3.877178  0
C  C78  1  0.77764493  0.65482888  0.13444822  1  1.553931  0  0.226589  0.623728  0  4.155616  0
C  C79  1  0.63532242  0.70913496  0.36377752  1  -0.022761  0  -0.151032  -0.199887  0  3.884691  0
C  C80  1  0.50059749  0.13184632  0.64603312  1  1.533609  0  0.228153  0.623673  0  4.149437  0
C  C81  1  0.50163060  0.86350587  0.36201099  1  1.532858  0  0.227994  0.6101  0  4.170042  0
C  C82  1  0.51018708  0.86623716  0.63709126  1  1.606943  0  0.232753  0.626095  0  4.155489  0
C  C83  1  0.54849025  0.69777707  0.74854609  1  -0.004934  0  -0.076477  -0.134907  0  3.918033  0
C  C84  1  0.49523842  0.14157978  0.36310626  1  1.547155  0  0.227831  0.610831  0  4.173194  0
C  C85  1  0.22384122  0.86766241  0.36014005  1  1.579321  0  0.23106  0.608038  0  4.165419  0
C  C86  1  0.77696885  0.14675362  0.61973572  1  1.571505  0  0.221419  0.642443  0  4.17808  0
C  C87  1  0.22736600  0.37713482  0.85893862  1  1.524685  0  0.212579  0.665639  0  4.177756  0
C  C88  1  0.94389026  0.29219889  0.70389572  1  -0.078867  0  -0.070826  -0.137577  0  3.968362  0
C  C89  1  0.88939238  0.20411235  0.66786202  1  -0.027793  0  -0.080925  -0.19376  0  3.879478  0
C  C90  1  0.05525450  0.35245696  0.75672419  1  0.51142  0  0.100848  0.358773  0  4.067043  0
C  C91  1  0.54926210  0.75312600  0.69590002  1  -0.05601  0  0.00078  0.100529  0  3.899556  0
C  C92  1  0.50866248  0.80297728  0.68849938  1  -0.001302  0  -0.000794  -0.083695  0  3.881685  0
C  C93  1  0.46452757  0.78982601  0.73491697  1  0.046252  0  0.004727  0.04582  0  3.856949  0
C  C94  1  0.41436439  0.82124325  0.75844551  1  0.525867  0  0.008607  0.103024  0  3.866055  0
Br  Br95  1  0.26051733  0.64581035  0.75118226  1  -0.211024  0  -0.107442  -0.238976  0  1.138712  0
Br  Br96  1  0.30489380  0.09487731  0.83635109  1  -0.172754  0  -0.068401  -0.178775  0  1.220213  0
Br  Br97  1  0.60551836  0.75466433  0.63254504  1  -0.030973  0  0.03055  -0.058802  0  1.408812  0
O  O98  1  0.50076755  0.50136755  0.99924829  1  -1.213194  0  -0.574669  -1.0288  0  2.55069  0
O  O99  1  0.43851914  0.05841998  0.32371590  1  -1.162223  0  -0.309064  -0.538101  0  2.336152  0
O  O100  1  0.26724062  0.89298397  0.44358410  1  -1.164608  0  -0.305118  -0.528095  0  2.345717  0
O  O101  1  0.44406135  0.32715452  0.05500878  1  -1.177712  0  -0.308367  -0.538549  0  2.337592  0
O  O102  1  0.73051653  0.18372268  0.60653263  1  -1.172968  0  -0.319614  -0.55246  0  2.315992  0
O  O103  1  0.26804080  0.88222823  0.32079129  1  -1.1769  0  -0.314673  -0.545911  0  2.3397  0
O  O104  1  0.73626785  0.06372340  0.59596779  1  -1.167497  0  -0.315734  -0.543974  0  2.285123  0
O  O105  1  0.58530248  0.90822791  0.63113597  1  -1.170748  0  -0.311668  -0.544154  0  2.382866  0
O  O106  1  0.54949327  0.18013306  0.44674997  1  -1.176043  0  -0.320233  -0.553068  0  2.335938  0
O  O107  1  0.43198242  0.04933299  0.61435906  1  -1.162964  0  -0.299862  -0.516095  0  2.312482  0
O  O108  1  0.44676637  0.89239558  0.32312947  1  -1.163871  0  -0.313977  -0.544288  0  2.339095  0
O  O109  1  0.44799056  0.62816127  0.05297140  1  -1.178866  0  -0.316186  -0.547263  0  2.334579  0
O  O110  1  0.47761258  0.64005534  0.90334609  1  -1.18183  0  -0.307218  -0.559046  0  2.352584  0
O  O111  1  0.55291742  0.61015392  0.17550295  1  -1.163808  0  -0.310288  -0.539863  0  2.33423  0
O  O112  1  0.57946084  0.43756066  0.91033423  1  -1.176486  0  -0.316309  -0.56481  0  2.358231  0
O  O113  1  0.73142917  0.63616255  0.17187955  1  -1.177566  0  -0.304856  -0.52564  0  2.32543  0
O  O114  1  0.26592898  0.33356171  0.89258299  1  -1.168439  0  -0.330432  -0.565792  0  2.28518  0
O  O115  1  0.73265508  0.62492322  0.04949234  1  -1.178986  0  -0.315013  -0.565993  0  2.3585  0
O  O116  1  0.27789688  0.46005618  0.87004602  1  -1.16836  0  -0.320234  -0.545968  0  2.340389  0
O  O117  1  0.66836204  0.41604487  0.85077330  1  -1.12168  0  -0.341889  -0.402825  0  2.278398  0
O  O118  1  0.66494103  0.31809402  0.74691869  1  -1.13864  0  -0.34025  -0.401641  0  2.276777  0
O  O119  1  0.90430531  0.69198828  0.06890480  1  -1.143074  0  -0.353823  -0.437252  0  2.242076  0
O  O120  1  0.42262232  0.32314963  0.87072098  1  -1.167119  0  -0.302354  -0.525628  0  2.331566  0
O  O121  1  0.10595403  0.80862833  0.49113347  1  -1.095871  0  -0.407291  -0.495603  0  2.202172  0
O  O122  1  0.09482092  0.43758448  0.75815855  1  -1.096374  0  -0.324135  -0.402067  0  2.30253  0
O  O123  1  0.48165944  0.91156726  0.80882610  1  -1.094502  0  -0.394622  -0.462715  0  2.202076  0
O  O124  1  0.45148531  0.78696657  0.90168033  1  -1.135504  0  -0.36582  -0.454966  0  2.270833  0
O  O125  1  0.57446785  0.44999781  0.17782184  1  -1.176337  0  -0.317135  -0.548761  0  2.332076  0
O  O126  1  0.54609781  0.59044362  0.86106783  1  -1.163819  0  -0.310749  -0.533239  0  2.29436  0
O  O127  1  0.50010287  0.00061383  0.49984824  1  -1.19121  0  -0.572494  -1.030104  0  2.537791  0
O  O128  1  0.57133794  0.17126934  0.63198932  1  -1.175053  0  -0.312387  -0.561416  0  2.363454  0
O  O129  1  0.55730529  0.87886547  0.44567644  1  -1.157525  0  -0.312244  -0.54523  0  2.334428  0
O  O130  1  0.43509777  0.87277670  0.60513972  1  -1.158802  0  -0.302466  -0.527171  0  2.310568  0
