# generated using pymatgen
data_CdH15C19Br(NO2)2
_symmetry_space_group_name_H-M   'P 1'
_cell_length_a   8.39834689
_cell_length_b   11.49974701
_cell_length_c   11.52925445
_cell_angle_alpha   100.33412703
_cell_angle_beta   104.48358304
_cell_angle_gamma   99.86973924
_symmetry_Int_Tables_number   1
_chemical_formula_structural   CdH15C19Br(NO2)2
_chemical_formula_sum   'Cd2 H30 C38 Br2 N4 O8'
_cell_volume   1032.90529491
_cell_formula_units_Z   2
loop_
 _symmetry_equiv_pos_site_id
 _symmetry_equiv_pos_as_xyz
  1  'x, y, z'
loop_
 _atom_site_type_symbol
 _atom_site_label
 _atom_site_symmetry_multiplicity
 _atom_site_fract_x
 _atom_site_fract_y
 _atom_site_fract_z
 _atom_site_occupancy
 _atom_site_hle17_bader_spin_density
 _atom_site_hle17_ddec_charge
 _atom_site_hle17_ddec_spin_density
 _atom_site_hle17_ddec_sum_bond_order
 _atom_site_hle17_magmom
 _atom_site_hse06_10hf_bader_spin_density
 _atom_site_hse06_10hf_ddec_charge
 _atom_site_hse06_10hf_ddec_spin_density
 _atom_site_hse06_10hf_ddec_sum_bond_order
 _atom_site_hse06_10hf_magmom
 _atom_site_hse06_bader_spin_density
 _atom_site_hse06_ddec_charge
 _atom_site_hse06_ddec_spin_density
 _atom_site_hse06_ddec_sum_bond_order
 _atom_site_hse06_magmom
 _atom_site_pbe_bader_spin_density
 _atom_site_pbe_cm5_charge
 _atom_site_pbe_ddec_charge
 _atom_site_pbe_ddec_spin_density
 _atom_site_pbe_ddec_sum_bond_order
 _atom_site_pbe_magmom
Cd  Cd0  1  0.38426101  0.18940134  0.20982621  1  0  1.044228  0  1.75494  0  0  0.86652  0  2.208743  0  0  0.925209  0  2.156202  0  0  0.680413  0.82509  0  2.244442  0
Cd  Cd1  1  0.61575458  0.81060442  0.79017293  1  0  1.04423  0  1.754927  0  0  0.866534  0  2.208721  0  0  0.925222  0  2.15618  0  0  0.680402  0.825105  0  2.244418  0
H  H2  1  0.14192572  0.02113605  0.96062399  1  0  0.07474  0  0.962575  0  0  0.080031  0  1.032431  0  0  0.082867  0  1.030271  0  0  0.104323  0.078242  0  1.033483  0
H  H3  1  0.85808066  0.97887272  0.03938859  1  0  0.07482  0  0.962575  0  0  0.08008  0  1.032436  0  0  0.082908  0  1.030287  0  0  0.104356  0.078292  0  1.033486  0
H  H4  1  0.04009924  0.80534469  0.84788626  1  0  0.132206  0  0.980406  0  0  0.13784  0  1.046099  0  0  0.142043  0  1.043192  0  0  0.110718  0.134692  0  1.048452  0
H  H5  1  0.95988210  0.19466374  0.15213175  1  0  0.132275  0  0.980209  0  0  0.137873  0  1.045959  0  0  0.142073  0  1.043053  0  0  0.110718  0.134727  0  1.048311  0
H  H6  1  0.82846287  0.39793570  0.74461095  1  0  0.108878  0  0.899491  0  0  0.124658  0  0.946187  0  0  0.127141  0  0.94447  0  0  0.14306  0.122802  0  0.947501  0
H  H7  1  0.17153367  0.60205764  0.25537888  1  0  0.108792  0  0.899223  0  0  0.124603  0  0.945936  0  0  0.127088  0  0.944216  0  0  0.142984  0.122742  0  0.947246  0
H  H8  1  0.43580388  0.58999539  0.91033898  1  0  0.11888  0  0.987463  0  0  0.123883  0  1.05564  0  0  0.127803  0  1.054079  0  0  0.098475  0.121121  0  1.05672  0
H  H9  1  0.56418157  0.41002289  0.08966067  1  0  0.118888  0  0.987411  0  0  0.123894  0  1.055577  0  0  0.12782  0  1.054026  0  0  0.098496  0.121132  0  1.05665  0
H  H10  1  0.02557323  0.19683516  0.75752700  1  0  0.124626  0  0.927491  0  0  0.142216  0  0.992068  0  0  0.143365  0  0.991621  0  0  0.108727  0.141324  0  0.992423  0
H  H11  1  0.97445484  0.80316859  0.24248554  1  0  0.124667  0  0.927438  0  0  0.142205  0  0.992096  0  0  0.143353  0  0.991649  0  0  0.108709  0.141316  0  0.992446  0
H  H12  1  0.10040591  0.23508860  0.63346729  1  0  0.122341  0  0.938974  0  0  0.14107  0  1.001344  0  0  0.14093  0  1.003666  0  0  0.117064  0.14096  0  1.000021  0
H  H13  1  0.89962345  0.76491510  0.36654289  1  0  0.122302  0  0.939115  0  0  0.141095  0  1.001422  0  0  0.140952  0  1.003749  0  0  0.117071  0.140984  0  1.000099  0
H  H14  1  0.88889526  0.23901611  0.63246622  1  0  0.128485  0  0.916733  0  0  0.149943  0  0.971967  0  0  0.150858  0  0.972181  0  0  0.122818  0.149151  0  0.971983  0
H  H15  1  0.11112386  0.76097224  0.36753589  1  0  0.128523  0  0.91675  0  0  0.149975  0  0.972018  0  0  0.150892  0  0.972224  0  0  0.122757  0.149182  0  0.972029  0
H  H16  1  0.91502689  0.61162792  0.87106692  1  0  0.12572  0  0.98722  0  0  0.131497  0  1.052488  0  0  0.135884  0  1.050114  0  0  0.099777  0.128325  0  1.054323  0
H  H17  1  0.08495081  0.38836126  0.12892371  1  0  0.125721  0  0.987061  0  0  0.131473  0  1.052409  0  0  0.135865  0  1.050033  0  0  0.09977  0.128299  0  1.054239  0
H  H18  1  0.53486972  0.94837775  0.21412067  1  0  0.090081  0  0.919307  0  0  0.101711  0  0.976602  0  0  0.103621  0  0.97517  0  0  0.123652  0.100107  0  0.977876  0
H  H19  1  0.46513590  0.05161725  0.78587556  1  0  0.090077  0  0.919284  0  0  0.101705  0  0.976567  0  0  0.103616  0  0.975132  0  0  0.123663  0.100102  0  0.977839  0
H  H20  1  0.45803591  0.72830242  0.10714271  1  0  0.10076  0  0.960503  0  0  0.110149  0  1.022058  0  0  0.11354  0  1.020434  0  0  0.098861  0.10776  0  1.023209  0
H  H21  1  0.54194779  0.27169033  0.89285577  1  0  0.100701  0  0.960576  0  0  0.110199  0  1.022007  0  0  0.11359  0  1.020381  0  0  0.098862  0.107809  0  1.023164  0
H  H22  1  0.32634369  0.37809735  0.78068250  1  0  0.104864  0  0.905711  0  0  0.120505  0  0.954781  0  0  0.123129  0  0.951986  0  0  0.13804  0.118479  0  0.956911  0
H  H23  1  0.67365943  0.62192510  0.21931439  1  0  0.104772  0  0.905634  0  0  0.120399  0  0.954728  0  0  0.123022  0  0.951934  0  0  0.137968  0.118371  0  0.956857  0
H  H24  1  0.72749684  0.55608258  0.50408644  1  0  0.117541  0  0.933039  0  0  0.127508  0  0.990477  0  0  0.131913  0  0.986999  0  0  0.106833  0.124298  0  0.993033  0
H  H25  1  0.27252322  0.44391584  0.49592275  1  0  0.117594  0  0.933068  0  0  0.127556  0  0.990498  0  0  0.131961  0  0.987019  0  0  0.106855  0.124345  0  0.993047  0
H  H26  1  0.99917833  0.30133736  0.37119531  1  0  0.10884  0  0.973378  0  0  0.114265  0  1.042991  0  0  0.118018  0  1.040538  0  0  0.100963  0.111331  0  1.045259  0
H  H27  1  0.00083769  0.69865657  0.62881233  1  0  0.108812  0  0.973594  0  0  0.114284  0  1.043135  0  0  0.118024  0  1.0407  0  0  0.100978  0.111346  0  1.045408  0
H  H28  1  0.12191438  0.90661736  0.67064319  1  0  0.108874  0  0.964014  0  0  0.115164  0  1.032084  0  0  0.119251  0  1.02913  0  0  0.101621  0.112172  0  1.034518  0
H  H29  1  0.87807502  0.09338342  0.32934388  1  0  0.108762  0  0.964109  0  0  0.115121  0  1.032124  0  0  0.11921  0  1.029172  0  0  0.101621  0.112085  0  1.034612  0
H  H30  1  0.30385024  0.99230914  0.55006092  1  0  0.114503  0  0.940826  0  0  0.122879  0  1.002157  0  0  0.127323  0  0.998456  0  0  0.105875  0.119723  0  1.004811  0
H  H31  1  0.69613884  0.00768707  0.44992358  1  0  0.114557  0  0.940844  0  0  0.122946  0  1.002155  0  0  0.127389  0  0.998455  0  0  0.105922  0.119789  0  1.004812  0
C  C32  1  0.20547033  0.95223022  0.99153171  1  0  0.129517  0  3.703098  0  0  0.100719  0  3.953604  0  0  0.10643  0  3.972982  0  0  0.045744  0.096775  0  3.940582  0
C  C33  1  0.79452737  0.04777509  0.00848118  1  0  0.129325  0  3.703265  0  0  0.10058  0  3.953753  0  0  0.106294  0  3.973135  0  0  0.045651  0.096634  0  3.940734  0
C  C34  1  0.14903567  0.83108531  0.92937457  1  0  -0.126751  0  3.663387  0  0  -0.149997  0  3.91374  0  0  -0.155271  0  3.931915  0  0  -0.075898  -0.146991  0  3.902326  0
C  C35  1  0.85094265  0.16891768  0.07063758  1  0  -0.12662  0  3.663274  0  0  -0.149826  0  3.913636  0  0  -0.155094  0  3.931807  0  0  -0.075821  -0.146822  0  3.902222  0
C  C36  1  0.96040096  0.44524150  0.78430279  1  0  0.104619  0  3.594545  0  0  0.06059  0  3.84419  0  0  0.068888  0  3.859839  0  0  0.073871  0.055246  0  3.833375  0
C  C37  1  0.03958049  0.55474025  0.21567951  1  0  0.104854  0  3.594807  0  0  0.060684  0  3.844485  0  0  0.068985  0  3.860143  0  0  0.073951  0.055349  0  3.83365  0
C  C38  1  0.30005090  0.55054787  0.87783691  1  0  -0.129085  0  3.665519  0  0  -0.14784  0  3.918425  0  0  -0.156192  0  3.937143  0  0  -0.066746  -0.14266  0  3.905798  0
C  C39  1  0.69994364  0.44947208  0.12216828  1  0  -0.129241  0  3.665994  0  0  -0.148018  0  3.918842  0  0  -0.156364  0  3.937507  0  0  -0.066862  -0.142829  0  3.906216  0
C  C40  1  0.18381175  0.61881175  0.90173003  1  0  0.132551  0  3.691195  0  0  0.136483  0  3.928913  0  0  0.143482  0  3.947743  0  0  0.035179  0.131995  0  3.91572  0
C  C41  1  0.81616293  0.38118666  0.09826589  1  0  0.132625  0  3.690937  0  0  0.136717  0  3.92852  0  0  0.143732  0  3.947343  0  0  0.035264  0.132213  0  3.915348  0
C  C42  1  0.01839759  0.25477736  0.69119782  1  0  -0.1934  0  3.591871  0  0  -0.303856  0  3.84599  0  0  -0.301709  0  3.856283  0  0  -0.12231  -0.305096  0  3.839288  0
C  C43  1  0.98162295  0.74522560  0.30880876  1  0  -0.193461  0  3.592041  0  0  -0.304039  0  3.846147  0  0  -0.301891  0  3.856446  0  0  -0.122243  -0.30528  0  3.839433  0
C  C44  1  0.01087187  0.56323512  0.85340244  1  0  -0.135082  0  3.669541  0  0  -0.154538  0  3.923649  0  0  -0.162786  0  3.943119  0  0  -0.066546  -0.148904  0  3.909989  0
C  C45  1  0.98911151  0.43677042  0.14659552  1  0  -0.13525  0  3.669833  0  0  -0.154812  0  3.924134  0  0  -0.163075  0  3.943607  0  0  -0.066664  -0.149173  0  3.910467  0
C  C46  1  0.23893829  0.74700127  0.97011900  1  0  0.086986  0  3.750084  0  0  0.100741  0  3.981585  0  0  0.102977  0  4.002936  0  0  0.011901  0.099307  0  3.967077  0
C  C47  1  0.76104098  0.25300077  0.02989145  1  0  0.086932  0  3.750118  0  0  0.100573  0  3.981774  0  0  0.102804  0  4.003125  0  0  0.011949  0.099143  0  3.967273  0
C  C48  1  0.42690348  0.91205901  0.13213699  1  0  0.140915  0  3.698898  0  0  0.108199  0  3.9541  0  0  0.115416  0  3.972683  0  0  0.050088  0.103327  0  3.941689  0
C  C49  1  0.57309963  0.08793973  0.86786371  1  0  0.140962  0  3.698785  0  0  0.108254  0  3.954004  0  0  0.115468  0  3.972589  0  0  0.050138  0.103388  0  3.941584  0
C  C50  1  0.38176286  0.78939356  0.07314691  1  0  -0.157101  0  3.720221  0  0  -0.17637  0  3.968906  0  0  -0.183177  0  3.989468  0  0  -0.083845  -0.171846  0  3.954979  0
C  C51  1  0.61822173  0.21060193  0.92685481  1  0  -0.156955  0  3.720151  0  0  -0.176303  0  3.968855  0  0  -0.183109  0  3.98942  0  0  -0.083889  -0.171783  0  3.954933  0
C  C52  1  0.24233749  0.43344171  0.80604991  1  0  0.119815  0  3.594344  0  0  0.072732  0  3.851044  0  0  0.082746  0  3.863678  0  0  0.071381  0.066079  0  3.842439  0
C  C53  1  0.75765600  0.56655719  0.19394372  1  0  0.120047  0  3.594724  0  0  0.072886  0  3.851297  0  0  0.082905  0  3.863947  0  0  0.071455  0.066225  0  3.842695  0
C  C54  1  0.84641824  0.42033541  0.42995905  1  0  -0.06326  0  3.769236  0  0  -0.041426  0  4.004778  0  0  -0.048064  0  4.027982  0  0  -0.025008  -0.037043  0  3.988914  0
C  C55  1  0.15359139  0.57966139  0.57004869  1  0  -0.063125  0  3.769257  0  0  -0.04133  0  4.004857  0  0  -0.047936  0  4.028018  0  0  -0.025005  -0.036947  0  3.988984  0
C  C56  1  0.84755500  0.53263672  0.50250936  1  0  -0.092976  0  3.740145  0  0  -0.116422  0  3.992132  0  0  -0.117761  0  4.011783  0  0  -0.093447  -0.115192  0  3.978426  0
C  C57  1  0.15246042  0.46735906  0.49749935  1  0  -0.093294  0  3.740114  0  0  -0.116711  0  3.992097  0  0  -0.118068  0  4.011756  0  0  -0.09353  -0.115473  0  3.978381  0
C  C58  1  0.99982550  0.38810754  0.42804801  1  0  -0.089531  0  3.741421  0  0  -0.111423  0  3.994643  0  0  -0.112748  0  4.015814  0  0  -0.093133  -0.11041  0  3.980475  0
C  C59  1  0.00018936  0.61189007  0.57196002  1  0  -0.089705  0  3.741945  0  0  -0.111615  0  3.995159  0  0  -0.112938  0  4.016325  0  0  -0.093197  -0.110597  0  3.980992  0
C  C60  1  0.68188342  0.33769313  0.35148923  1  0  0.604636  0  3.966945  0  0  0.559382  0  4.252745  0  0  0.593185  0  4.249065  0  0  0.176851  0.53657  0  4.254164  0
C  C61  1  0.31813760  0.66230435  0.64851826  1  0  0.604745  0  3.966716  0  0  0.55947  0  4.252564  0  0  0.593263  0  4.248876  0  0  0.176926  0.536657  0  4.25398  0
C  C62  1  0.06918871  0.94847805  0.59661280  1  0  -0.088285  0  3.735377  0  0  -0.111259  0  3.986357  0  0  -0.112079  0  4.00578  0  0  -0.088602  -0.110472  0  3.973185  0
C  C63  1  0.93080190  0.05151904  0.40337215  1  0  -0.087979  0  3.73548  0  0  -0.110978  0  3.986396  0  0  -0.111794  0  4.00581  0  0  -0.08848  -0.110151  0  3.973244  0
C  C64  1  0.10243539  0.04793537  0.43283451  1  0  -0.061329  0  3.763934  0  0  -0.03612  0  3.990432  0  0  -0.0424  0  4.01257  0  0  -0.021747  -0.031862  0  3.975234  0
C  C65  1  0.89755551  0.95205897  0.56714917  1  0  -0.061321  0  3.764015  0  0  -0.036091  0  3.990489  0  0  -0.042373  0  4.012626  0  0  -0.021704  -0.031828  0  3.975292  0
C  C66  1  0.17091437  0.99606548  0.52984431  1  0  -0.092554  0  3.738336  0  0  -0.112474  0  3.984147  0  0  -0.113529  0  4.00333  0  0  -0.088799  -0.11156  0  3.970845  0
C  C67  1  0.82907468  0.00393073  0.47014106  1  0  -0.092712  0  3.738603  0  0  -0.112666  0  3.984452  0  0  -0.11372  0  4.003639  0  0  -0.08887  -0.111752  0  3.971136  0
C  C68  1  0.21309787  0.09719599  0.36053341  1  0  0.614493  0  3.948697  0  0  0.569727  0  4.233362  0  0  0.603516  0  4.228393  0  0  0.184045  0.546879  0  4.235474  0
C  C69  1  0.78690066  0.90279911  0.63945277  1  0  0.614412  0  3.948908  0  0  0.569652  0  4.23357  0  0  0.603441  0  4.228602  0  0  0.184045  0.546811  0  4.235668  0
Br  Br70  1  0.25767753  0.27692080  0.01384936  1  0  -0.612786  0  0.918683  0  0  -0.561337  0  1.195475  0  0  -0.581594  0  1.174598  0  0  -0.294926  -0.547173  0  1.209423  0
Br  Br71  1  0.74231548  0.72308090  0.98615246  1  0  -0.612767  0  0.918608  0  0  -0.561321  0  1.195373  0  0  -0.581574  0  1.174491  0  0  -0.294915  -0.547158  0  1.209321  0
N  N72  1  0.34065420  0.99220715  0.09170289  1  0  -0.319694  0  3.264952  0  0  -0.244287  0  3.529275  0  0  -0.264538  0  3.549847  0  0  -0.324521  -0.23054  0  3.515349  0
N  N73  1  0.65935446  0.00779330  0.90829833  1  0  -0.319746  0  3.264952  0  0  -0.244354  0  3.52926  0  0  -0.264601  0  3.549828  0  0  -0.324543  -0.230603  0  3.515327  0
N  N74  1  0.07511171  0.38221572  0.76016578  1  0  0.027228  0  3.576992  0  0  0.129411  0  3.788208  0  0  0.116667  0  3.814456  0  0  -0.212602  0.137661  0  3.770611  0
N  N75  1  0.92489403  0.61779393  0.23983728  1  0  0.027107  0  3.576637  0  0  0.129652  0  3.787495  0  0  0.116902  0  3.813747  0  0  -0.212552  0.137901  0  3.769902  0
O  O76  1  0.68383367  0.23501125  0.28756029  1  0  -0.626904  0  1.946193  0  0  -0.562365  0  2.181324  0  0  -0.592367  0  2.174998  0  0  -0.330592  -0.541223  0  2.18484  0
O  O77  1  0.31618450  0.76499174  0.71244323  1  0  -0.626989  0  1.946075  0  0  -0.562428  0  2.181203  0  0  -0.592427  0  2.17488  0  0  -0.330626  -0.541286  0  2.184725  0
O  O78  1  0.54604040  0.37423047  0.34856659  1  0  -0.63277  0  1.923946  0  0  -0.57304  0  2.145902  0  0  -0.601147  0  2.136182  0  0  -0.344746  -0.553285  0  2.151779  0
O  O79  1  0.45397806  0.62576341  0.65144152  1  0  -0.632821  0  1.923811  0  0  -0.573077  0  2.145757  0  0  -0.601189  0  2.136058  0  0  -0.344796  -0.553327  0  2.151635  0
O  O80  1  0.35802180  0.07482803  0.37435187  1  0  -0.619209  0  1.902057  0  0  -0.568811  0  2.120834  0  0  -0.594443  0  2.11143  0  0  -0.338721  -0.550644  0  2.126472  0
O  O81  1  0.64198019  0.92517070  0.62564514  1  0  -0.619214  0  1.902055  0  0  -0.568821  0  2.120839  0  0  -0.594449  0  2.111427  0  0  -0.33877  -0.550662  0  2.126476  0
O  O82  1  0.15306447  0.16033751  0.28540315  1  0  -0.645514  0  1.985793  0  0  -0.576186  0  2.224153  0  0  -0.606336  0  2.214818  0  0  -0.338083  -0.554439  0  2.229417  0
O  O83  1  0.84693254  0.83965303  0.71457849  1  0  -0.645397  0  1.985972  0  0  -0.576093  0  2.224352  0  0  -0.606243  0  2.215016  0  0  -0.338053  -0.554355  0  2.22962  0
