# generated using pymatgen
data_MnH16C8(N6O)2
_symmetry_space_group_name_H-M   'P 1'
_cell_length_a   5.41256476
_cell_length_b   11.76364695
_cell_length_c   11.78189135
_cell_angle_alpha   89.65623648
_cell_angle_beta   101.95851333
_cell_angle_gamma   90.22088795
_symmetry_Int_Tables_number   1
_chemical_formula_structural   MnH16C8(N6O)2
_chemical_formula_sum   'Mn2 H32 C16 N24 O4'
_cell_volume   733.87459316
_cell_formula_units_Z   2
loop_
 _symmetry_equiv_pos_site_id
 _symmetry_equiv_pos_as_xyz
  1  'x, y, z'
loop_
 _atom_site_type_symbol
 _atom_site_label
 _atom_site_symmetry_multiplicity
 _atom_site_fract_x
 _atom_site_fract_y
 _atom_site_fract_z
 _atom_site_occupancy
 _atom_site_hle17_ddec_charge
 _atom_site_hle17_ddec_spin_density
 _atom_site_hle17_ddec_sum_bond_order
 _atom_site_hle17_magmom
 _atom_site_hse06_10hf_ddec_charge
 _atom_site_hse06_10hf_ddec_spin_density
 _atom_site_hse06_10hf_ddec_sum_bond_order
 _atom_site_hse06_10hf_magmom
 _atom_site_hse06_ddec_charge
 _atom_site_hse06_ddec_spin_density
 _atom_site_hse06_ddec_sum_bond_order
 _atom_site_hse06_magmom
 _atom_site_pbe_cm5_charge
 _atom_site_pbe_ddec_charge
 _atom_site_pbe_ddec_spin_density
 _atom_site_pbe_ddec_sum_bond_order
 _atom_site_pbe_magmom
Mn  Mn0  1  0.00000204  0.49999742  0.50000242  1  0.770299  -0.973656  2.788816  -1.001  0.679431  -1.054352  3.347676  -1.026  0.729032  -1.025519  3.279169  -1.006  0.631579  0.648102  -1.071412  3.390272  -1.035
Mn  Mn1  1  0.00000379  0.00000170  0.00000037  1  1.094472  -4.840466  1.964033  -4.643  0.937195  -4.701377  2.479345  -4.493  0.98901  -4.770364  2.414657  -4.564  0.614169  0.895898  -4.637446  2.527365  -4.422
H  H2  1  0.28147188  0.28878519  0.66099551  1  0.103318  -0.000349  0.953656  0.0  0.106123  -0.000228  1.026494  0.0  0.109503  -0.000202  1.022026  0.0  0.133993  0.103389  -0.000287  1.030217  0.0
H  H3  1  0.72783749  0.77535603  0.83004844  1  0.097505  0.000219  0.954976  0.0  0.102225  0.00063  1.027548  0.0  0.104716  0.000708  1.024468  0.0  0.133226  0.100319  0.000549  1.029828  0.0
H  H4  1  0.71853235  0.71121671  0.33901068  1  0.103232  -0.000348  0.953664  0.0  0.106042  -0.000228  1.026489  0.0  0.10942  -0.000202  1.022023  0.0  0.133992  0.103315  -0.000286  1.030197  0.0
H  H5  1  0.27216691  0.22465013  0.16995182  1  0.097566  0.000219  0.954932  0.0  0.102191  0.000631  1.027614  0.0  0.104685  0.000709  1.024531  0.0  0.133218  0.100288  0.000549  1.029891  0.0
H  H6  1  0.66721181  0.48899396  0.70750265  1  0.1008  0.000115  0.988066  0.0  0.105085  0.000244  1.061798  0.0  0.108164  0.000115  1.057577  0.0  0.145267  0.102418  0.000356  1.065566  0.0
H  H7  1  0.35716283  0.96887923  0.78741753  1  0.101648  0.000567  0.97579  0.0  0.106864  0.000362  1.047065  0.0  0.108698  0.000434  1.04518  0.0  0.145301  0.105502  0.000283  1.048362  0.0
H  H8  1  0.33276619  0.51100033  0.29248991  1  0.100771  0.000115  0.988175  0.0  0.105092  0.000243  1.061877  0.0  0.108171  0.000116  1.057654  0.0  0.145285  0.102426  0.000356  1.065645  0.0
H  H9  1  0.64284361  0.03112184  0.21257531  1  0.10169  0.000567  0.975856  0.0  0.106906  0.000361  1.047141  0.0  0.108739  0.000434  1.045258  0.0  0.145335  0.105543  0.000283  1.048436  0.0
H  H10  1  0.78843494  0.28218373  0.95270734  1  0.092189  0.000665  0.938551  0.0  0.104759  0.000492  1.003887  0.0  0.106141  0.000542  1.003475  0.0  0.116466  0.103666  0.000443  1.004247  0.0
H  H11  1  0.19891101  0.77861243  0.52917245  1  0.09791  0.000212  0.939496  0.0  0.108749  0.000145  1.006239  0.0  0.110051  0.000138  1.005683  0.0  0.118859  0.107603  0.000148  1.006858  0.0
H  H12  1  0.21154664  0.71781223  0.04729405  1  0.092219  0.000665  0.938672  0.0  0.104762  0.000492  1.003991  0.0  0.106142  0.000542  1.003579  0.0  0.116479  0.103672  0.000443  1.004348  0.0
H  H13  1  0.80108766  0.22138268  0.47082641  1  0.09802  0.000211  0.939427  0.0  0.108807  0.000145  1.006223  0.0  0.110116  0.000138  1.00565  0.0  0.118854  0.107649  0.000148  1.006857  0.0
H  H14  1  0.62114109  0.40939675  0.90475855  1  0.086063  -0.000197  0.916805  0.0  0.099826  5.5e-05  0.982841  0.0  0.100637  4.1e-05  0.982736  0.0  0.115065  0.099124  6e-05  0.98302  0.0
H  H15  1  0.37805280  0.90163357  0.58022460  1  0.087101  -3.7e-05  0.913302  0.0  0.101373  -0.000135  0.977896  0.0  0.101969  -9.4e-05  0.977894  0.0  0.115565  0.100862  -0.000181  0.977963  0.0
H  H16  1  0.37884631  0.59060008  0.09523749  1  0.086104  -0.000197  0.916601  0.0  0.099819  5.5e-05  0.982648  0.0  0.100627  4.2e-05  0.982544  0.0  0.115048  0.099116  6e-05  0.98283  0.0
H  H17  1  0.62196302  0.09836750  0.41977172  1  0.087149  -3.7e-05  0.913266  0.0  0.101371  -0.000135  0.977903  0.0  0.101964  -9.4e-05  0.977908  0.0  0.115555  0.100861  -0.000181  0.977967  0.0
H  H18  1  0.17945983  0.39801566  0.03107589  1  0.07724  8e-05  0.94136  0.0  0.093558  0.000105  1.005515  0.0  0.094802  8.7e-05  1.004879  0.0  0.092011  0.092445  0.000112  1.00625  0.0
H  H19  1  0.80999805  0.90136441  0.46866279  1  0.07575  -0.000115  0.947278  0.0  0.091166  -0.000278  1.014457  0.0  0.092394  -0.00022  1.013914  0.0  0.090756  0.090181  -0.000352  1.014942  0.0
H  H20  1  0.82051421  0.60198965  0.96892727  1  0.077413  7.9e-05  0.941132  0.0  0.093631  0.000105  1.005416  0.0  0.094876  8.6e-05  1.004791  0.0  0.092001  0.092553  0.000112  1.006111  0.0
H  H21  1  0.19000825  0.09863240  0.53133429  1  0.075723  -0.000115  0.947371  0.0  0.091155  -0.000278  1.014535  0.0  0.09238  -0.00022  1.013996  0.0  0.09077  0.090177  -0.000352  1.015026  0.0
H  H22  1  0.92104958  0.42768204  0.09658166  1  0.076363  0.000112  0.969154  0.0  0.088635  0.000494  1.04025  0.0  0.08931  0.000464  1.041252  0.0  0.088993  0.088117  0.000506  1.039507  0.0
H  H23  1  0.05586811  0.93317642  0.39570758  1  0.074754  -0.000356  0.971123  0.0  0.088273  -0.000566  1.040409  0.0  0.088588  -0.000459  1.041651  0.0  0.089403  0.088005  -0.000688  1.039588  0.0
H  H24  1  0.07890937  0.57232158  0.90341830  1  0.076287  0.000112  0.969254  0.0  0.088621  0.000494  1.040283  0.0  0.089301  0.000464  1.041283  0.0  0.089017  0.088102  0.000506  1.039545  0.0
H  H25  1  0.94413253  0.06681870  0.60428809  1  0.074769  -0.000356  0.971209  0.0  0.088314  -0.000566  1.040476  0.0  0.088631  -0.000459  1.041716  0.0  0.089416  0.08805  -0.000688  1.039657  0.0
H  H26  1  0.42674351  0.39967650  0.45446152  1  0.391871  3e-06  0.904833  -0.001  0.364896  0.000135  0.979574  0.0  0.373482  0.000203  0.967784  0.0  0.296932  0.358805  0.000243  0.985619  0.0
H  H27  1  0.56635559  0.88874877  0.05269142  1  0.39769  0.000978  0.916647  -0.001  0.367247  6.2e-05  0.981262  -0.002  0.376953  0.000543  0.967585  -0.002  0.287295  0.360301  -0.000376  0.991012  -0.002
H  H28  1  0.57325703  0.60032370  0.54554006  1  0.391834  3e-06  0.904901  -0.001  0.364878  0.000135  0.979596  0.0  0.373464  0.000203  0.967807  0.0  0.296934  0.358784  0.000243  0.985653  0.0
H  H29  1  0.43364692  0.11125144  0.94730697  1  0.397665  0.000978  0.916682  -0.001  0.367229  6.2e-05  0.981286  -0.002  0.376933  0.000543  0.96761  -0.002  0.287289  0.360282  -0.000376  0.991038  -0.002
H  H30  1  0.19204530  0.31676918  0.41359592  1  0.379789  -0.000231  0.932108  -0.001  0.33996  0.000279  1.020853  -0.001  0.350337  0.000285  1.0065  -0.001  0.292263  0.332774  0.000157  1.030686  -0.001
H  H31  1  0.80003068  0.80791809  0.09277419  1  0.38335  9.2e-05  0.938476  -0.001  0.341654  -0.00058  1.021157  -0.002  0.352606  -0.000334  1.005601  -0.001  0.283507  0.333937  -0.000804  1.03204  -0.002
H  H32  1  0.80796094  0.68323018  0.58640454  1  0.379971  -0.00023  0.93187  -0.001  0.340124  0.000279  1.020643  -0.001  0.350501  0.000285  1.006289  -0.001  0.292371  0.332938  0.000157  1.030475  -0.001
H  H33  1  0.19997367  0.19208806  0.90722861  1  0.3833  9.2e-05  0.938522  -0.001  0.341613  -0.000581  1.021196  -0.002  0.352567  -0.000334  1.005637  -0.001  0.2835  0.333898  -0.000804  1.032078  -0.002
C  C34  1  0.13483503  0.32720819  0.69828451  1  0.201861  0.006803  3.646928  0.004  0.142883  0.002941  3.939653  0.001  0.15706  0.001717  3.949559  0.0  0.148768  0.132926  0.003606  3.9336  0.001
C  C35  1  0.87621361  0.81353658  0.79274051  1  0.211604  -0.001921  3.681122  -0.003  0.154056  -0.003247  3.970519  -0.004  0.16543  -0.002568  3.984227  -0.003  0.154603  0.146623  -0.003967  3.961021  -0.004
C  C36  1  0.86516915  0.67279370  0.30172337  1  0.202028  0.006799  3.646765  0.004  0.143055  0.002941  3.939466  0.001  0.15723  0.001721  3.949377  0.0  0.148834  0.133099  0.003606  3.933404  0.001
C  C37  1  0.12380017  0.18646447  0.20726155  1  0.211739  -0.00192  3.68101  -0.003  0.154216  -0.003248  3.970402  -0.004  0.165592  -0.002568  3.984105  -0.003  0.154693  0.146785  -0.003967  3.960907  -0.004
C  C38  1  0.82204929  0.42969474  0.71883982  1  0.166492  0.003844  3.594669  0.001  0.085182  0.008174  3.867786  0.004  0.104023  0.004632  3.874331  0.002  0.161347  0.071986  0.010723  3.86424  0.005
C  C39  1  0.19499776  0.91263035  0.77324767  1  0.179226  -0.003241  3.632181  -0.004  0.10392  -0.005033  3.90004  -0.005  0.118263  -0.004096  3.911625  -0.004  0.172155  0.094625  -0.006018  3.891863  -0.006
C  C40  1  0.17793797  0.57030037  0.28116130  1  0.16645  0.003844  3.594831  0.001  0.085116  0.008173  3.867891  0.004  0.103954  0.00463  3.874437  0.002  0.161282  0.071916  0.010721  3.864345  0.005
C  C41  1  0.80500676  0.08737412  0.22674751  1  0.179241  -0.003242  3.632408  -0.004  0.103888  -0.005034  3.900256  -0.005  0.118229  -0.004097  3.911845  -0.004  0.172115  0.094595  -0.006019  3.892076  -0.006
C  C42  1  0.80905004  0.37005968  0.92418921  1  -0.009569  -0.00028  3.60322  0.0  -0.083688  0.000211  3.861329  0.0  -0.080151  0.00024  3.871526  0.0  -0.047467  -0.085689  0.000166  3.854235  0.0
C  C43  1  0.18750402  0.86456735  0.56320218  1  -0.014654  -0.00028  3.609498  0.0  -0.087507  -0.000615  3.868869  -0.001  -0.083598  -0.000471  3.878858  0.0  -0.04829  -0.089801  -0.00077  3.861974  -0.001
C  C44  1  0.19093728  0.62994053  0.07581105  1  -0.009774  -0.00028  3.603319  0.0  -0.083721  0.000212  3.861215  0.0  -0.080177  0.000237  3.871421  0.0  -0.047483  -0.085735  0.000166  3.854137  0.0
C  C45  1  0.81251170  0.13543116  0.43679754  1  -0.01466  -0.00028  3.609487  0.0  -0.087456  -0.000615  3.868856  -0.001  -0.083544  -0.000471  3.878845  0.0  -0.048255  -0.089737  -0.00077  3.861974  -0.001
C  C46  1  0.99114090  0.43736476  0.01578417  1  -0.138367  0.000341  3.692685  0.0  -0.180392  0.000445  3.957548  0.0  -0.182318  0.000348  3.971765  0.0  -0.17104  -0.178617  0.000518  3.94727  0.0
C  C47  1  0.00056788  0.93849830  0.48009204  1  -0.139548  -0.000637  3.700993  -0.001  -0.184399  -0.001205  3.968667  -0.001  -0.186381  -0.000978  3.983406  -0.001  -0.173293  -0.182651  -0.001461  3.958026  -0.001
C  C48  1  0.00882173  0.56263630  0.98421956  1  -0.138557  0.000343  3.692764  0.0  -0.180635  0.000445  3.957623  0.0  -0.182589  0.000348  3.971859  0.0  -0.171133  -0.178889  0.000518  3.94734  0.0
C  C49  1  0.99943268  0.06149681  0.51990701  1  -0.139601  -0.000637  3.701123  -0.001  -0.184454  -0.001206  3.968748  -0.001  -0.186459  -0.000981  3.983524  -0.001  -0.173311  -0.182676  -0.001461  3.958005  -0.001
N  N50  1  0.89562276  0.36555625  0.81451044  1  0.048103  0.000117  3.559568  0.0  0.163736  0.001354  3.748954  0.001  0.153515  0.000469  3.772445  0.0  -0.133296  0.169157  0.002058  3.735447  0.001
N  N51  1  0.11246067  0.85415471  0.67523027  1  0.04778  -0.000575  3.549461  -0.001  0.163928  -0.001482  3.734424  -0.001  0.153356  -0.001077  3.758959  -0.001  -0.131151  0.1696  -0.001852  3.720067  -0.002
N  N52  1  0.10436268  0.63444312  0.18548878  1  0.048192  0.000116  3.559367  0.0  0.163793  0.001354  3.748685  0.001  0.153579  0.000471  3.772162  0.0  -0.133301  0.169217  0.002058  3.735178  0.001
N  N53  1  0.88754378  0.14584636  0.32476661  1  0.047721  -0.000576  3.549419  -0.001  0.163885  -0.001481  3.73437  -0.001  0.153319  -0.001076  3.758891  -0.001  -0.131178  0.169558  -0.001852  3.72001  -0.002
N  N54  1  0.09478235  0.30013547  0.80279882  1  -0.283378  -0.000253  2.965083  -0.001  -0.259054  -0.001388  3.221834  -0.002  -0.27004  -0.001172  3.234911  -0.002  -0.209097  -0.251613  -0.001429  3.213585  -0.002
N  N55  1  0.90768719  0.79072950  0.68614499  1  -0.280385  -0.000304  2.95616  0.0  -0.254915  -0.000885  3.210867  -0.001  -0.265466  -0.000438  3.224888  -0.001  -0.208067  -0.24787  -0.001307  3.201824  -0.001
N  N56  1  0.90521242  0.69986557  0.19720643  1  -0.283425  -0.000253  2.964937  -0.001  -0.259076  -0.001388  3.221644  -0.002  -0.270064  -0.001174  3.234726  -0.002  -0.209095  -0.251636  -0.001429  3.213391  -0.002
N  N57  1  0.09232283  0.20926901  0.31385501  1  -0.280427  -0.000304  2.956019  0.0  -0.254914  -0.000885  3.210662  -0.001  -0.265464  -0.000439  3.224674  -0.001  -0.20809  -0.247873  -0.001307  3.201623  -0.001
N  N58  1  0.97096289  0.40850520  0.64305225  1  -0.340199  0.008952  3.276786  0.008  -0.281458  0.006587  3.586769  0.008  -0.303157  0.004614  3.595565  0.007  -0.353406  -0.267238  0.008181  3.579573  0.01
N  N59  1  0.04937419  0.88932618  0.84944824  1  -0.404095  -0.026245  3.165562  -0.013  -0.338884  -0.03165  3.463038  -0.015  -0.360855  -0.028841  3.475121  -0.013  -0.330627  -0.323021  -0.034208  3.454099  -0.017
N  N60  1  0.02904140  0.59149415  0.35695056  1  -0.340244  0.008953  3.276768  0.008  -0.281526  0.006587  3.586767  0.008  -0.303222  0.004615  3.595564  0.007  -0.353453  -0.267308  0.00818  3.579577  0.01
N  N61  1  0.95063405  0.11067744  0.15054902  1  -0.404397  -0.026252  3.165838  -0.013  -0.339102  -0.031655  3.463276  -0.015  -0.361076  -0.028844  3.475364  -0.013  -0.330722  -0.323237  -0.034213  3.454336  -0.017
N  N62  1  0.29084058  0.58678697  0.59790507  1  -0.534312  0.018183  2.826358  0.014  -0.518856  -0.001091  3.143793  0.0  -0.540263  -0.004781  3.144884  -0.002  -0.306296  -0.504587  0.00125  3.142142  0.002
N  N63  1  0.69464052  0.08614748  0.88636936  1  -0.61034  -0.003002  2.743505  0.01  -0.571985  -0.012557  3.038632  0.007  -0.595929  -0.002897  3.041653  0.013  -0.298037  -0.554465  -0.020137  3.036588  0.001
N  N64  1  0.70916367  0.41321068  0.40209860  1  -0.534297  0.018179  2.82663  0.014  -0.518783  -0.001091  3.144023  0.0  -0.540182  -0.004786  3.145109  -0.002  -0.306273  -0.504516  0.00125  3.14237  0.002
N  N65  1  0.30536401  0.91385529  0.11362498  1  -0.610501  -0.003041  2.742478  0.01  -0.572203  -0.012572  3.037707  0.007  -0.596142  -0.002913  3.040684  0.013  -0.298151  -0.554675  -0.020152  3.035669  0.001
N  N66  1  0.33778953  0.60450420  0.70106217  1  0.369531  -0.000363  4.197226  -0.001  0.404615  0.003411  4.496565  0.002  0.419926  0.001138  4.527132  -0.001  0.070154  0.394274  0.004831  4.475134  0.003
N  N67  1  0.65306540  0.10878383  0.78435534  1  0.386531  0.001141  4.237454  -0.001  0.416694  -0.00886  4.530754  -0.01  0.432186  -0.004382  4.560064  -0.006  0.074671  0.406051  -0.012675  4.510406  -0.013
N  N68  1  0.66221463  0.39549599  0.29894572  1  0.369457  -0.000363  4.197278  -0.001  0.404522  0.003412  4.496652  0.002  0.419835  0.001138  4.527216  -0.001  0.070096  0.39418  0.004834  4.475223  0.003
N  N69  1  0.34694256  0.89121636  0.21565208  1  0.38664  0.001124  4.237221  -0.001  0.416798  -0.00887  4.530521  -0.01  0.43229  -0.004394  4.559833  -0.006  0.074728  0.406153  -0.012684  4.510174  -0.013
N  N70  1  0.39691707  0.62408582  0.80067358  1  -0.409977  -0.00929  2.387882  -0.012  -0.414188  0.017124  2.625031  0.01  -0.422981  0.0211  2.636341  0.013  -0.205476  -0.407144  0.013473  2.616841  0.008
N  N71  1  0.60616712  0.13061586  0.68501304  1  -0.407306  -0.050524  2.39858  -0.05  -0.408991  -0.050191  2.634903  -0.046  -0.415633  -0.048096  2.644591  -0.045  -0.204327  -0.404206  -0.054505  2.628375  -0.049
N  N72  1  0.60307582  0.37591098  0.19932979  1  -0.409964  -0.009286  2.387737  -0.012  -0.414161  0.017127  2.624885  0.01  -0.422977  0.02111  2.63622  0.013  -0.205448  -0.407114  0.013476  2.61669  0.008
N  N73  1  0.39383556  0.86938692  0.31497942  1  -0.407229  -0.050489  2.399407  -0.05  -0.40885  -0.050174  2.635702  -0.046  -0.415483  -0.048075  2.645389  -0.045  -0.204213  -0.404066  -0.054489  2.629174  -0.049
O  O74  1  0.25499661  0.38024789  0.46872152  1  -0.768337  -0.006311  2.081061  -0.001  -0.705983  -0.004792  2.31706  -0.001  -0.737211  -0.002445  2.290385  0.001  -0.554473  -0.682494  -0.007639  2.332243  -0.003
O  O75  1  0.73423967  0.86889746  0.03498144  1  -0.826237  -0.030838  1.953635  -0.019  -0.763331  -0.040598  2.169244  -0.026  -0.787047  -0.036324  2.136395  -0.022  -0.575075  -0.745221  -0.044577  2.192009  -0.029
O  O76  1  0.74500578  0.61975061  0.53128110  1  -0.76849  -0.006311  2.080834  -0.001  -0.706122  -0.00479  2.316842  -0.001  -0.737351  -0.002444  2.290161  0.001  -0.554601  -0.682648  -0.007637  2.332065  -0.003
O  O77  1  0.26576659  0.13110530  0.96501902  1  -0.826154  -0.030835  1.953681  -0.019  -0.763226  -0.040594  2.169215  -0.026  -0.786938  -0.03632  2.136368  -0.022  -0.575032  -0.745116  -0.044571  2.191977  -0.029
