# generated using pymatgen
data_ZnH9C12(NO)4
_symmetry_space_group_name_H-M   'P 1'
_cell_length_a   11.22577703
_cell_length_b   11.22578668
_cell_length_c   11.61613658
_cell_angle_alpha   73.46469188
_cell_angle_beta   73.46497168
_cell_angle_gamma   61.49951897
_symmetry_Int_Tables_number   1
_chemical_formula_structural   ZnH9C12(NO)4
_chemical_formula_sum   'Zn4 H36 C48 N16 O16'
_cell_volume   1213.85633644
_cell_formula_units_Z   4
loop_
 _symmetry_equiv_pos_site_id
 _symmetry_equiv_pos_as_xyz
  1  'x, y, z'
loop_
 _atom_site_type_symbol
 _atom_site_label
 _atom_site_symmetry_multiplicity
 _atom_site_fract_x
 _atom_site_fract_y
 _atom_site_fract_z
 _atom_site_occupancy
 _atom_site_hle17_bader_spin_density
 _atom_site_hle17_ddec_charge
 _atom_site_hle17_ddec_spin_density
 _atom_site_hle17_ddec_sum_bond_order
 _atom_site_hle17_magmom
 _atom_site_hse06_10hf_bader_spin_density
 _atom_site_hse06_10hf_ddec_charge
 _atom_site_hse06_10hf_ddec_spin_density
 _atom_site_hse06_10hf_ddec_sum_bond_order
 _atom_site_hse06_10hf_magmom
 _atom_site_hse06_bader_spin_density
 _atom_site_hse06_ddec_charge
 _atom_site_hse06_ddec_spin_density
 _atom_site_hse06_ddec_sum_bond_order
 _atom_site_hse06_magmom
 _atom_site_pbe_bader_spin_density
 _atom_site_pbe_cm5_charge
 _atom_site_pbe_ddec_charge
 _atom_site_pbe_ddec_spin_density
 _atom_site_pbe_ddec_sum_bond_order
 _atom_site_pbe_magmom
Zn  Zn0  1  0.33452131  0.07945660  0.33818709  1  0  0.948262  0  1.912576  0  0  0.756484  0  2.371247  0  0  0.799599  0  2.325083  0  0  0.724385  0.726543  0  2.402639  0
Zn  Zn1  1  0.92054291  0.66547657  0.16181200  1  0  0.948268  0  1.912579  0  0  0.75652  0  2.371216  0  0  0.799633  0  2.325053  0  0  0.724396  0.726582  0  2.40261  0
Zn  Zn2  1  0.66547516  0.92054567  0.66181883  1  0  0.948237  0  1.912336  0  0  0.756433  0  2.370979  0  0  0.799558  0  2.32481  0  0  0.724342  0.726488  0  2.402366  0
Zn  Zn3  1  0.07945306  0.33452463  0.83818488  1  0  0.948245  0  1.912718  0  0  0.7565  0  2.371387  0  0  0.799613  0  2.325224  0  0  0.724402  0.726563  0  2.402779  0
H  H4  1  0.69019329  0.91906982  0.32954332  1  0  0.09387  0  0.933722  0  0  0.102979  0  0.997122  0  0  0.105185  0  0.994799  0  0  0.134112  0.101447  0  0.998548  0
H  H5  1  0.08092612  0.30980598  0.17045695  1  0  0.093824  0  0.933593  0  0  0.102933  0  0.997016  0  0  0.105137  0  0.994694  0  0  0.134097  0.101396  0  0.998446  0
H  H6  1  0.30980175  0.08092725  0.67046358  1  0  0.093879  0  0.933571  0  0  0.102961  0  0.997022  0  0  0.105165  0  0.9947  0  0  0.134119  0.101444  0  0.99843  0
H  H7  1  0.91907903  0.69018706  0.82953878  1  0  0.093858  0  0.933591  0  0  0.102957  0  0.997018  0  0  0.105161  0  0.994696  0  0  0.134094  0.101421  0  0.998449  0
H  H8  1  0.05481429  0.12717744  0.52677589  1  0  0.120804  0  0.958259  0  0  0.125388  0  1.023958  0  0  0.129309  0  1.021063  0  0  0.118583  0.122444  0  1.02625  0
H  H9  1  0.87282300  0.94518465  0.97322198  1  0  0.120807  0  0.958234  0  0  0.125407  0  1.023922  0  0  0.129329  0  1.021026  0  0  0.118591  0.122462  0  1.026216  0
H  H10  1  0.94517798  0.87282371  0.47322117  1  0  0.120833  0  0.958274  0  0  0.125412  0  1.023982  0  0  0.129331  0  1.021091  0  0  0.118585  0.122468  0  1.026276  0
H  H11  1  0.12718360  0.05481566  0.02677649  1  0  0.120806  0  0.958184  0  0  0.125418  0  1.023847  0  0  0.129341  0  1.020947  0  0  0.1186  0.122474  0  1.026139  0
H  H12  1  0.01257825  0.90397158  0.67635202  1  0  0.12486  0  0.949426  0  0  0.135339  0  1.007478  0  0  0.137843  0  1.006627  0  0  0.128683  0.133631  0  1.007938  0
H  H13  1  0.09603230  0.98742092  0.82364719  1  0  0.124891  0  0.949376  0  0  0.135352  0  1.007448  0  0  0.137861  0  1.006589  0  0  0.128664  0.133642  0  1.007908  0
H  H14  1  0.98741590  0.09603169  0.32365254  1  0  0.124881  0  0.949367  0  0  0.135355  0  1.007435  0  0  0.13786  0  1.006581  0  0  0.128703  0.133646  0  1.007895  0
H  H15  1  0.90397336  0.01257732  0.17635299  1  0  0.124899  0  0.949373  0  0  0.135371  0  1.00743  0  0  0.137874  0  1.006577  0  0  0.128683  0.133661  0  1.007888  0
H  H16  1  0.43017128  0.76691320  0.50018459  1  0  0.108915  0  0.949161  0  0  0.115517  0  1.017746  0  0  0.118412  0  1.014398  0  0  0.138532  0.113229  0  1.020378  0
H  H17  1  0.23308783  0.56981961  0.99981473  1  0  0.10896  0  0.949025  0  0  0.115539  0  1.017653  0  0  0.118437  0  1.0143  0  0  0.138521  0.113256  0  1.020282  0
H  H18  1  0.56981962  0.23308898  0.49981687  1  0  0.108929  0  0.949088  0  0  0.115517  0  1.017699  0  0  0.118448  0  1.014304  0  0  0.138536  0.113229  0  1.020327  0
H  H19  1  0.76691641  0.43017548  0.00018069  1  0  0.108928  0  0.949142  0  0  0.115534  0  1.017748  0  0  0.11843  0  1.014397  0  0  0.138557  0.113279  0  1.020334  0
H  H20  1  0.24563317  0.60214467  0.60243376  1  0  0.102417  0  0.923788  0  0  0.119757  0  0.980871  0  0  0.120732  0  0.980057  0  0  0.11961  0.118937  0  0.981576  0
H  H21  1  0.39785252  0.75436055  0.89756407  1  0  0.102506  0  0.923835  0  0  0.119829  0  0.980823  0  0  0.120817  0  0.980003  0  0  0.119641  0.119015  0  0.981532  0
H  H22  1  0.75436141  0.39785548  0.39756638  1  0  0.102397  0  0.923862  0  0  0.11976  0  0.980886  0  0  0.120738  0  0.980071  0  0  0.119612  0.118941  0  0.981593  0
H  H23  1  0.60214850  0.24563555  0.10243627  1  0  0.102435  0  0.923865  0  0  0.119798  0  0.980888  0  0  0.120779  0  0.980077  0  0  0.119634  0.118985  0  0.981589  0
H  H24  1  0.16638057  0.66154488  0.74239374  1  0  0.086638  0  0.931161  0  0  0.099733  0  0.99851  0  0  0.100304  0  0.998335  0  0  0.116853  0.099542  0  0.998106  0
H  H25  1  0.33845777  0.83360554  0.75761125  1  0  0.086731  0  0.931383  0  0  0.099747  0  0.998713  0  0  0.100316  0  0.998538  0  0  0.116816  0.099564  0  0.998313  0
H  H26  1  0.83361125  0.33845525  0.25761149  1  0  0.08667  0  0.931248  0  0  0.099735  0  0.998606  0  0  0.100302  0  0.998437  0  0  0.116817  0.099548  0  0.9982  0
H  H27  1  0.66154834  0.16639166  0.24238564  1  0  0.086677  0  0.931355  0  0  0.099751  0  0.998704  0  0  0.100321  0  0.998531  0  0  0.116824  0.099565  0  0.998304  0
H  H28  1  0.44394463  0.41479650  0.60658834  1  0  0.092492  0  0.98071  0  0  0.100673  0  1.049635  0  0  0.103795  0  1.048212  0  0  0.095914  0.09805  0  1.051605  0
H  H29  1  0.58520488  0.55605495  0.89341880  1  0  0.092489  0  0.98065  0  0  0.100714  0  1.049542  0  0  0.103798  0  1.048159  0  0  0.095911  0.098084  0  1.051526  0
H  H30  1  0.55605833  0.58521206  0.39340971  1  0  0.092498  0  0.980551  0  0  0.100654  0  1.049518  0  0  0.103799  0  1.048071  0  0  0.095911  0.098031  0  1.051486  0
H  H31  1  0.41479427  0.44393698  0.10658408  1  0  0.092449  0  0.980648  0  0  0.100647  0  1.049573  0  0  0.103749  0  1.048172  0  0  0.095895  0.09802  0  1.051549  0
H  H32  1  0.66941965  0.26236664  0.67644369  1  0  0.089099  0  0.951737  0  0  0.101145  0  1.00966  0  0  0.103756  0  1.00854  0  0  0.10046  0.0993  0  1.010421  0
H  H33  1  0.73764716  0.33057621  0.82356365  1  0  0.089054  0  0.951492  0  0  0.101086  0  1.009464  0  0  0.103694  0  1.008346  0  0  0.100437  0.099245  0  1.010214  0
H  H34  1  0.33058556  0.73763674  0.32354399  1  0  0.089088  0  0.951647  0  0  0.101149  0  1.00957  0  0  0.103754  0  1.008448  0  0  0.10047  0.099305  0  1.010328  0
H  H35  1  0.26236305  0.66940967  0.17644128  1  0  0.089098  0  0.95173  0  0  0.10115  0  1.009644  0  0  0.10376  0  1.008526  0  0  0.100473  0.099309  0  1.010395  0
H  H36  1  0.50180115  0.78886647  0.01885948  1  0  0.375258  0  0.925404  0  0  0.343256  0  1.008257  0  0  0.356642  0  0.996067  0  0  0.284625  0.333916  0  1.016626  0
H  H37  1  0.21113185  0.49819712  0.48114200  1  0  0.375236  0  0.925422  0  0  0.34323  0  1.008282  0  0  0.356619  0  0.99609  0  0  0.284649  0.333889  0  1.01665  0
H  H38  1  0.49819852  0.21113273  0.98114468  1  0  0.375226  0  0.925467  0  0  0.34322  0  1.008321  0  0  0.356609  0  0.996129  0  0  0.284639  0.333879  0  1.01669  0
H  H39  1  0.78886776  0.50179378  0.51886190  1  0  0.375251  0  0.925424  0  0  0.34327  0  1.008239  0  0  0.356657  0  0.996044  0  0  0.284653  0.333929  0  1.016609  0
C  C40  1  0.65001887  0.89794617  0.26690326  1  0  0.272196  0  3.647103  0  0  0.20842  0  3.925766  0  0  0.223961  0  3.936145  0  0  0.150029  0.198509  0  3.917739  0
C  C41  1  0.10205768  0.34998463  0.23309186  1  0  0.272261  0  3.64703  0  0  0.208494  0  3.925719  0  0  0.224035  0  3.9361  0  0  0.15007  0.19859  0  3.917686  0
C  C42  1  0.34998178  0.10206339  0.73309343  1  0  0.272215  0  3.64706  0  0  0.208468  0  3.925765  0  0  0.224007  0  3.936144  0  0  0.150021  0.198546  0  3.917728  0
C  C43  1  0.89794660  0.65001667  0.76690181  1  0  0.272252  0  3.647032  0  0  0.20848  0  3.925706  0  0  0.224019  0  3.936085  0  0  0.150098  0.198572  0  3.91768  0
C  C44  1  0.50755644  0.90202042  0.16969898  1  0  -0.004766  0  3.793652  0  0  -0.013861  0  4.044096  0  0  -0.014815  0  4.065494  0  0  0.070694  -0.013343  0  4.029428  0
C  C45  1  0.09799371  0.49244503  0.33028920  1  0  -0.004656  0  3.793577  0  0  -0.013884  0  4.044152  0  0  -0.014842  0  4.065558  0  0  0.070743  -0.013365  0  4.029479  0
C  C46  1  0.49244613  0.09800365  0.83028625  1  0  -0.004698  0  3.793637  0  0  -0.013874  0  4.044156  0  0  -0.014835  0  4.065558  0  0  0.070788  -0.013363  0  4.029495  0
C  C47  1  0.90201284  0.50754906  0.66970930  1  0  -0.004808  0  3.793636  0  0  -0.013937  0  4.04409  0  0  -0.014897  0  4.065494  0  0  0.070681  -0.013422  0  4.029427  0
C  C48  1  0.37362451  0.94423241  0.13622975  1  0  0.616485  0  3.966118  0  0  0.567568  0  4.270119  0  0  0.600481  0  4.262855  0  0  0.201696  0.545309  0  4.27444  0
C  C49  1  0.05577046  0.62637446  0.36377045  1  0  0.61651  0  3.965993  0  0  0.567616  0  4.270008  0  0  0.600532  0  4.262747  0  0  0.201712  0.545359  0  4.274329  0
C  C50  1  0.62637382  0.05577401  0.86376933  1  0  0.616654  0  3.965905  0  0  0.567765  0  4.269868  0  0  0.600682  0  4.2626  0  0  0.201792  0.54551  0  4.274196  0
C  C51  1  0.94422734  0.37362263  0.63623051  1  0  0.616503  0  3.965932  0  0  0.567637  0  4.269866  0  0  0.600552  0  4.262604  0  0  0.201777  0.54538  0  4.274188  0
C  C52  1  0.69059506  0.69913790  0.05719378  1  0  0.636693  0  3.886883  0  0  0.586321  0  4.185118  0  0  0.620391  0  4.176538  0  0  0.222019  0.56317  0  4.190578  0
C  C53  1  0.30086802  0.30942125  0.44280552  1  0  0.636797  0  3.886683  0  0  0.586368  0  4.184964  0  0  0.620439  0  4.176395  0  0  0.221931  0.563215  0  4.190424  0
C  C54  1  0.30941439  0.30087282  0.94280530  1  0  0.636823  0  3.886771  0  0  0.586326  0  4.185153  0  0  0.620395  0  4.176576  0  0  0.221921  0.563175  0  4.190608  0
C  C55  1  0.69912982  0.69058000  0.55720030  1  0  0.636839  0  3.88675  0  0  0.586412  0  4.185053  0  0  0.620476  0  4.176474  0  0  0.221923  0.563261  0  4.190512  0
C  C56  1  0.63821851  0.80215219  0.13460249  1  0  -0.032857  0  3.827826  0  0  -0.035332  0  4.071307  0  0  -0.039466  0  4.093851  0  0  0.065784  -0.032904  0  4.056214  0
C  C57  1  0.19786346  0.36177517  0.36538626  1  0  -0.03317  0  3.827829  0  0  -0.035467  0  4.071193  0  0  -0.039606  0  4.093744  0  0  0.065725  -0.03304  0  4.056101  0
C  C58  1  0.36177803  0.19786661  0.86538417  1  0  -0.033136  0  3.827737  0  0  -0.035441  0  4.071103  0  0  -0.039573  0  4.093648  0  0  0.065707  -0.033012  0  4.056011  0
C  C59  1  0.80214308  0.63821686  0.63461282  1  0  -0.032939  0  3.827778  0  0  -0.035336  0  4.071166  0  0  -0.039467  0  4.09371  0  0  0.065797  -0.032909  0  4.056076  0
C  C60  1  0.12589439  0.01889120  0.54132446  1  0  0.005547  0  3.726918  0  0  -0.027379  0  3.990466  0  0  -0.025889  0  4.009214  0  0  0.000265  -0.028288  0  3.977885  0
C  C61  1  0.98111350  0.87409913  0.95867072  1  0  0.005488  0  3.727385  0  0  -0.027461  0  3.990929  0  0  -0.02597  0  4.009678  0  0  0.000206  -0.028372  0  3.97835  0
C  C62  1  0.87410111  0.98110896  0.45867370  1  0  0.005476  0  3.726984  0  0  -0.027464  0  3.990533  0  0  -0.025971  0  4.009277  0  0  0.000277  -0.028374  0  3.977956  0
C  C63  1  0.01888845  0.12589698  0.04132936  1  0  0.00542  0  3.727396  0  0  -0.027544  0  3.990969  0  0  -0.026052  0  4.009715  0  0  0.00016  -0.028453  0  3.978385  0
C  C64  1  0.10383487  0.90984278  0.61626420  1  0  -0.061076  0  3.67996  0  0  -0.09991  0  3.934855  0  0  -0.098676  0  3.954178  0  0  0.007019  -0.100607  0  3.921587  0
C  C65  1  0.09015340  0.89616105  0.88373912  1  0  -0.061067  0  3.680336  0  0  -0.099869  0  3.935212  0  0  -0.098635  0  3.95453  0  0  0.007064  -0.100564  0  3.921941  0
C  C66  1  0.89615790  0.09016150  0.38373702  1  0  -0.061044  0  3.680158  0  0  -0.099886  0  3.935062  0  0  -0.098648  0  3.954374  0  0  0.006986  -0.100583  0  3.921791  0
C  C67  1  0.90985088  0.10383820  0.11626030  1  0  -0.061154  0  3.68052  0  0  -0.099955  0  3.935381  0  0  -0.098719  0  3.954698  0  0  0.007024  -0.100649  0  3.922104  0
C  C68  1  0.32214944  0.83489657  0.52382407  1  0  0.161123  0  3.632063  0  0  0.098068  0  3.899229  0  0  0.111615  0  3.91171  0  0  0.142626  0.08939  0  3.890756  0
C  C69  1  0.16509406  0.67785519  0.97617304  1  0  0.161104  0  3.632182  0  0  0.098066  0  3.899367  0  0  0.111609  0  3.911854  0  0  0.142595  0.089383  0  3.890885  0
C  C70  1  0.67784834  0.16509844  0.47617576  1  0  0.161134  0  3.632166  0  0  0.098077  0  3.899325  0  0  0.111598  0  3.911797  0  0  0.142669  0.0894  0  3.890851  0
C  C71  1  0.83490562  0.32214606  0.02382624  1  0  0.16106  0  3.632165  0  0  0.09801  0  3.899337  0  0  0.111554  0  3.911821  0  0  0.142564  0.089312  0  3.890849  0
C  C72  1  0.25252563  0.65354632  0.66593207  1  0  -0.035813  0  3.635174  0  0  -0.10392  0  3.885815  0  0  -0.098655  0  3.895339  0  0  -0.044418  -0.107253  0  3.878888  0
C  C73  1  0.34647037  0.74746679  0.83406058  1  0  -0.035986  0  3.635641  0  0  -0.103877  0  3.885993  0  0  -0.098616  0  3.89551  0  0  -0.044331  -0.107245  0  3.879116  0
C  C74  1  0.74747224  0.34646113  0.33406770  1  0  -0.035761  0  3.635311  0  0  -0.103845  0  3.88589  0  0  -0.098582  0  3.895407  0  0  -0.044372  -0.107191  0  3.87898  0
C  C75  1  0.65354217  0.25252634  0.16593307  1  0  -0.035769  0  3.635503  0  0  -0.103877  0  3.88611  0  0  -0.098622  0  3.895639  0  0  -0.044369  -0.107236  0  3.87922  0
C  C76  1  0.38890527  0.57041355  0.70942662  1  0  0.018184  0  3.723765  0  0  0.033426  0  3.963182  0  0  0.031771  0  3.988514  0  0  -0.015414  0.034861  0  3.945681  0
C  C77  1  0.42957339  0.61110426  0.79058127  1  0  0.018351  0  3.723752  0  0  0.033484  0  3.963169  0  0  0.031829  0  3.988491  0  0  -0.015473  0.034926  0  3.945677  0
C  C78  1  0.61110315  0.42958059  0.29057737  1  0  0.017981  0  3.723771  0  0  0.03324  0  3.963135  0  0  0.031583  0  3.988476  0  0  -0.015487  0.034677  0  3.945638  0
C  C79  1  0.57042396  0.38889592  0.20941637  1  0  0.018358  0  3.723645  0  0  0.033527  0  3.963122  0  0  0.031873  0  3.988451  0  0  -0.0154  0.034966  0  3.945627  0
C  C80  1  0.47655108  0.44486455  0.66936577  1  0  -0.121519  0  3.753974  0  0  -0.141925  0  4.00571  0  0  -0.145643  0  4.028919  0  0  -0.095242  -0.13965  0  3.990685  0
C  C81  1  0.55513069  0.52345282  0.83063585  1  0  -0.121491  0  3.753582  0  0  -0.141906  0  4.00531  0  0  -0.145591  0  4.028537  0  0  -0.095204  -0.139631  0  3.990282  0
C  C82  1  0.52344675  0.55514081  0.33062685  1  0  -0.121342  0  3.753675  0  0  -0.14171  0  4.00541  0  0  -0.145445  0  4.028604  0  0  -0.095125  -0.139437  0  3.990385  0
C  C83  1  0.44486388  0.47654321  0.16937061  1  0  -0.12146  0  3.753688  0  0  -0.141856  0  4.00541  0  0  -0.145556  0  4.028629  0  0  -0.095205  -0.13958  0  3.990381  0
C  C84  1  0.60184446  0.35924045  0.70915467  1  0  -0.051368  0  3.77065  0  0  -0.068469  0  4.025688  0  0  -0.069656  0  4.046756  0  0  -0.09071  -0.067528  0  4.01115  0
C  C85  1  0.64075449  0.39815591  0.79084422  1  0  -0.05142  0  3.77036  0  0  -0.068533  0  4.02542  0  0  -0.069716  0  4.046478  0  0  -0.090688  -0.067587  0  4.010875  0
C  C86  1  0.39815609  0.64075872  0.29083547  1  0  -0.051456  0  3.77059  0  0  -0.068604  0  4.025655  0  0  -0.069785  0  4.046722  0  0  -0.090794  -0.067663  0  4.011118  0
C  C87  1  0.35923869  0.60184318  0.20915402  1  0  -0.051427  0  3.770618  0  0  -0.068534  0  4.025665  0  0  -0.069718  0  4.046725  0  0  -0.090705  -0.06759  0  4.011124  0
N  N88  1  0.51667316  0.96107068  0.25364171  1  0  -0.402802  0  3.271106  0  0  -0.321457  0  3.568214  0  0  -0.341345  0  3.578265  0  0  -0.360961  -0.307584  0  3.560478  0
N  N89  1  0.03893344  0.48332815  0.24635521  1  0  -0.402789  0  3.271115  0  0  -0.321445  0  3.568286  0  0  -0.341333  0  3.578344  0  0  -0.360985  -0.307575  0  3.560549  0
N  N90  1  0.48332474  0.03894092  0.74635777  1  0  -0.40271  0  3.27099  0  0  -0.321386  0  3.568143  0  0  -0.341282  0  3.57822  0  0  -0.360925  -0.307511  0  3.560411  0
N  N91  1  0.96106668  0.51667001  0.75364653  1  0  -0.40277  0  3.271163  0  0  -0.321458  0  3.568319  0  0  -0.341349  0  3.578385  0  0  -0.361004  -0.307586  0  3.560586  0
N  N92  1  0.72636269  0.80122065  0.19635110  1  0  -0.392511  0  3.306002  0  0  -0.311728  0  3.598484  0  0  -0.331084  0  3.610165  0  0  -0.361692  -0.298424  0  3.58997  0
N  N93  1  0.19878420  0.27363819  0.30363541  1  0  -0.39226  0  3.30604  0  0  -0.311537  0  3.598469  0  0  -0.330894  0  3.610158  0  0  -0.361569  -0.298231  0  3.589947  0
N  N94  1  0.27363470  0.19878781  0.80363906  1  0  -0.392393  0  3.306099  0  0  -0.311652  0  3.598515  0  0  -0.331005  0  3.610197  0  0  -0.361645  -0.298347  0  3.590002  0
N  N95  1  0.80122279  0.72635692  0.69635320  1  0  -0.392465  0  3.30615  0  0  -0.31165  0  3.598535  0  0  -0.331004  0  3.610216  0  0  -0.361673  -0.298344  0  3.590015  0
N  N96  1  0.26222876  0.97069850  0.48400026  1  0  -0.37718  0  3.319317  0  0  -0.293697  0  3.616989  0  0  -0.313797  0  3.630548  0  0  -0.362805  -0.280325  0  3.607636  0
N  N97  1  0.02929558  0.73777149  0.01599739  1  0  -0.377151  0  3.319519  0  0  -0.29368  0  3.617188  0  0  -0.313781  0  3.63075  0  0  -0.362809  -0.280312  0  3.607839  0
N  N98  1  0.73776351  0.02930265  0.51599766  1  0  -0.377177  0  3.319512  0  0  -0.293654  0  3.617129  0  0  -0.313768  0  3.630713  0  0  -0.362833  -0.280285  0  3.607775  0
N  N99  1  0.97070637  0.26222668  0.98399952  1  0  -0.377086  0  3.319343  0  0  -0.293637  0  3.617052  0  0  -0.313735  0  3.630611  0  0  -0.362821  -0.280269  0  3.607708  0
N  N100  1  0.22859060  0.79492167  0.60484806  1  0  -0.059507  0  3.569703  0  0  0.034548  0  3.788583  0  0  0.020271  0  3.814046  0  0  -0.239494  0.043868  0  3.771326  0
N  N101  1  0.20508236  0.77140576  0.89514749  1  0  -0.05962  0  3.569689  0  0  0.03438  0  3.788512  0  0  0.020103  0  3.813976  0  0  -0.239478  0.043707  0  3.771264  0
N  N102  1  0.77140446  0.20507953  0.39515510  1  0  -0.059569  0  3.569672  0  0  0.034489  0  3.788525  0  0  0.020211  0  3.813993  0  0  -0.239506  0.043812  0  3.771269  0
N  N103  1  0.79492421  0.22859042  0.10485386  1  0  -0.059497  0  3.569762  0  0  0.034558  0  3.788603  0  0  0.020284  0  3.814067  0  0  -0.239414  0.04388  0  3.771357  0
O  O104  1  0.81312682  0.60964394  0.05221592  1  0  -0.575082  0  1.935885  0  0  -0.521402  0  2.175852  0  0  -0.543985  0  2.164378  0  0  -0.294292  -0.506097  0  2.183732  0
O  O105  1  0.39036927  0.18686760  0.44778881  1  0  -0.5753  0  1.935413  0  0  -0.521592  0  2.175362  0  0  -0.544187  0  2.163896  0  0  -0.294369  -0.506279  0  2.183235  0
O  O106  1  0.18687107  0.39036558  0.94778241  1  0  -0.575255  0  1.935664  0  0  -0.521519  0  2.175625  0  0  -0.544129  0  2.164199  0  0  -0.294343  -0.506211  0  2.1835  0
O  O107  1  0.60962893  0.81311811  0.55221866  1  0  -0.575285  0  1.935586  0  0  -0.52155  0  2.175507  0  0  -0.544155  0  2.164077  0  0  -0.294309  -0.506243  0  2.183383  0
O  O108  1  0.26771418  0.02884784  0.19445037  1  0  -0.6049  0  1.934255  0  0  -0.552594  0  2.17771  0  0  -0.576295  0  2.167194  0  0  -0.319088  -0.536382  0  2.184728  0
O  O109  1  0.97115238  0.73228730  0.30555610  1  0  -0.604886  0  1.934248  0  0  -0.552587  0  2.177721  0  0  -0.576291  0  2.167205  0  0  -0.319068  -0.536357  0  2.184694  0
O  O110  1  0.73228414  0.97115240  0.80556162  1  0  -0.604966  0  1.934234  0  0  -0.552683  0  2.177727  0  0  -0.576385  0  2.16721  0  0  -0.31912  -0.53645  0  2.184693  0
O  O111  1  0.02884730  0.26770985  0.69445552  1  0  -0.604977  0  1.934051  0  0  -0.552695  0  2.177514  0  0  -0.576402  0  2.167001  0  0  -0.319168  -0.536474  0  2.184511  0
O  O112  1  0.37386712  0.89133251  0.05132049  1  0  -0.58941  0  1.985474  0  0  -0.542292  0  2.210797  0  0  -0.56684  0  2.203291  0  0  -0.319132  -0.525243  0  2.21561  0
O  O113  1  0.10866479  0.62612902  0.44868820  1  0  -0.589489  0  1.985311  0  0  -0.542386  0  2.210682  0  0  -0.566918  0  2.203132  0  0  -0.319208  -0.525338  0  2.215491  0
O  O114  1  0.62613073  0.10866668  0.94869020  1  0  -0.589482  0  1.985235  0  0  -0.542389  0  2.210586  0  0  -0.566931  0  2.203056  0  0  -0.319234  -0.525341  0  2.215398  0
O  O115  1  0.89133392  0.37386395  0.55131796  1  0  -0.589355  0  1.985536  0  0  -0.542284  0  2.210876  0  0  -0.56682  0  2.203343  0  0  -0.319129  -0.525237  0  2.215688  0
O  O116  1  0.60520133  0.70385647  0.99695573  1  0  -0.544099  0  2.079021  0  0  -0.494682  0  2.305292  0  0  -0.517946  0  2.293981  0  0  -0.318675  -0.478558  0  2.312778  0
O  O117  1  0.29614766  0.39480083  0.50304876  1  0  -0.543944  0  2.079266  0  0  -0.494519  0  2.305579  0  0  -0.517763  0  2.294228  0  0  -0.318558  -0.478394  0  2.313061  0
O  O118  1  0.39480348  0.29615005  0.00304667  1  0  -0.54401  0  2.079246  0  0  -0.494551  0  2.305567  0  0  -0.517794  0  2.294221  0  0  -0.318563  -0.478423  0  2.313045  0
O  O119  1  0.70385156  0.60519528  0.49696500  1  0  -0.544006  0  2.079359  0  0  -0.494606  0  2.305666  0  0  -0.517868  0  2.29436  0  0  -0.318586  -0.47848  0  2.313149  0
