# generated using pymatgen
data_ZnH11C21BrNO4
_symmetry_space_group_name_H-M   'P 1'
_cell_length_a   9.58671455
_cell_length_b   11.01789581
_cell_length_c   15.29375528
_cell_angle_alpha   89.57785096
_cell_angle_beta   90.81128207
_cell_angle_gamma   89.92958503
_symmetry_Int_Tables_number   1
_chemical_formula_structural   ZnH11C21BrNO4
_chemical_formula_sum   'Zn2 H22 C42 Br2 N2 O8'
_cell_volume   1615.20214235
_cell_formula_units_Z   2
loop_
 _symmetry_equiv_pos_site_id
 _symmetry_equiv_pos_as_xyz
  1  'x, y, z'
loop_
 _atom_site_type_symbol
 _atom_site_label
 _atom_site_symmetry_multiplicity
 _atom_site_fract_x
 _atom_site_fract_y
 _atom_site_fract_z
 _atom_site_occupancy
 _atom_site_pbe_bader_charge
 _atom_site_pbe_bader_spin_density
 _atom_site_pbe_cm5_charge
 _atom_site_pbe_ddec_charge
 _atom_site_pbe_ddec_spin_density
 _atom_site_pbe_ddec_sum_bond_order
 _atom_site_pbe_magmom
Zn  Zn0  1  0.64212649  0.50123302  0.50220730  1  1.262225  0  0.663659  0.800993  0  2.466141  0
Zn  Zn1  1  0.35788908  0.49876131  0.49778987  1  1.248899  0  0.663642  0.801017  0  2.466349  0
H  H2  1  0.58684426  0.66833935  0.77368107  1  0.085569  0  0.095103  0.10573  0  1.032209  0
H  H3  1  0.41326211  0.33162052  0.22631459  1  0.085576  0  0.095131  0.105691  0  1.032198  0
H  H4  1  0.63123486  0.79015239  0.07374495  1  0.078187  0  0.104634  0.123158  0  1.015984  0
H  H5  1  0.36883503  0.20982109  0.92625445  1  0.078296  0  0.10478  0.123288  0  1.015895  0
H  H6  1  0.28625951  0.88636196  0.45686056  1  0.044367  0  0.100851  0.100035  0  1.006948  0
H  H7  1  0.71371737  0.11362797  0.54319278  1  0.044568  0  0.10093  0.1  0  1.006873  0
H  H8  1  0.28771572  0.11483421  0.45362449  1  0.107283  0  0.103544  0.10567  0  1.000746  0
H  H9  1  0.71225710  0.88515847  0.54643667  1  0.107254  0  0.103533  0.105706  0  1.000726  0
H  H10  1  0.13543766  0.33212685  0.56293803  1  0.159462  0  0.135951  0.115019  0  0.994983  0
H  H11  1  0.86457786  0.66787383  0.43705648  1  0.159642  0  0.13599  0.115064  0  0.994802  0
H  H12  1  0.13328023  0.66534409  0.43530195  1  0.166558  0  0.138441  0.119434  0  0.969552  0
H  H13  1  0.86673636  0.33465478  0.56469454  1  0.166706  0  0.138501  0.119445  0  0.969508  0
H  H14  1  0.19094778  0.34290219  0.74922368  1  0.03746  0  0.100909  0.102349  0  0.996915  0
H  H15  1  0.10484785  0.15009984  0.68352537  1  0.050034  0  0.094391  0.085626  0  1.00489  0
H  H16  1  0.26657219  0.97431115  0.66792354  1  0.073311  0  0.099746  0.09712  0  0.995925  0
H  H17  1  0.51288088  0.99180778  0.71884480  1  0.084335  0  0.09299  0.088798  0  1.022467  0
H  H18  1  0.59781892  0.18402932  0.78530925  1  0.057608  0  0.100294  0.102607  0  0.992041  0
H  H19  1  0.40196009  0.81582478  0.21455818  1  0.056503  0  0.100434  0.102765  0  0.991897  0
H  H20  1  0.48656749  0.00815787  0.28103744  1  0.078418  0  0.09269  0.088247  0  1.022356  0
H  H21  1  0.73279957  0.02588628  0.33208511  1  0.069193  0  0.099707  0.097067  0  0.996201  0
H  H22  1  0.89476634  0.85023322  0.31658821  1  0.053823  0  0.094519  0.085945  0  1.004956  0
H  H23  1  0.80896701  0.65733114  0.25088868  1  0.041004  0  0.100646  0.101855  0  0.996371  0
C  C24  1  0.49938533  0.73774119  0.50264461  1  1.562932  0  0.217836  0.595214  0  4.163589  0
C  C25  1  0.50061279  0.26225228  0.49736953  1  1.563224  0  0.217786  0.594853  0  4.163698  0
C  C26  1  0.59509389  0.70913189  0.04009987  1  0.057442  0  -0.098631  -0.191829  0  4.00062  0
C  C27  1  0.40496972  0.29084976  0.95989881  1  0.057557  0  -0.098883  -0.191997  0  4.000651  0
C  C28  1  0.37905237  0.93725210  0.47594073  1  -0.113957  0  -0.082536  -0.095185  0  3.992229  0
C  C29  1  0.62092025  0.06274508  0.52410863  1  -0.114912  0  -0.082569  -0.095019  0  3.992164  0
C  C30  1  0.37995281  0.06335450  0.47379342  1  0.072652  0  -0.082188  -0.095976  0  3.986866  0
C  C31  1  0.62001691  0.93663545  0.52626907  1  0.071784  0  -0.082253  -0.096074  0  3.986864  0
C  C32  1  0.50096364  0.12671810  0.49786654  1  -0.026525  0  -0.012319  -0.021341  0  3.959498  0
C  C33  1  0.49900793  0.87327363  0.50218155  1  -0.026648  0  -0.012348  -0.021621  0  3.959739  0
C  C34  1  0.07334059  0.40635556  0.53519447  1  0.575029  0  0.080706  0.065905  0  3.851428  0
C  C35  1  0.92667381  0.59363966  0.46479484  1  0.575038  0  0.08075  0.065927  0  3.851157  0
C  C36  1  0.07179718  0.59220271  0.46362604  1  0.450951  0  0.080652  0.063445  0  3.858599  0
C  C37  1  0.92821831  0.40779705  0.53636651  1  0.450804  0  0.080575  0.063403  0  3.858605  0
C  C38  1  0.50062426  0.50962281  0.32877570  1  1.539955  0  0.218678  0.612283  0  4.160274  0
C  C39  1  0.49941218  0.49036518  0.67122091  1  1.540458  0  0.218601  0.612096  0  4.160611  0
C  C40  1  0.44950769  0.38823870  0.81632967  1  0.074824  0  0.002872  0.003599  0  3.920405  0
C  C41  1  0.55049743  0.61174655  0.18366492  1  0.075213  0  0.002766  0.003233  0  3.921142  0
C  C42  1  0.49812094  0.48921791  0.76941755  1  0.000807  0  -0.01017  -0.049637  0  3.968911  0
C  C43  1  0.50191240  0.51076463  0.23058040  1  0.000426  0  -0.010235  -0.049719  0  3.969228  0
C  C44  1  0.54785696  0.59231157  0.81213666  1  0.028248  0  -0.091887  -0.148284  0  3.966937  0
C  C45  1  0.45221282  0.40765917  0.18785492  1  0.028313  0  -0.091916  -0.147991  0  3.966745  0
C  C46  1  0.54807497  0.60016674  0.90343938  1  -0.009838  0  -0.013804  0.031677  0  4.041565  0
C  C47  1  0.45200736  0.39980673  0.09655482  1  -0.009848  0  -0.013698  0.031352  0  4.04208  0
C  C48  1  0.50002553  0.49836047  0.95344289  1  -0.062706  0  0.00319  0.00977  0  3.917559  0
C  C49  1  0.50004546  0.50162574  0.04656101  1  0.057846  0  0.003092  0.009935  0  3.917735  0
C  C50  1  0.45172973  0.39220813  0.90895038  1  -0.076286  0  -0.002777  0.048186  0  3.99449  0
C  C51  1  0.54831510  0.60777896  0.09104887  1  -0.076235  0  -0.002853  0.048245  0  3.995086  0
C  C52  1  0.59464872  0.70477323  0.95104035  1  -0.094309  0  -0.013585  0.075479  0  3.959141  0
C  C53  1  0.40542011  0.29520389  0.04895837  1  -0.095108  0  -0.013494  0.07558  0  3.959575  0
C  C54  1  0.39994082  0.27620853  0.77141951  1  -0.044498  0  -0.009845  0.074781  0  3.999325  0
C  C55  1  0.26122549  0.26583104  0.74199109  1  -0.016836  0  -0.091896  -0.127506  0  3.982265  0
C  C56  1  0.21363700  0.15782550  0.70492346  1  -0.088884  0  -0.099478  -0.09368  0  4.057931  0
C  C57  1  0.30367428  0.05884175  0.69658527  1  -0.018902  0  -0.094263  -0.08255  0  4.023307  0
C  C58  1  0.44212961  0.06872541  0.72505518  1  -0.080345  0  -0.095126  -0.079414  0  4.037459  0
C  C59  1  0.48998281  0.17673283  0.76210839  1  -0.019325  0  -0.091236  -0.132267  0  3.967046  0
C  C60  1  0.59991806  0.72382928  0.22856850  1  -0.044682  0  -0.009235  0.07552  0  3.99939  0
C  C61  1  0.50975730  0.82324305  0.23781893  1  -0.020191  0  -0.091444  -0.132619  0  3.967171  0
C  C62  1  0.55743611  0.93130575  0.27486678  1  -0.078819  0  -0.094788  -0.078576  0  4.036377  0
C  C63  1  0.69585170  0.94131757  0.30340896  1  -0.016275  0  -0.094077  -0.082554  0  4.02226  0
C  C64  1  0.78600953  0.84240752  0.29511503  1  -0.088604  0  -0.099908  -0.094301  0  4.057121  0
C  C65  1  0.73857473  0.73433672  0.25806128  1  -0.016298  0  -0.092008  -0.127285  0  3.981138  0
Br  Br66  1  0.65849616  0.84452204  0.88875427  1  -0.08661  0  0.015407  -0.083244  0  1.373455  0
Br  Br67  1  0.34163521  0.15544056  0.11123947  1  -0.086652  0  0.015394  -0.083252  0  1.373977  0
N  N68  1  0.85677901  0.50126916  0.50124729  1  -1.219727  0  -0.291848  -0.136565  0  3.494252  0
N  N69  1  0.14323649  0.49872788  0.49874594  1  -1.220059  0  -0.291893  -0.13666  0  3.494454  0
O  O70  1  0.61807800  0.68570521  0.50658202  1  -1.163793  0  -0.315008  -0.544051  0  2.337878  0
O  O71  1  0.38190655  0.31429823  0.49343202  1  -1.163404  0  -0.315086  -0.544029  0  2.337703  0
O  O72  1  0.61855857  0.31556721  0.50083699  1  -1.177172  0  -0.318811  -0.555321  0  2.331527  0
O  O73  1  0.38142801  0.68442261  0.49917191  1  -1.176588  0  -0.318896  -0.555548  0  2.331369  0
O  O74  1  0.61821869  0.50970109  0.36822816  1  -1.165141  0  -0.314396  -0.545594  0  2.313523  0
O  O75  1  0.38180836  0.49029870  0.63176965  1  -1.165059  0  -0.314267  -0.545402  0  2.313279  0
O  O76  1  0.61854322  0.49431679  0.63586578  1  -1.158084  0  -0.319838  -0.543986  0  2.286599  0
O  O77  1  0.38148183  0.50566576  0.36413542  1  -1.15746  0  -0.319825  -0.544035  0  2.286164  0
