# generated using pymatgen
data_Ag2H10C7(IN)2
_symmetry_space_group_name_H-M   'P 1'
_cell_length_a   4.39134620
_cell_length_b   16.64801130
_cell_length_c   17.18953843
_cell_angle_alpha   89.99994653
_cell_angle_beta   98.64142795
_cell_angle_gamma   90.00250558
_symmetry_Int_Tables_number   1
_chemical_formula_structural   Ag2H10C7(IN)2
_chemical_formula_sum   'Ag8 H40 C28 I8 N8'
_cell_volume   1242.41288252
_cell_formula_units_Z   4
loop_
 _symmetry_equiv_pos_site_id
 _symmetry_equiv_pos_as_xyz
  1  'x, y, z'
loop_
 _atom_site_type_symbol
 _atom_site_label
 _atom_site_symmetry_multiplicity
 _atom_site_fract_x
 _atom_site_fract_y
 _atom_site_fract_z
 _atom_site_occupancy
 _atom_site_hle17_bader_spin_density
 _atom_site_hle17_ddec_charge
 _atom_site_hle17_ddec_spin_density
 _atom_site_hle17_ddec_sum_bond_order
 _atom_site_hle17_magmom
 _atom_site_hse06_10hf_bader_spin_density
 _atom_site_hse06_10hf_ddec_charge
 _atom_site_hse06_10hf_ddec_spin_density
 _atom_site_hse06_10hf_ddec_sum_bond_order
 _atom_site_hse06_10hf_magmom
 _atom_site_hse06_bader_spin_density
 _atom_site_hse06_ddec_charge
 _atom_site_hse06_ddec_spin_density
 _atom_site_hse06_ddec_sum_bond_order
 _atom_site_hse06_magmom
 _atom_site_pbe_bader_spin_density
 _atom_site_pbe_cm5_charge
 _atom_site_pbe_ddec_charge
 _atom_site_pbe_ddec_spin_density
 _atom_site_pbe_ddec_sum_bond_order
 _atom_site_pbe_magmom
Ag  Ag0  1  0.11455976  0.28313474  0.06811450  1  0  0.201569  0  1.988269  0  0  0.094531  0  2.499947  0  0  0.115257  0  2.456276  0  0  0.184405  0.080618  0  2.529834  0
Ag  Ag1  1  0.11457115  0.21687065  0.56811602  1  0  0.201624  0  1.988338  0  0  0.094586  0  2.500025  0  0  0.115309  0  2.456364  0  0  0.18449  0.080674  0  2.529916  0
Ag  Ag2  1  0.88545448  0.71686496  0.93188985  1  0  0.201512  0  1.988301  0  0  0.094473  0  2.499965  0  0  0.115201  0  2.4563  0  0  0.184378  0.080567  0  2.529845  0
Ag  Ag3  1  0.88541715  0.78313866  0.43188109  1  0  0.201513  0  1.98819  0  0  0.094444  0  2.499856  0  0  0.115173  0  2.456197  0  0  0.184371  0.08053  0  2.529746  0
Ag  Ag4  1  0.72105647  0.43065203  0.01041102  1  0  0.259565  0  2.006421  0  0  0.177856  0  2.512862  0  0  0.20232  0  2.463968  0  0  0.152327  0.16118  0  2.546758  0
Ag  Ag5  1  0.72105310  0.06935210  0.51041957  1  0  0.259566  0  2.00646  0  0  0.177842  0  2.512906  0  0  0.202308  0  2.464014  0  0  0.152291  0.161159  0  2.546816  0
Ag  Ag6  1  0.27896249  0.56935067  0.98959465  1  0  0.259553  0  2.006358  0  0  0.177836  0  2.512801  0  0  0.202303  0  2.463907  0  0  0.152306  0.161155  0  2.546709  0
Ag  Ag7  1  0.27894255  0.93065001  0.48958244  1  0  0.259566  0  2.006481  0  0  0.177843  0  2.512942  0  0  0.202309  0  2.464052  0  0  0.152309  0.161168  0  2.546836  0
H  H8  1  0.23152385  0.04343579  0.27307242  1  0  0.110827  0  0.986169  0  0  0.120771  0  1.049969  0  0  0.123431  0  1.048726  0  0  0.103862  0.118675  0  1.051265  0
H  H9  1  0.23156893  0.45657490  0.77308037  1  0  0.110866  0  0.98596  0  0  0.120853  0  1.049731  0  0  0.123512  0  1.048482  0  0  0.103881  0.118756  0  1.051025  0
H  H10  1  0.76846747  0.95655790  0.72693236  1  0  0.110847  0  0.98608  0  0  0.12075  0  1.04992  0  0  0.123416  0  1.04866  0  0  0.103895  0.118655  0  1.051212  0
H  H11  1  0.76845452  0.54344342  0.22692428  1  0  0.110837  0  0.986027  0  0  0.120828  0  1.049784  0  0  0.123476  0  1.048558  0  0  0.10388  0.118735  0  1.051078  0
H  H12  1  0.89393243  0.15953876  0.33929853  1  0  0.109774  0  0.989788  0  0  0.116995  0  1.060146  0  0  0.119535  0  1.058725  0  0  0.100796  0.114996  0  1.061534  0
H  H13  1  0.89395803  0.34045975  0.83930522  1  0  0.10979  0  0.98977  0  0  0.117057  0  1.060077  0  0  0.119576  0  1.058678  0  0  0.100756  0.115057  0  1.061463  0
H  H14  1  0.10604223  0.84045673  0.66069989  1  0  0.109665  0  0.989864  0  0  0.117019  0  1.060067  0  0  0.119552  0  1.058651  0  0  0.100797  0.115018  0  1.061454  0
H  H15  1  0.10604772  0.65954235  0.16070643  1  0  0.109817  0  0.990131  0  0  0.117055  0  1.06042  0  0  0.119586  0  1.059006  0  0  0.100795  0.115059  0  1.061808  0
H  H16  1  0.45353948  0.13799325  0.08632222  1  0  0.076631  0  0.943762  0  0  0.088819  0  1.018585  0  0  0.090154  0  1.016317  0  0  0.098925  0.087684  0  1.020303  0
H  H17  1  0.45358207  0.36201007  0.58632481  1  0  0.076601  0  0.943652  0  0  0.088723  0  1.018479  0  0  0.090079  0  1.016193  0  0  0.098885  0.08758  0  1.020201  0
H  H18  1  0.54647059  0.86201126  0.91368665  1  0  0.076616  0  0.943703  0  0  0.088794  0  1.018515  0  0  0.090127  0  1.016249  0  0  0.098921  0.08766  0  1.02023  0
H  H19  1  0.54648081  0.63798423  0.41368402  1  0  0.076609  0  0.943796  0  0  0.088771  0  1.018551  0  0  0.090115  0  1.016275  0  0  0.098917  0.087631  0  1.020273  0
H  H20  1  0.63553233  0.07694552  0.16534005  1  0  0.073772  0  0.948694  0  0  0.086017  0  1.016929  0  0  0.086399  0  1.017904  0  0  0.104264  0.085669  0  1.01633  0
H  H21  1  0.63558354  0.42306762  0.66535051  1  0  0.073702  0  0.948521  0  0  0.085849  0  1.016778  0  0  0.086222  0  1.017759  0  0  0.104198  0.085501  0  1.016173  0
H  H22  1  0.36445653  0.92304697  0.83466290  1  0  0.073802  0  0.94872  0  0  0.086054  0  1.016891  0  0  0.086438  0  1.017872  0  0  0.104313  0.085708  0  1.016291  0
H  H23  1  0.36443328  0.57694469  0.33465684  1  0  0.073788  0  0.948476  0  0  0.085969  0  1.01671  0  0  0.08635  0  1.017686  0  0  0.104262  0.085621  0  1.016111  0
H  H24  1  0.01842746  0.03199007  0.06140805  1  0  0.079754  0  0.958246  0  0  0.095867  0  1.013022  0  0  0.097297  0  1.014181  0  0  0.098895  0.094834  0  1.012301  0
H  H25  1  0.01844375  0.46800519  0.56140693  1  0  0.079682  0  0.958243  0  0  0.095833  0  1.012996  0  0  0.097264  0  1.014156  0  0  0.098848  0.094799  0  1.012276  0
H  H26  1  0.98154901  0.96802645  0.93858519  1  0  0.079722  0  0.958293  0  0  0.0959  0  1.012972  0  0  0.097331  0  1.014127  0  0  0.098914  0.094863  0  1.012257  0
H  H27  1  0.98157372  0.53197829  0.43858298  1  0  0.079647  0  0.958059  0  0  0.095826  0  1.012788  0  0  0.097258  0  1.013944  0  0  0.09884  0.094789  0  1.012079  0
H  H28  1  0.59345426  0.93599625  0.13474522  1  0  0.119418  0  0.962897  0  0  0.134561  0  1.020333  0  0  0.137414  0  1.019871  0  0  0.090796  0.132536  0  1.020681  0
H  H29  1  0.59352818  0.56401336  0.63475510  1  0  0.119342  0  0.962643  0  0  0.13455  0  1.02005  0  0  0.137409  0  1.019583  0  0  0.090698  0.132513  0  1.020403  0
H  H30  1  0.40647845  0.06400405  0.86524661  1  0  0.11936  0  0.962798  0  0  0.134579  0  1.020172  0  0  0.137438  0  1.019701  0  0  0.090726  0.132549  0  1.020525  0
H  H31  1  0.40640842  0.43598995  0.36522929  1  0  0.119264  0  0.962425  0  0  0.134529  0  1.019783  0  0  0.13739  0  1.019314  0  0  0.090687  0.132492  0  1.02013  0
H  H32  1  0.24491520  0.89579727  0.07222552  1  0  0.11927  0  0.990087  0  0  0.129495  0  1.056185  0  0  0.132743  0  1.054575  0  0  0.082084  0.127124  0  1.057473  0
H  H33  1  0.24495121  0.60420776  0.57222488  1  0  0.119217  0  0.990039  0  0  0.129451  0  1.056143  0  0  0.1327  0  1.054533  0  0  0.082074  0.127078  0  1.057428  0
H  H34  1  0.75501954  0.10421445  0.92776346  1  0  0.119032  0  0.990178  0  0  0.129346  0  1.056243  0  0  0.132594  0  1.054636  0  0  0.082028  0.126962  0  1.057544  0
H  H35  1  0.75502486  0.39577272  0.42776427  1  0  0.119154  0  0.989759  0  0  0.1294  0  1.055912  0  0  0.132667  0  1.054284  0  0  0.082065  0.126987  0  1.05724  0
H  H36  1  0.86982800  0.34458724  0.20593229  1  0  0.095031  0  0.981616  0  0  0.111029  0  1.057335  0  0  0.112236  0  1.056294  0  0  0.086803  0.109913  0  1.058398  0
H  H37  1  0.86982927  0.15541177  0.70593521  1  0  0.09493  0  0.981684  0  0  0.110919  0  1.057435  0  0  0.112127  0  1.056394  0  0  0.086751  0.1098  0  1.058499  0
H  H38  1  0.13017983  0.65541126  0.79407709  1  0  0.094957  0  0.981545  0  0  0.110956  0  1.057292  0  0  0.112163  0  1.056256  0  0  0.086784  0.109839  0  1.058352  0
H  H39  1  0.13020821  0.84459154  0.29407223  1  0  0.094961  0  0.981496  0  0  0.110914  0  1.057301  0  0  0.112122  0  1.056264  0  0  0.086773  0.109798  0  1.058363  0
H  H40  1  0.92448384  0.32349008  0.30954966  1  0  0.099552  0  0.940179  0  0  0.11967  0  1.003219  0  0  0.120648  0  1.002917  0  0  0.097601  0.118845  0  1.003591  0
H  H41  1  0.92448146  0.17650643  0.80954955  1  0  0.099504  0  0.940165  0  0  0.119619  0  1.003212  0  0  0.120599  0  1.002908  0  0  0.097595  0.118792  0  1.003584  0
H  H42  1  0.07551176  0.67650662  0.69045177  1  0  0.099477  0  0.940091  0  0  0.119582  0  1.003162  0  0  0.12056  0  1.002862  0  0  0.097572  0.118755  0  1.003537  0
H  H43  1  0.07556003  0.82349507  0.19045161  1  0  0.099434  0  0.94024  0  0  0.119585  0  1.003254  0  0  0.120563  0  1.002959  0  0  0.097563  0.118759  0  1.003626  0
H  H44  1  0.57823455  0.29282497  0.24786053  1  0  0.101967  0  0.953807  0  0  0.11863  0  1.021848  0  0  0.119447  0  1.021848  0  0  0.095427  0.117972  0  1.021832  0
H  H45  1  0.57824882  0.20716577  0.74786098  1  0  0.101944  0  0.95379  0  0  0.118624  0  1.02182  0  0  0.119434  0  1.021837  0  0  0.095406  0.11796  0  1.021813  0
H  H46  1  0.42179817  0.70717773  0.75214500  1  0  0.101897  0  0.953766  0  0  0.118547  0  1.021827  0  0  0.119361  0  1.021838  0  0  0.095372  0.117887  0  1.021813  0
H  H47  1  0.42181592  0.79282973  0.25214326  1  0  0.101876  0  0.953776  0  0  0.118535  0  1.021822  0  0  0.119349  0  1.021834  0  0  0.095347  0.117872  0  1.021813  0
C  C48  1  0.11862362  0.21199287  0.17190016  1  0  -0.089093  0  3.402366  0  0  -0.110085  0  3.742411  0  0  -0.103624  0  3.75048  0  0  0.044514  -0.113842  0  3.736165  0
C  C49  1  0.11865305  0.28799922  0.67189415  1  0  -0.08879  0  3.402255  0  0  -0.109823  0  3.742358  0  0  -0.10336  0  3.75043  0  0  0.044555  -0.113577  0  3.736111  0
C  C50  1  0.88137505  0.78801344  0.82810951  1  0  -0.089068  0  3.402513  0  0  -0.110062  0  3.742576  0  0  -0.103598  0  3.750644  0  0  0.04452  -0.113819  0  3.736332  0
C  C51  1  0.88135565  0.71198546  0.32810014  1  0  -0.088774  0  3.402649  0  0  -0.109756  0  3.742669  0  0  -0.103299  0  3.750745  0  0  0.044662  -0.113517  0  3.736428  0
C  C52  1  0.15857797  0.10293618  0.25276151  1  0  -0.064932  0  3.70809  0  0  -0.104749  0  3.969352  0  0  -0.103555  0  3.987557  0  0  -0.009075  -0.105507  0  3.957255  0
C  C53  1  0.15860849  0.39706168  0.75276896  1  0  -0.065126  0  3.707941  0  0  -0.105011  0  3.969262  0  0  -0.103805  0  3.987472  0  0  -0.009192  -0.105767  0  3.957156  0
C  C54  1  0.84140386  0.89705812  0.74724005  1  0  -0.064996  0  3.708212  0  0  -0.104788  0  3.969549  0  0  -0.103598  0  3.987754  0  0  -0.009192  -0.105547  0  3.957444  0
C  C55  1  0.84141249  0.60294523  0.24723387  1  0  -0.065021  0  3.708589  0  0  -0.104924  0  3.969908  0  0  -0.10372  0  3.988107  0  0  -0.009153  -0.105688  0  3.957811  0
C  C56  1  0.99496563  0.15994244  0.28554249  1  0  -0.042868  0  3.687742  0  0  -0.08228  0  3.945761  0  0  -0.079883  0  3.963875  0  0  -0.006019  -0.083867  0  3.933745  0
C  C57  1  0.99497483  0.34004711  0.78554632  1  0  -0.042852  0  3.687597  0  0  -0.082302  0  3.945577  0  0  -0.079888  0  3.963711  0  0  -0.005968  -0.083879  0  3.933543  0
C  C58  1  0.00502350  0.84005966  0.71446338  1  0  -0.04271  0  3.687868  0  0  -0.082251  0  3.945863  0  0  -0.079845  0  3.963984  0  0  -0.005968  -0.083836  0  3.933857  0
C  C59  1  0.00503875  0.65994298  0.21445103  1  0  -0.04283  0  3.687938  0  0  -0.082248  0  3.945929  0  0  -0.079847  0  3.964037  0  0  -0.005974  -0.083828  0  3.933908  0
C  C60  1  0.41230447  0.09397811  0.13146918  1  0  -0.00238  0  3.669621  0  0  -0.06356  0  3.912997  0  0  -0.059232  0  3.924891  0  0  -0.057575  -0.066197  0  3.904877  0
C  C61  1  0.41233698  0.40601446  0.63148194  1  0  -0.002422  0  3.669372  0  0  -0.063324  0  3.912477  0  0  -0.059001  0  3.924357  0  0  -0.057636  -0.065974  0  3.9044  0
C  C62  1  0.58768833  0.90601979  0.86852691  1  0  -0.002398  0  3.669704  0  0  -0.063491  0  3.912938  0  0  -0.059169  0  3.924839  0  0  -0.057562  -0.066122  0  3.904797  0
C  C63  1  0.58768998  0.59399846  0.36851119  1  0  -0.002546  0  3.669577  0  0  -0.063482  0  3.912633  0  0  -0.059169  0  3.924539  0  0  -0.057705  -0.066106  0  3.904491  0
C  C64  1  0.24696669  0.02139252  0.09499628  1  0  -0.040516  0  3.774273  0  0  -0.044568  0  4.023943  0  0  -0.047196  0  4.047553  0  0  -0.09856  -0.042797  0  4.007876  0
C  C65  1  0.24701535  0.47860236  0.59500319  1  0  -0.040414  0  3.77369  0  0  -0.044517  0  4.023271  0  0  -0.047154  0  4.046901  0  0  -0.098417  -0.042748  0  4.007193  0
C  C66  1  0.75298927  0.97861319  0.90499862  1  0  -0.040541  0  3.774377  0  0  -0.044654  0  4.02408  0  0  -0.047289  0  4.047703  0  0  -0.09856  -0.042883  0  4.008011  0
C  C67  1  0.75295404  0.52139193  0.40498807  1  0  -0.040342  0  3.774043  0  0  -0.044469  0  4.023672  0  0  -0.047107  0  4.047307  0  0  -0.09843  -0.042701  0  4.007592  0
C  C68  1  0.36585487  0.94746659  0.10114142  1  0  -0.27393  0  3.661898  0  0  -0.313243  0  3.893225  0  0  -0.318209  0  3.9106  0  0  -0.184836  -0.309745  0  3.881459  0
C  C69  1  0.36588948  0.55253861  0.60114421  1  0  -0.273859  0  3.661189  0  0  -0.313258  0  3.892531  0  0  -0.318231  0  3.909912  0  0  -0.184781  -0.309738  0  3.880751  0
C  C70  1  0.63408453  0.05253612  0.89884829  1  0  -0.273616  0  3.661851  0  0  -0.313096  0  3.893127  0  0  -0.318066  0  3.910508  0  0  -0.184731  -0.309583  0  3.881365  0
C  C71  1  0.63408611  0.44747010  0.39883969  1  0  -0.273776  0  3.661512  0  0  -0.313236  0  3.892849  0  0  -0.318224  0  3.910221  0  0  -0.184758  -0.309679  0  3.881098  0
C  C72  1  0.82730899  0.30120160  0.25097370  1  0  -0.16532  0  3.635486  0  0  -0.266104  0  3.87885  0  0  -0.263001  0  3.887422  0  0  -0.140067  -0.267844  0  3.873038  0
C  C73  1  0.82731961  0.19879625  0.75097461  1  0  -0.165144  0  3.635588  0  0  -0.265924  0  3.878931  0  0  -0.262817  0  3.887497  0  0  -0.140011  -0.267658  0  3.87312  0
C  C74  1  0.17269867  0.69879690  0.74903393  1  0  -0.165059  0  3.635121  0  0  -0.265841  0  3.878554  0  0  -0.262724  0  3.887095  0  0  -0.139963  -0.267578  0  3.872743  0
C  C75  1  0.17271519  0.80120225  0.24902866  1  0  -0.165005  0  3.635549  0  0  -0.265763  0  3.878958  0  0  -0.262643  0  3.887481  0  0  -0.13991  -0.267495  0  3.873143  0
I  I76  1  0.26905350  0.46042525  0.11919762  1  0  -0.333444  0  1.665031  0  0  -0.249781  0  2.111734  0  0  -0.271695  0  2.07776  0  0  -0.155645  -0.234512  0  2.135737  0
I  I77  1  0.26903282  0.03956505  0.61919687  1  0  -0.333512  0  1.665081  0  0  -0.249824  0  2.111744  0  0  -0.271737  0  2.077757  0  0  -0.155653  -0.23454  0  2.135732  0
I  I78  1  0.73097910  0.53957144  0.88080675  1  0  -0.333501  0  1.665125  0  0  -0.249851  0  2.111872  0  0  -0.271771  0  2.077892  0  0  -0.155689  -0.234573  0  2.135852  0
I  I79  1  0.73094655  0.96043225  0.38080287  1  0  -0.333507  0  1.665125  0  0  -0.249831  0  2.111815  0  0  -0.271757  0  2.077853  0  0  -0.155669  -0.234553  0  2.135813  0
I  I80  1  0.53670986  0.27588051  0.95758872  1  0  -0.370858  0  1.622057  0  0  -0.293208  0  2.076967  0  0  -0.314311  0  2.041935  0  0  -0.186646  -0.278382  0  2.101731  0
I  I81  1  0.53671392  0.22411429  0.45758767  1  0  -0.37086  0  1.622084  0  0  -0.293189  0  2.076949  0  0  -0.314295  0  2.04193  0  0  -0.186623  -0.278356  0  2.101714  0
I  I82  1  0.46332072  0.72412040  0.04241849  1  0  -0.370788  0  1.622021  0  0  -0.293128  0  2.07691  0  0  -0.314238  0  2.041887  0  0  -0.186598  -0.278308  0  2.101684  0
I  I83  1  0.46327433  0.77588361  0.54240886  1  0  -0.370793  0  1.621978  0  0  -0.293116  0  2.076817  0  0  -0.314225  0  2.041794  0  0  -0.186607  -0.278293  0  2.101592  0
N  N84  1  0.97439223  0.22573039  0.23565328  1  0  -0.010616  0  3.63031  0  0  0.091409  0  3.841928  0  0  0.076724  0  3.871266  0  0  -0.252152  0.100981  0  3.821923  0
N  N85  1  0.97442144  0.27426379  0.73564493  1  0  -0.010699  0  3.630423  0  0  0.091353  0  3.841987  0  0  0.076663  0  3.871348  0  0  -0.252085  0.100927  0  3.821969  0
N  N86  1  0.02557601  0.77426991  0.76435017  1  0  -0.010708  0  3.630073  0  0  0.091325  0  3.841721  0  0  0.076632  0  3.871061  0  0  -0.252153  0.100897  0  3.821715  0
N  N87  1  0.02560573  0.72573351  0.26435053  1  0  -0.010881  0  3.630401  0  0  0.091122  0  3.842077  0  0  0.076441  0  3.871417  0  0  -0.252237  0.100698  0  3.82207  0
N  N88  1  0.23349430  0.13611840  0.18407351  1  0  -0.053128  0  3.623667  0  0  0.041946  0  3.838842  0  0  0.027123  0  3.867426  0  0  -0.250108  0.051679  0  3.81929  0
N  N89  1  0.23349125  0.36388042  0.68407580  1  0  -0.053114  0  3.623602  0  0  0.041918  0  3.838688  0  0  0.027096  0  3.867274  0  0  -0.250072  0.051647  0  3.819135  0
N  N90  1  0.76651314  0.86388130  0.81593178  1  0  -0.053065  0  3.623803  0  0  0.041971  0  3.838959  0  0  0.02715  0  3.867542  0  0  -0.250114  0.051694  0  3.819425  0
N  N91  1  0.76653093  0.63611328  0.31591543  1  0  -0.053  0  3.624747  0  0  0.042011  0  3.839779  0  0  0.027193  0  3.86836  0  0  -0.25003  0.05174  0  3.820236  0
