# generated using pymatgen
data_CaH22(C9O4)2
_symmetry_space_group_name_H-M   'P 1'
_cell_length_a   6.66995584
_cell_length_b   8.84809980
_cell_length_c   15.88260878
_cell_angle_alpha   95.85598337
_cell_angle_beta   89.99972852
_cell_angle_gamma   89.99969574
_symmetry_Int_Tables_number   1
_chemical_formula_structural   CaH22(C9O4)2
_chemical_formula_sum   'Ca2 H44 C36 O16'
_cell_volume   932.44345750
_cell_formula_units_Z   2
loop_
 _symmetry_equiv_pos_site_id
 _symmetry_equiv_pos_as_xyz
  1  'x, y, z'
loop_
 _atom_site_type_symbol
 _atom_site_label
 _atom_site_symmetry_multiplicity
 _atom_site_fract_x
 _atom_site_fract_y
 _atom_site_fract_z
 _atom_site_occupancy
 _atom_site_hle17_bader_spin_density
 _atom_site_hle17_ddec_charge
 _atom_site_hle17_ddec_spin_density
 _atom_site_hle17_ddec_sum_bond_order
 _atom_site_hle17_magmom
 _atom_site_hse06_10hf_bader_spin_density
 _atom_site_hse06_10hf_ddec_charge
 _atom_site_hse06_10hf_ddec_spin_density
 _atom_site_hse06_10hf_ddec_sum_bond_order
 _atom_site_hse06_10hf_magmom
 _atom_site_hse06_bader_spin_density
 _atom_site_hse06_ddec_charge
 _atom_site_hse06_ddec_spin_density
 _atom_site_hse06_ddec_sum_bond_order
 _atom_site_hse06_magmom
 _atom_site_pbe_bader_spin_density
 _atom_site_pbe_cm5_charge
 _atom_site_pbe_ddec_charge
 _atom_site_pbe_ddec_spin_density
 _atom_site_pbe_ddec_sum_bond_order
 _atom_site_pbe_magmom
Ca  Ca0  1  0.60264234  0.44759225  0.54786046  1  0  1.544649  0  1.110715  0  0  1.416103  0  1.454463  0  0  1.461464  0  1.408821  0  0  0.900579  1.381706  0  1.487325  0
Ca  Ca1  1  0.10265424  0.55240271  0.45214202  1  0  1.544705  0  1.110691  0  0  1.416165  0  1.454463  0  0  1.461516  0  1.408827  0  0  0.900638  1.381764  0  1.487331  0
H  H2  1  0.93470042  0.40409263  0.00870207  1  0  0.091874  0  0.958452  0  0  0.109621  0  1.022618  0  0  0.109799  0  1.023377  0  0  0.102245  0.109501  0  1.021921  0
H  H3  1  0.43470101  0.59588825  0.99130003  1  0  0.091898  0  0.958504  0  0  0.109677  0  1.022617  0  0  0.109852  0  1.023381  0  0  0.10228  0.10956  0  1.021921  0
H  H4  1  0.79119690  0.55345592  0.97028176  1  0  0.087774  0  0.970108  0  0  0.098447  0  1.04581  0  0  0.099477  0  1.045257  0  0  0.096773  0.097358  0  1.046554  0
H  H5  1  0.29119664  0.44653232  0.02972304  1  0  0.087805  0  0.970029  0  0  0.098437  0  1.04579  0  0  0.099466  0  1.045237  0  0  0.096783  0.09735  0  1.046531  0
H  H6  1  0.95368604  0.43844218  0.89984440  1  0  0.080603  0  0.960704  0  0  0.099165  0  1.025423  0  0  0.098926  0  1.026403  0  0  0.094341  0.099158  0  1.024889  0
H  H7  1  0.45368715  0.56155444  0.10016011  1  0  0.080585  0  0.960781  0  0  0.099157  0  1.025482  0  0  0.098921  0  1.026459  0  0  0.094335  0.099155  0  1.024939  0
H  H8  1  0.38270110  0.16582146  0.91229727  1  0  0.105466  0  0.978684  0  0  0.112917  0  1.047097  0  0  0.116673  0  1.044479  0  0  0.103787  0.110268  0  1.049111  0
H  H9  1  0.88270863  0.83418843  0.08770080  1  0  0.10542  0  0.978708  0  0  0.112834  0  1.047186  0  0  0.116589  0  1.044565  0  0  0.103742  0.110189  0  1.049201  0
H  H10  1  0.10884371  0.20226631  0.81089727  1  0  0.092964  0  0.971995  0  0  0.103713  0  1.033417  0  0  0.105572  0  1.034103  0  0  0.098861  0.102431  0  1.032666  0
H  H11  1  0.60885326  0.79774728  0.18909841  1  0  0.093063  0  0.971988  0  0  0.103811  0  1.033423  0  0  0.105669  0  1.034112  0  0  0.098884  0.102562  0  1.032639  0
H  H12  1  0.41728267  0.59394088  0.73414102  1  0  0.099853  0  0.959422  0  0  0.111709  0  1.018724  0  0  0.114793  0  1.01671  0  0  0.110624  0.109476  0  1.020222  0
H  H13  1  0.91726246  0.40605515  0.26585721  1  0  0.099949  0  0.959362  0  0  0.111784  0  1.018667  0  0  0.114864  0  1.016666  0  0  0.110655  0.109544  0  1.02018  0
H  H14  1  0.69007261  0.55572708  0.83279285  1  0  0.105027  0  0.983008  0  0  0.112882  0  1.050111  0  0  0.115832  0  1.049307  0  0  0.102429  0.110733  0  1.050886  0
H  H15  1  0.19005721  0.44427430  0.16720996  1  0  0.105068  0  0.982822  0  0  0.112918  0  1.04994  0  0  0.11587  0  1.049131  0  0  0.102485  0.110752  0  1.050731  0
H  H16  1  0.98390126  0.53870686  0.74119723  1  0  0.116109  0  0.937944  0  0  0.130553  0  1.001661  0  0  0.132235  0  1.001719  0  0  0.108703  0.129856  0  1.000845  0
H  H17  1  0.48387564  0.46132410  0.25880288  1  0  0.116167  0  0.937938  0  0  0.130618  0  1.001612  0  0  0.132295  0  1.001672  0  0  0.108731  0.129924  0  1.000782  0
H  H18  1  0.94746855  0.34349865  0.71500964  1  0  0.121615  0  0.919908  0  0  0.136169  0  0.981296  0  0  0.138387  0  0.980399  0  0  0.113802  0.134992  0  0.981435  0
H  H19  1  0.44747428  0.65652881  0.28499469  1  0  0.121547  0  0.920006  0  0  0.136147  0  0.981282  0  0  0.138366  0  0.980377  0  0  0.113778  0.134963  0  0.981423  0
H  H20  1  0.01909126  0.13883708  0.96716556  1  0  0.099062  0  0.940075  0  0  0.117107  0  1.002931  0  0  0.117458  0  1.003556  0  0  0.105633  0.116822  0  1.002348  0
H  H21  1  0.51906929  0.86114948  0.03283140  1  0  0.099098  0  0.940139  0  0  0.1171  0  1.00303  0  0  0.117453  0  1.003655  0  0  0.105647  0.116811  0  1.002459  0
H  H22  1  0.92680585  0.13096232  0.07237972  1  0  0.080423  0  0.939231  0  0  0.098733  0  1.005028  0  0  0.099064  0  1.004803  0  0  0.096616  0.098367  0  1.005259  0
H  H23  1  0.42681436  0.86901198  0.92761874  1  0  0.080487  0  0.939237  0  0  0.09876  0  1.005061  0  0  0.099093  0  1.004832  0  0  0.096606  0.098393  0  1.005293  0
H  H24  1  0.07513498  0.97725566  0.02217609  1  0  0.086296  0  0.955468  0  0  0.09969  0  1.027415  0  0  0.100583  0  1.026537  0  0  0.098433  0.098767  0  1.028308  0
H  H25  1  0.57508627  0.02272970  0.97781753  1  0  0.086195  0  0.955674  0  0  0.099606  0  1.027622  0  0  0.100488  0  1.026771  0  0  0.098431  0.098692  0  1.028491  0
H  H26  1  0.06586143  0.00696183  0.17348928  1  0  0.094168  0  0.995348  0  0  0.103968  0  1.061754  0  0  0.1064  0  1.06164  0  0  0.097072  0.10221  0  1.062248  0
H  H27  1  0.56584096  0.99302860  0.82651545  1  0  0.094126  0  0.995267  0  0  0.10392  0  1.061691  0  0  0.106351  0  1.061577  0  0  0.097037  0.102165  0  1.062183  0
H  H28  1  0.23578666  0.93963929  0.30170214  1  0  0.106846  0  0.973234  0  0  0.117324  0  1.034749  0  0  0.121359  0  1.031378  0  0  0.099198  0.114245  0  1.03735  0
H  H29  1  0.73576057  0.06035953  0.69830165  1  0  0.106841  0  0.97331  0  0  0.117339  0  1.034788  0  0  0.121373  0  1.031413  0  0  0.099243  0.11426  0  1.037392  0
H  H30  1  0.75762662  0.19044436  0.23798957  1  0  0.089097  0  0.961258  0  0  0.102012  0  1.021763  0  0  0.104698  0  1.02042  0  0  0.099124  0.0998  0  1.023075  0
H  H31  1  0.25763603  0.80955799  0.76201068  1  0  0.089097  0  0.961189  0  0  0.102006  0  1.021708  0  0  0.104692  0  1.020366  0  0  0.099108  0.099794  0  1.02302  0
H  H32  1  0.58467849  0.26235882  0.10853985  1  0  0.109833  0  0.951314  0  0  0.119682  0  1.014169  0  0  0.123638  0  1.011967  0  0  0.102678  0.116816  0  1.015999  0
H  H33  1  0.08467333  0.73764012  0.89145477  1  0  0.109821  0  0.951338  0  0  0.119699  0  1.014158  0  0  0.123655  0  1.011958  0  0  0.102689  0.116835  0  1.01599  0
H  H34  1  0.55963257  0.90476493  0.37322692  1  0  0.117076  0  0.916317  0  0  0.13496  0  0.969475  0  0  0.137113  0  0.968467  0  0  0.107168  0.133495  0  0.9699  0
H  H35  1  0.05961997  0.09523484  0.62677474  1  0  0.117116  0  0.916323  0  0  0.134961  0  0.969471  0  0  0.137126  0  0.968448  0  0  0.107178  0.133495  0  0.9699  0
H  H36  1  0.77715895  0.00808176  0.34630261  1  0  0.105891  0  0.934441  0  0  0.121436  0  0.993432  0  0  0.124036  0  0.991418  0  0  0.100733  0.11942  0  0.995236  0
H  H37  1  0.27713545  0.99192830  0.65370071  1  0  0.105828  0  0.93481  0  0  0.121373  0  0.993721  0  0  0.123975  0  0.991718  0  0  0.100717  0.11937  0  0.995499  0
H  H38  1  0.45239238  0.25543864  0.67007326  1  0  0.394219  0  0.892359  0  0  0.368533  0  0.967364  0  0  0.375483  0  0.957797  0  0  0.298527  0.363584  0  0.972884  0
H  H39  1  0.95241108  0.74456184  0.32992398  1  0  0.394199  0  0.892222  0  0  0.368523  0  0.967345  0  0  0.375472  0  0.957779  0  0  0.298531  0.363574  0  0.972753  0
H  H40  1  0.48762733  0.17475564  0.57781357  1  0  0.4127  0  0.89483  0  0  0.380646  0  0.96253  0  0  0.391827  0  0.946277  0  0  0.295189  0.372722  0  0.974026  0
H  H41  1  0.98763687  0.82524487  0.42218047  1  0  0.412787  0  0.894766  0  0  0.38073  0  0.962421  0  0  0.391911  0  0.946166  0  0  0.29527  0.372803  0  0.973921  0
H  H42  1  0.68616035  0.77928449  0.57343974  1  0  0.433428  0  0.856319  0  0  0.403161  0  0.91829  0  0  0.41305  0  0.903964  0  0  0.30218  0.396082  0  0.928534  0
H  H43  1  0.18616432  0.22071259  0.42655898  1  0  0.433423  0  0.856312  0  0  0.403163  0  0.918272  0  0  0.413052  0  0.903948  0  0  0.302178  0.396085  0  0.928513  0
H  H44  1  0.44872555  0.75201726  0.57945592  1  0  0.429739  0  0.87288  0  0  0.39732  0  0.938789  0  0  0.409172  0  0.921497  0  0  0.295683  0.38889  0  0.951073  0
H  H45  1  0.94873153  0.24797953  0.42054609  1  0  0.429725  0  0.872888  0  0  0.397318  0  0.938783  0  0  0.409171  0  0.92149  0  0  0.295674  0.38889  0  0.951062  0
C  C46  1  0.85206285  0.43869410  0.95439663  1  0  -0.085756  0  3.62284  0  0  -0.181181  0  3.883974  0  0  -0.174196  0  3.887335  0  0  -0.148003  -0.1855  0  3.8816  0
C  C47  1  0.35206462  0.56129621  0.04560695  1  0  -0.085852  0  3.623075  0  0  -0.181219  0  3.884196  0  0  -0.174238  0  3.887555  0  0  -0.14803  -0.185545  0  3.881825  0
C  C48  1  0.55524903  0.35583148  0.87880841  1  0  0.26546  0  3.823814  0  0  0.257606  0  4.077954  0  0  0.268533  0  4.094822  0  0  0.081158  0.25012  0  4.066644  0
C  C49  1  0.05523883  0.64416611  0.12119184  1  0  0.265306  0  3.824209  0  0  0.257525  0  4.078276  0  0  0.268446  0  4.095144  0  0  0.081133  0.25005  0  4.066955  0
C  C50  1  0.39106992  0.25657241  0.87119970  1  0  -0.18059  0  3.770868  0  0  -0.203761  0  4.029163  0  0  -0.208413  0  4.047713  0  0  -0.106835  -0.200782  0  4.016776  0
C  C51  1  0.89108056  0.74342976  0.12879337  1  0  -0.180336  0  3.770865  0  0  -0.203452  0  4.029079  0  0  -0.208103  0  4.047631  0  0  -0.106665  -0.200483  0  4.01671  0
C  C52  1  0.23670184  0.27974791  0.81527721  1  0  -0.120602  0  3.78485  0  0  -0.136342  0  4.028306  0  0  -0.13688  0  4.048777  0  0  -0.09664  -0.135678  0  4.014002  0
C  C53  1  0.73670897  0.72026730  0.18471963  1  0  -0.120956  0  3.784913  0  0  -0.136768  0  4.028417  0  0  -0.137312  0  4.048892  0  0  -0.0968  -0.136134  0  4.014108  0
C  C54  1  0.23975121  0.40266155  0.76584665  1  0  0.071432  0  3.804323  0  0  0.091899  0  4.039498  0  0  0.091241  0  4.062658  0  0  -0.027112  0.092237  0  4.023688  0
C  C55  1  0.73976008  0.59735675  0.23415546  1  0  0.071389  0  3.804424  0  0  0.091939  0  4.039466  0  0  0.091279  0  4.062623  0  0  -0.027105  0.092277  0  4.023652  0
C  C56  1  0.40747010  0.49895224  0.77266744  1  0  -0.105787  0  3.75238  0  0  -0.122704  0  3.994409  0  0  -0.122951  0  4.01394  0  0  -0.086198  -0.121881  0  3.980856  0
C  C57  1  0.90747370  0.50105848  0.22733380  1  0  -0.105733  0  3.75257  0  0  -0.122651  0  3.994562  0  0  -0.122902  0  4.014091  0  0  -0.086157  -0.121826  0  3.980988  0
C  C58  1  0.56474524  0.47656221  0.82818037  1  0  -0.204506  0  3.767342  0  0  -0.221047  0  4.015145  0  0  -0.226556  0  4.035584  0  0  -0.108771  -0.217636  0  4.001564  0
C  C59  1  0.06473974  0.52345218  0.17182428  1  0  -0.204481  0  3.767648  0  0  -0.221033  0  4.015436  0  0  -0.226539  0  4.03587  0  0  -0.108827  -0.217608  0  4.001861  0
C  C60  1  0.05983869  0.43434518  0.71363386  1  0  -0.320866  0  3.71594  0  0  -0.36694  0  3.962953  0  0  -0.37211  0  3.969445  0  0  -0.153714  -0.363785  0  3.957968  0
C  C61  1  0.55983814  0.56567525  0.28636557  1  0  -0.320996  0  3.715795  0  0  -0.367045  0  3.962731  0  0  -0.372195  0  3.969194  0  0  -0.15375  -0.36388  0  3.957715  0
C  C62  1  0.09213023  0.45881567  0.62151750  1  0  0.765184  0  3.814867  0  0  0.719119  0  4.108142  0  0  0.754007  0  4.098213  0  0  0.241134  0.695373  0  4.113932  0
C  C63  1  0.59213023  0.54118294  0.37848213  1  0  0.765355  0  3.814475  0  0  0.719254  0  4.107809  0  0  0.754141  0  4.097878  0  0  0.241252  0.6955  0  4.113604  0
C  C64  1  0.05308379  0.10106655  0.02910897  1  0  -0.078716  0  3.626505  0  0  -0.174104  0  3.890637  0  0  -0.166944  0  3.893634  0  0  -0.142261  -0.178379  0  3.887993  0
C  C65  1  0.55308020  0.89891399  0.97089062  1  0  -0.078887  0  3.626939  0  0  -0.174255  0  3.891065  0  0  -0.167101  0  3.894058  0  0  -0.142344  -0.178527  0  3.888429  0
C  C66  1  0.31497383  0.13879099  0.13224202  1  0  0.2506  0  3.831526  0  0  0.244073  0  4.085218  0  0  0.254301  0  4.102762  0  0  0.073304  0.237195  0  4.073624  0
C  C67  1  0.81496875  0.86120429  0.86775759  1  0  0.250539  0  3.831514  0  0  0.243988  0  4.085263  0  0  0.254213  0  4.10281  0  0  0.073272  0.237119  0  4.073656  0
C  C68  1  0.21673927  0.04919722  0.18705991  1  0  -0.19711  0  3.777311  0  0  -0.215388  0  4.025831  0  0  -0.220653  0  4.046392  0  0  -0.113847  -0.212791  0  4.012926  0
C  C69  1  0.71672674  0.95079173  0.81293877  1  0  -0.196954  0  3.77719  0  0  -0.215217  0  4.025691  0  0  -0.22048  0  4.046254  0  0  -0.113786  -0.212626  0  4.012781  0
C  C70  1  0.31387154  0.01069085  0.25980891  1  0  -0.09562  0  3.737869  0  0  -0.115906  0  3.985313  0  0  -0.11567  0  4.003581  0  0  -0.093258  -0.115396  0  3.972713  0
C  C71  1  0.81385963  0.98930561  0.74019017  1  0  -0.095786  0  3.73796  0  0  -0.116094  0  3.985408  0  0  -0.115853  0  4.003687  0  0  -0.093329  -0.11559  0  3.972814  0
C  C72  1  0.50958319  0.05953647  0.27905356  1  0  0.089733  0  3.770407  0  0  0.10751  0  4.013275  0  0  0.106184  0  4.038547  0  0  -0.020531  0.108517  0  3.995048  0
C  C73  1  0.00958172  0.94046368  0.72094570  1  0  0.089918  0  3.770377  0  0  0.107661  0  4.013191  0  0  0.106332  0  4.038473  0  0  -0.020498  0.108674  0  3.994959  0
C  C74  1  0.60470828  0.15163064  0.22413916  1  0  -0.110778  0  3.769952  0  0  -0.130265  0  4.019497  0  0  -0.131229  0  4.041173  0  0  -0.096661  -0.128825  0  4.003666  0
C  C75  1  0.10471127  0.84837476  0.77586033  1  0  -0.110592  0  3.769795  0  0  -0.130073  0  4.019331  0  0  -0.131037  0  4.041013  0  0  -0.096534  -0.128638  0  4.003507  0
C  C76  1  0.50936012  0.19230050  0.15166012  1  0  -0.201323  0  3.787283  0  0  -0.222111  0  4.047735  0  0  -0.227164  0  4.066947  0  0  -0.112838  -0.21933  0  4.034886  0
C  C77  1  0.00936251  0.80771449  0.84833900  1  0  -0.201502  0  3.787522  0  0  -0.222322  0  4.048011  0  0  -0.227372  0  4.067216  0  0  -0.112935  -0.219549  0  4.035174  0
C  C78  1  0.61476798  0.01528253  0.35721535  1  0  -0.304203  0  3.686992  0  0  -0.351789  0  3.938736  0  0  -0.356341  0  3.944882  0  0  -0.159153  -0.348516  0  3.934158  0
C  C79  1  0.11475516  0.98472047  0.64278520  1  0  -0.304381  0  3.687571  0  0  -0.351834  0  3.939092  0  0  -0.3564  0  3.945247  0  0  -0.159187  -0.348557  0  3.934516  0
C  C80  1  0.57552398  0.13136915  0.43354355  1  0  0.729661  0  3.81648  0  0  0.682395  0  4.117391  0  0  0.715077  0  4.110301  0  0  0.226078  0.66026  0  4.12131  0
C  C81  1  0.07552187  0.86862714  0.56645782  1  0  0.729832  0  3.81629  0  0  0.682525  0  4.117187  0  0  0.715202  0  4.110103  0  0  0.226123  0.660384  0  4.121119  0
O  O82  1  0.26415107  0.45585052  0.58814270  1  0  -0.739436  0  2.035616  0  0  -0.676553  0  2.287644  0  0  -0.705561  0  2.278037  0  0  -0.371447  -0.656029  0  2.293544  0
O  O83  1  0.76415215  0.54414840  0.41185728  1  0  -0.739452  0  2.035486  0  0  -0.676542  0  2.287488  0  0  -0.705559  0  2.277907  0  0  -0.371451  -0.65602  0  2.293391  0
O  O84  1  0.93525142  0.48596251  0.57936432  1  0  -0.770347  0  2.009409  0  0  -0.703376  0  2.262755  0  0  -0.734148  0  2.252135  0  0  -0.421184  -0.681412  0  2.269269  0
O  O85  1  0.43523248  0.51404820  0.42063499  1  0  -0.77035  0  2.009225  0  0  -0.703492  0  2.262734  0  0  -0.734268  0  2.252117  0  0  -0.421274  -0.68153  0  2.269251  0
O  O86  1  0.69500081  0.32858795  0.93839410  1  0  -0.264578  0  2.330345  0  0  -0.188512  0  2.569879  0  0  -0.206506  0  2.573158  0  0  -0.193353  -0.176078  0  2.567453  0
O  O87  1  0.19501364  0.67140783  0.06160639  1  0  -0.264482  0  2.330281  0  0  -0.188583  0  2.569885  0  0  -0.20657  0  2.57316  0  0  -0.193428  -0.176151  0  2.567463  0
O  O88  1  0.41056914  0.12600334  0.47344574  1  0  -0.665978  0  1.903865  0  0  -0.604746  0  2.112729  0  0  -0.629251  0  2.102078  0  0  -0.31629  -0.587464  0  2.11949  0
O  O89  1  0.91056810  0.87398696  0.52655333  1  0  -0.666088  0  1.9037  0  0  -0.604845  0  2.112576  0  0  -0.629349  0  2.101928  0  0  -0.316336  -0.587555  0  2.11934  0
O  O90  1  0.71009713  0.23156671  0.45336935  1  0  -0.711986  0  1.998748  0  0  -0.642711  0  2.228752  0  0  -0.671795  0  2.220161  0  0  -0.351359  -0.622437  0  2.234109  0
O  O91  1  0.21008544  0.76842655  0.54663408  1  0  -0.712034  0  1.998809  0  0  -0.642744  0  2.228828  0  0  -0.671824  0  2.220237  0  0  -0.351353  -0.62247  0  2.234193  0
O  O92  1  0.23390465  0.17727314  0.05769830  1  0  -0.273624  0  2.3607  0  0  -0.196589  0  2.603453  0  0  -0.21452  0  2.607265  0  0  -0.195229  -0.183961  0  2.600204  0
O  O93  1  0.73390342  0.82271891  0.94230436  1  0  -0.273452  0  2.360594  0  0  -0.196407  0  2.60334  0  0  -0.214331  0  2.607151  0  0  -0.195166  -0.183783  0  2.600086  0
O  O94  1  0.55762281  0.22743152  0.62856725  1  0  -0.846629  0  1.843509  0  0  -0.797627  0  2.021712  0  0  -0.817432  0  1.994289  0  0  -0.607215  -0.783188  0  2.039723  0
O  O95  1  0.05763870  0.77256152  0.37143265  1  0  -0.846693  0  1.84333  0  0  -0.797707  0  2.021629  0  0  -0.817508  0  1.994205  0  0  -0.607308  -0.783266  0  2.039532  0
O  O96  1  0.58322874  0.71200411  0.59411739  1  0  -0.898305  0  1.773151  0  0  -0.846724  0  1.949756  0  0  -0.867977  0  1.918036  0  0  -0.630157  -0.831261  0  1.972045  0
O  O97  1  0.08323400  0.28799343  0.40588154  1  0  -0.898325  0  1.773147  0  0  -0.846729  0  1.949696  0  0  -0.867979  0  1.917976  0  0  -0.630133  -0.831268  0  1.97198  0
