# generated using pymatgen
data_Zn2H24C35N3O8
_symmetry_space_group_name_H-M   'P 1'
_cell_length_a   13.94552844
_cell_length_b   14.12443370
_cell_length_c   16.12491056
_cell_angle_alpha   109.56448005
_cell_angle_beta   89.99996687
_cell_angle_gamma   90.00020265
_symmetry_Int_Tables_number   1
_chemical_formula_structural   Zn2H24C35N3O8
_chemical_formula_sum   'Zn8 H96 C140 N12 O32'
_cell_volume   2992.79176986
_cell_formula_units_Z   4
loop_
 _symmetry_equiv_pos_site_id
 _symmetry_equiv_pos_as_xyz
  1  'x, y, z'
loop_
 _atom_site_type_symbol
 _atom_site_label
 _atom_site_symmetry_multiplicity
 _atom_site_fract_x
 _atom_site_fract_y
 _atom_site_fract_z
 _atom_site_occupancy
 _atom_site_pbe_bader_charge
 _atom_site_pbe_bader_spin_density
 _atom_site_pbe_cm5_charge
 _atom_site_pbe_ddec_charge
 _atom_site_pbe_ddec_spin_density
 _atom_site_pbe_ddec_sum_bond_order
 _atom_site_pbe_magmom
Zn  Zn0  1  0.74852401  0.24999943  0.75000052  1  1.263674  0  0.669065  0.808841  0  2.377132  0
Zn  Zn1  1  0.25147542  0.74999721  0.24999815  1  1.263714  0  0.66909  0.808795  0  2.377198  0
Zn  Zn2  1  0.95110866  0.25000206  0.75000122  1  1.278678  0  0.670388  0.809144  0  2.437002  0
Zn  Zn3  1  0.04889077  0.74999609  0.24999850  1  1.278696  0  0.670381  0.809121  0  2.437014  0
Zn  Zn4  1  0.50995185  0.10235612  0.99718977  1  1.290108  0  0.672205  0.82918  0  2.370067  0
Zn  Zn5  1  0.50995756  0.39764183  0.50280802  1  1.290288  0  0.672194  0.829093  0  2.370156  0
Zn  Zn6  1  0.49004830  0.89764353  0.00281038  1  1.29006  0  0.67219  0.829086  0  2.370188  0
Zn  Zn7  1  0.49005191  0.60235478  0.49718753  1  1.290028  0  0.672233  0.829232  0  2.370045  0
H  H8  1  0.93062198  0.21631726  0.01499633  1  0.074574  0  0.100329  0.11228  0  1.04632  0
H  H9  1  0.93062124  0.28368210  0.48500607  1  0.074673  0  0.100311  0.112306  0  1.046321  0
H  H10  1  0.06937673  0.78368465  0.98500509  1  0.074599  0  0.10031  0.112266  0  1.04639  0
H  H11  1  0.06938465  0.71631832  0.51499616  1  0.074743  0  0.10034  0.112302  0  1.046383  0
H  H12  1  0.75568221  0.07910501  0.94850437  1  0.100029  0  0.106347  0.111032  0  1.021994  0
H  H13  1  0.75568438  0.42090063  0.55149674  1  0.099854  0  0.1064  0.111112  0  1.021872  0
H  H14  1  0.24431794  0.92089538  0.05149475  1  0.10006  0  0.106359  0.111073  0  1.021957  0
H  H15  1  0.24432365  0.57910502  0.44850327  1  0.09987  0  0.106381  0.111092  0  1.02188  0
H  H16  1  0.99231538  0.10736246  0.05974038  1  0.071405  0  0.098728  0.096565  0  1.04023  0
H  H17  1  0.99232151  0.39263938  0.44026145  1  0.07129  0  0.098736  0.096555  0  1.040247  0
H  H18  1  0.00768261  0.89263870  0.94026020  1  0.071344  0  0.098726  0.096518  0  1.040271  0
H  H19  1  0.00769155  0.60736252  0.55973872  1  0.066215  0  0.098729  0.096505  0  1.040358  0
H  H20  1  0.04192382  0.02417639  0.16567694  1  0.080008  0  0.101614  0.105143  0  0.995147  0
H  H21  1  0.04192960  0.47582265  0.33432208  1  0.079893  0  0.101667  0.105244  0  0.994989  0
H  H22  1  0.95807489  0.97582175  0.83432215  1  0.079967  0  0.10165  0.105185  0  0.995165  0
H  H23  1  0.95808131  0.52417923  0.66567685  1  0.080103  0  0.101617  0.105137  0  0.995195  0
H  H24  1  0.92481918  0.92558005  0.21742278  1  0.082231  0  0.096249  0.092542  0  1.064415  0
H  H25  1  0.92482498  0.57442064  0.28257747  1  0.082171  0  0.096282  0.092675  0  1.0643  0
H  H26  1  0.07517882  0.07441959  0.78257613  1  0.082219  0  0.096238  0.092534  0  1.0644  0
H  H27  1  0.07518521  0.42558276  0.71742252  1  0.082264  0  0.096189  0.092443  0  1.064554  0
H  H28  1  0.75354636  0.91591502  0.16741327  1  0.078996  0  0.09828  0.09739  0  1.027459  0
H  H29  1  0.75355360  0.58408729  0.33258753  1  0.079047  0  0.098288  0.097473  0  1.027288  0
H  H30  1  0.24645092  0.08408612  0.83258607  1  0.07903  0  0.098278  0.097418  0  1.027329  0
H  H31  1  0.24645516  0.41591462  0.66741327  1  0.078759  0  0.098289  0.097414  0  1.027478  0
H  H32  1  0.94841007  0.55932180  0.96566190  1  0.057686  0  0.100762  0.101319  0  1.004214  0
H  H33  1  0.94841018  0.94068218  0.53434044  1  0.057794  0  0.100767  0.101306  0  1.00419  0
H  H34  1  0.05159294  0.44067934  0.03433743  1  0.049212  0  0.10076  0.101319  0  1.004196  0
H  H35  1  0.05158710  0.05931597  0.46565928  1  0.057707  0  0.100805  0.101355  0  1.004206  0
H  H36  1  0.94054438  0.74380517  0.04020376  1  0.102985  0  0.097655  0.103187  0  1.057017  0
H  H37  1  0.94054785  0.75619784  0.45979838  1  0.102704  0  0.097675  0.103164  0  1.056997  0
H  H38  1  0.05945433  0.25619595  0.95979433  1  0.102948  0  0.097657  0.103145  0  1.057084  0
H  H39  1  0.05944871  0.24379955  0.54020050  1  0.102655  0  0.097668  0.103149  0  1.057023  0
H  H40  1  0.83945810  0.84815838  0.97550043  1  0.044892  0  0.09642  0.096611  0  1.039894  0
H  H41  1  0.83946220  0.65184293  0.52450059  1  0.044857  0  0.096405  0.096589  0  1.039887  0
H  H42  1  0.16053918  0.15184124  0.02449723  1  0.044856  0  0.096432  0.096655  0  1.039846  0
H  H43  1  0.16053652  0.34815448  0.47550016  1  0.044761  0  0.096394  0.09658  0  1.039886  0
H  H44  1  0.74302422  0.76694725  0.84257244  1  0.068917  0  0.099093  0.100733  0  1.034652  0
H  H45  1  0.74302422  0.73305293  0.65742582  1  0.068946  0  0.099109  0.100766  0  1.034634  0
H  H46  1  0.25697593  0.23304861  0.15742353  1  0.068893  0  0.0991  0.100746  0  1.034606  0
H  H47  1  0.25697736  0.26694451  0.34257741  1  0.06906  0  0.099127  0.100854  0  1.034591  0
H  H48  1  0.73570744  0.48982063  0.71658434  1  0.106167  0  0.104274  0.109349  0  1.028062  0
H  H49  1  0.73570297  0.01017890  0.78341379  1  0.106189  0  0.104273  0.109272  0  1.028155  0
H  H50  1  0.26429558  0.51017675  0.28341330  1  0.106226  0  0.104301  0.109351  0  1.028076  0
H  H51  1  0.26429646  0.98981777  0.21658799  1  0.106063  0  0.104295  0.109309  0  1.0281  0
H  H52  1  0.62166692  0.68858212  0.77642499  1  0.113589  0  0.101104  0.117478  0  1.048276  0
H  H53  1  0.62166716  0.81141386  0.72357212  1  0.113058  0  0.101118  0.117526  0  1.048197  0
H  H54  1  0.37833538  0.31141379  0.22357533  1  0.113073  0  0.101106  0.117499  0  1.048267  0
H  H55  1  0.37833371  0.18858278  0.27642592  1  0.113577  0  0.101115  0.117509  0  1.048195  0
H  H56  1  0.10345508  0.38333107  0.85529606  1  0.121815  0  0.127074  0.099075  0  0.977546  0
H  H57  1  0.10345180  0.11667204  0.64469410  1  0.121697  0  0.127111  0.099158  0  0.977466  0
H  H58  1  0.89653933  0.61666857  0.14470347  1  0.121673  0  0.127081  0.099136  0  0.977501  0
H  H59  1  0.89655122  0.88333207  0.35530298  1  0.121699  0  0.127101  0.099074  0  0.977513  0
H  H60  1  0.28195245  0.39290499  0.85707100  1  0.148117  0  0.108823  0.117757  0  1.038764  0
H  H61  1  0.28195058  0.10709503  0.64291819  1  0.148599  0  0.10876  0.117675  0  1.038779  0
H  H62  1  0.71804124  0.60710217  0.14293006  1  0.148551  0  0.108807  0.117765  0  1.03865  0
H  H63  1  0.71805244  0.89291436  0.35708165  1  0.1485  0  0.108772  0.117663  0  1.038811  0
H  H64  1  0.41807590  0.11357946  0.78329188  1  0.105056  0  0.113979  0.1288  0  1.007576  0
H  H65  1  0.41808286  0.38642191  0.71670756  1  0.104524  0  0.11397  0.128813  0  1.007586  0
H  H66  1  0.58191780  0.88642923  0.21671334  1  0.105109  0  0.11397  0.128813  0  1.007596  0
H  H67  1  0.58192087  0.61358298  0.28329224  1  0.105132  0  0.114015  0.128861  0  1.007517  0
H  H68  1  0.59598526  0.11828269  0.78119244  1  0.157831  0  0.121815  0.101564  0  1.021994  0
H  H69  1  0.59599078  0.38171642  0.71881495  1  0.157864  0  0.121835  0.101578  0  1.022074  0
H  H70  1  0.40400915  0.88171774  0.21881104  1  0.158259  0  0.121796  0.101493  0  1.022157  0
H  H71  1  0.40401224  0.61828398  0.28118542  1  0.157893  0  0.121832  0.101569  0  1.022086  0
H  H72  1  0.37099250  0.26685576  0.04564930  1  0.135286  0  0.116487  0.089888  0  1.030971  0
H  H73  1  0.37099733  0.23314298  0.45434700  1  0.135415  0  0.116503  0.089916  0  1.030875  0
H  H74  1  0.62900621  0.73314386  0.95434774  1  0.135272  0  0.116481  0.089869  0  1.030958  0
H  H75  1  0.62900784  0.76685515  0.54565024  1  0.135306  0  0.116488  0.089875  0  1.030929  0
H  H76  1  0.35784738  0.44316243  0.05158559  1  0.0948  0  0.110598  0.121768  0  1.020256  0
H  H77  1  0.35785086  0.05683473  0.44840778  1  0.09478  0  0.110611  0.121767  0  1.020162  0
H  H78  1  0.64214846  0.55683488  0.94840521  1  0.094809  0  0.11061  0.121782  0  1.020123  0
H  H79  1  0.64215144  0.94316263  0.55158800  1  0.09482  0  0.110567  0.121747  0  1.020191  0
H  H80  1  0.64726526  0.41457178  0.94558385  1  0.127882  0  0.110893  0.125312  0  1.022748  0
H  H81  1  0.64726623  0.08542595  0.55441566  1  0.127858  0  0.110891  0.125284  0  1.022736  0
H  H82  1  0.35272987  0.58542477  0.05440611  1  0.127947  0  0.110916  0.125285  0  1.022826  0
H  H83  1  0.35273033  0.91457078  0.44559171  1  0.128066  0  0.110925  0.125317  0  1.022776  0
H  H84  1  0.64886905  0.24227517  0.94848561  1  0.170811  0  0.122714  0.105455  0  1.010303  0
H  H85  1  0.64887207  0.25772256  0.55151453  1  0.170823  0  0.122697  0.105447  0  1.010294  0
H  H86  1  0.35112967  0.75772523  0.05151476  1  0.170776  0  0.122695  0.105435  0  1.010329  0
H  H87  1  0.35113166  0.74227108  0.44848452  1  0.170838  0  0.122678  0.105384  0  1.01037  0
H  H88  1  0.57331356  0.45149164  0.17522734  1  0.05557  0  0.10154  0.06455  0  1.018717  0
H  H89  1  0.57331422  0.04851317  0.32477741  1  0.055646  0  0.101537  0.064504  0  1.01881  0
H  H90  1  0.42668301  0.54851250  0.82477286  1  0.055693  0  0.101535  0.06449  0  1.018713  0
H  H91  1  0.42668450  0.95148355  0.67522872  1  0.055918  0  0.10154  0.064463  0  1.01872  0
H  H92  1  0.57067089  0.32807185  0.25428187  1  0.107395  0  0.106475  0.119642  0  1.022493  0
H  H93  1  0.57067276  0.17193448  0.24572580  1  0.10715  0  0.106475  0.119681  0  1.022567  0
H  H94  1  0.42931923  0.67193533  0.74572230  1  0.107258  0  0.10649  0.119739  0  1.022474  0
H  H95  1  0.42931735  0.82806452  0.75428347  1  0.107744  0  0.106487  0.119705  0  1.022547  0
H  H96  1  0.87024425  0.27153772  0.18868884  1  0.079837  0  0.104784  0.109426  0  1.012105  0
H  H97  1  0.87024485  0.22846898  0.31131941  1  0.079867  0  0.104732  0.109364  0  1.012148  0
H  H98  1  0.12974801  0.72846428  0.81132129  1  0.079964  0  0.104733  0.109295  0  1.012149  0
H  H99  1  0.12974598  0.77153820  0.68868414  1  0.079744  0  0.104764  0.109378  0  1.012061  0
H  H100  1  0.86166398  0.40030295  0.11562985  1  0.065408  0  0.107863  0.07533  0  0.983748  0
H  H101  1  0.86166478  0.09970069  0.38437567  1  0.065357  0  0.107859  0.075375  0  0.983714  0
H  H102  1  0.13833259  0.59969451  0.88437525  1  0.065631  0  0.107854  0.075368  0  0.983722  0
H  H103  1  0.13833393  0.90030421  0.61562537  1  0.065308  0  0.107855  0.075378  0  0.983744  0
C  C104  1  0.85477229  0.21468523  0.89725526  1  1.507739  0  0.207493  0.628407  0  4.17746  0
C  C105  1  0.85477036  0.28531403  0.60274584  1  1.50775  0  0.207576  0.628628  0  4.177262  0
C  C106  1  0.14522857  0.78531216  0.10274362  1  1.507718  0  0.207566  0.628513  0  4.177374  0
C  C107  1  0.14523050  0.71468563  0.39725494  1  1.507712  0  0.207649  0.628695  0  4.17702  0
C  C108  1  0.86899039  0.18249429  0.97434918  1  -0.005832  0  -0.104776  -0.254972  0  3.948613  0
C  C109  1  0.86898934  0.31750951  0.52565073  1  -0.005792  0  -0.104767  -0.255079  0  3.948978  0
C  C110  1  0.13100689  0.81750537  0.02565159  1  -0.005882  0  -0.104764  -0.255013  0  3.948499  0
C  C111  1  0.13101583  0.68249391  0.47435112  1  -0.005778  0  -0.104743  -0.25495  0  3.948686  0
C  C112  1  0.81776666  0.10947813  0.99002276  1  -0.081066  0  -0.07257  -0.055047  0  3.951275  0
C  C113  1  0.81777163  0.39052174  0.50997853  1  -0.08101  0  -0.072643  -0.05513  0  3.951573  0
C  C114  1  0.18223277  0.89052377  0.00997741  1  -0.081048  0  -0.072569  -0.055046  0  3.95111  0
C  C115  1  0.18223785  0.60948017  0.49002289  1  -0.08118  0  -0.072659  -0.055212  0  3.951317  0
C  C116  1  0.84313631  0.06519287  0.05718586  1  0.014933  0  -0.00432  0.082139  0  3.976453  0
C  C117  1  0.84314043  0.43480765  0.44281444  1  0.015039  0  -0.004352  0.082083  0  3.976149  0
C  C118  1  0.15686384  0.93480678  0.94281367  1  0.014948  0  -0.004355  0.082028  0  3.97646  0
C  C119  1  0.15686904  0.56519425  0.55718574  1  0.014903  0  -0.004297  0.08222  0  3.976245  0
C  C120  1  0.93891539  0.06888454  0.08614933  1  -0.065436  0  -0.08798  -0.132088  0  3.968281  0
C  C121  1  0.93892096  0.43111559  0.41385142  1  -0.065141  0  -0.087976  -0.132019  0  3.968054  0
C  C122  1  0.06108117  0.93111511  0.91385020  1  -0.06507  0  -0.087922  -0.131872  0  3.968093  0
C  C123  1  0.06108995  0.56888630  0.58614813  1  -0.059994  0  -0.088013  -0.132044  0  3.968273  0
C  C124  1  0.96745347  0.02053216  0.14429982  1  -0.082593  0  -0.086822  -0.067095  0  3.996509  0
C  C125  1  0.96745781  0.47946807  0.35570033  1  -0.082916  0  -0.086863  -0.067202  0  3.996453  0
C  C126  1  0.03254453  0.97946748  0.85569971  1  -0.082946  0  -0.086891  -0.067264  0  3.996647  0
C  C127  1  0.03255166  0.52053383  0.64429985  1  -0.082635  0  -0.08672  -0.067052  0  3.996535  0
C  C128  1  0.90109553  0.96432380  0.17315746  1  -0.007511  0  -0.090451  -0.077624  0  3.993503  0
C  C129  1  0.90110260  0.53567456  0.32684337  1  -0.007396  0  -0.090503  -0.077843  0  3.993383  0
C  C130  1  0.09890390  0.03567510  0.82684185  1  -0.00751  0  -0.090436  -0.077573  0  3.993435  0
C  C131  1  0.09890687  0.46432810  0.67315827  1  -0.007596  0  -0.09044  -0.077509  0  3.993634  0
C  C132  1  0.80618052  0.95917462  0.14526253  1  -0.040726  0  -0.086032  -0.094931  0  3.990664  0
C  C133  1  0.80618544  0.54082564  0.35473827  1  -0.040793  0  -0.085994  -0.094887  0  3.99052  0
C  C134  1  0.19381820  0.04082353  0.85473719  1  -0.040685  0  -0.08602  -0.094923  0  3.990554  0
C  C135  1  0.19382332  0.45917476  0.64526147  1  -0.040513  0  -0.086009  -0.094989  0  3.990763  0
C  C136  1  0.77577482  0.01090511  0.08954875  1  -0.027381  0  -0.012735  -0.080709  0  3.92085  0
C  C137  1  0.77577988  0.48909664  0.41045007  1  -0.027374  0  -0.012772  -0.080745  0  3.920924  0
C  C138  1  0.22422389  0.98909453  0.91045078  1  -0.027422  0  -0.012768  -0.080787  0  3.920913  0
C  C139  1  0.22423102  0.51090300  0.58954946  1  -0.027803  0  -0.012747  -0.080739  0  3.92082  0
C  C140  1  0.67167121  0.00872842  0.06576848  1  1.569455  0  0.21464  0.587232  0  4.179646  0
C  C141  1  0.67167554  0.49127297  0.43423152  1  1.568998  0  0.214667  0.587213  0  4.179908  0
C  C142  1  0.32832894  0.99127646  0.93422944  1  1.569455  0  0.214756  0.587392  0  4.179419  0
C  C143  1  0.32833322  0.50872593  0.56576841  1  1.570094  0  0.214619  0.587175  0  4.179608  0
C  C144  1  0.84679455  0.44521695  0.82717607  1  1.588461  0  0.217144  0.597942  0  4.180735  0
C  C145  1  0.84679533  0.05478376  0.67282359  1  1.588461  0  0.217136  0.5979  0  4.180673  0
C  C146  1  0.15320704  0.55477894  0.17282301  1  1.588597  0  0.217145  0.597927  0  4.180906  0
C  C147  1  0.15320554  0.94521365  0.32717654  1  1.588427  0  0.217086  0.597759  0  4.180853  0
C  C148  1  0.84383106  0.55765361  0.86689056  1  -0.022168  0  -0.01209  -0.067802  0  3.929221  0
C  C149  1  0.84383326  0.94234847  0.63311068  1  -0.022458  0  -0.012122  -0.067779  0  3.929216  0
C  C150  1  0.15616766  0.44234453  0.13310917  1  -0.022595  0  -0.012073  -0.067742  0  3.929111  0
C  C151  1  0.15616689  0.05764969  0.36688966  1  -0.022459  0  -0.012126  -0.0678  0  3.929335  0
C  C152  1  0.90141517  0.60493816  0.94012457  1  -0.042578  0  -0.092045  -0.109726  0  3.999458  0
C  C153  1  0.90141510  0.89506413  0.55987607  1  -0.042708  0  -0.092123  -0.109855  0  3.999491  0
C  C154  1  0.09858641  0.39506147  0.05987309  1  -0.034074  0  -0.092052  -0.109787  0  3.999324  0
C  C155  1  0.09858290  0.10493402  0.44012365  1  -0.042752  0  -0.092202  -0.109954  0  3.999642  0
C  C156  1  0.89782351  0.70885264  0.98127021  1  -0.099461  0  -0.096033  -0.0916  0  4.015279  0
C  C157  1  0.89782668  0.79114889  0.51873147  1  -0.099048  0  -0.095951  -0.091394  0  4.015182  0
C  C158  1  0.10217664  0.29114623  0.01872724  1  -0.099459  0  -0.096  -0.091407  0  4.015172  0
C  C159  1  0.10217132  0.20884777  0.48126907  1  -0.099  0  -0.095962  -0.091363  0  4.01509  0
C  C160  1  0.84085053  0.76671848  0.94524846  1  -0.035862  0  -0.092901  -0.075262  0  4.007138  0
C  C161  1  0.84085131  0.73328358  0.55475215  1  -0.03566  0  -0.092939  -0.075323  0  4.007251  0
C  C162  1  0.15914747  0.23327964  0.05474877  1  -0.035947  0  -0.092976  -0.075504  0  4.007225  0
C  C163  1  0.15914741  0.26671383  0.44524860  1  -0.035795  0  -0.092852  -0.075261  0  4.007243  0
C  C164  1  0.78525774  0.72059914  0.87115367  1  -0.016417  0  -0.087942  -0.12205  0  3.950939  0
C  C165  1  0.78525864  0.77940348  0.62884775  1  -0.016591  0  -0.087995  -0.122126  0  3.951017  0
C  C166  1  0.21474241  0.27939823  0.12884335  1  -0.016365  0  -0.087887  -0.121924  0  3.950914  0
C  C167  1  0.21474151  0.22059621  0.37115614  1  -0.016392  0  -0.088039  -0.122285  0  3.951232  0
C  C168  1  0.78242511  0.61513025  0.83238098  1  -0.024241  0  -0.011133  0.073364  0  3.998592  0
C  C169  1  0.78242493  0.88487235  0.66761920  1  -0.024023  0  -0.011042  0.073398  0  3.998573  0
C  C170  1  0.21757576  0.38486491  0.16761913  1  -0.023765  0  -0.011211  0.073216  0  3.998634  0
C  C171  1  0.21757522  0.11512658  0.33238323  1  -0.024001  0  -0.011041  0.073438  0  3.998725  0
C  C172  1  0.71911874  0.56697976  0.75775473  1  0.003475  0  -0.080095  -0.079023  0  3.968929  0
C  C173  1  0.71911725  0.93302034  0.74224414  1  0.003504  0  -0.080066  -0.07889  0  3.968888  0
C  C174  1  0.28088141  0.43301836  0.24224250  1  0.003546  0  -0.080075  -0.078946  0  3.968854  0
C  C175  1  0.28088362  0.06697783  0.25775745  1  0.003855  0  -0.080119  -0.078906  0  3.968855  0
C  C176  1  0.64238957  0.61231240  0.73652331  1  -0.14501  0  -0.105484  -0.252168  0  3.927145  0
C  C177  1  0.64238790  0.88768517  0.76347549  1  -0.145042  0  -0.105502  -0.252208  0  3.927204  0
C  C178  1  0.35761201  0.38768576  0.26347703  1  -0.145016  0  -0.105481  -0.25216  0  3.927203  0
C  C179  1  0.35761081  0.11231074  0.23652483  1  -0.145295  0  -0.105494  -0.252197  0  3.927152  0
C  C180  1  0.58703916  0.56799449  0.65398592  1  1.531003  0  0.204495  0.621592  0  4.197397  0
C  C181  1  0.58703688  0.93200136  0.84601055  1  1.530766  0  0.204483  0.621534  0  4.197555  0
C  C182  1  0.41296458  0.43200737  0.34600990  1  1.530756  0  0.204456  0.621356  0  4.197584  0
C  C183  1  0.41296327  0.06799304  0.15398809  1  1.530818  0  0.204399  0.621338  0  4.19755  0
C  C184  1  0.14648527  0.32481680  0.80892596  1  0.485443  0  0.059583  0.109941  0  3.914812  0
C  C185  1  0.14648432  0.17518647  0.69106423  1  0.485457  0  0.059505  0.109777  0  3.914883  0
C  C186  1  0.85351201  0.67518585  0.19107443  1  0.485903  0  0.059552  0.109795  0  3.914767  0
C  C187  1  0.85351583  0.82481840  0.30893370  1  0.485427  0  0.059551  0.109925  0  3.914848  0
C  C188  1  0.24597953  0.32855025  0.81027299  1  -0.039871  0  -0.072998  -0.162463  0  3.916451  0
C  C189  1  0.24597786  0.17145264  0.68971704  1  -0.040502  0  -0.072843  -0.162232  0  3.916384  0
C  C190  1  0.75401703  0.67145766  0.18972829  1  -0.040289  0  -0.07293  -0.162391  0  3.91628  0
C  C191  1  0.75402301  0.82855374  0.31028193  1  -0.04039  0  -0.072847  -0.162196  0  3.916315  0
C  C192  1  0.29718866  0.25000004  0.74999522  1  -0.027231  0  0.021405  0.113933  0  3.955282  0
C  C193  1  0.70280862  0.75000712  0.25000646  1  -0.027322  0  0.021388  0.113878  0  3.955315  0
C  C194  1  0.40320472  0.24999951  0.74999752  1  -0.033068  0  0.019705  0.11534  0  3.963427  0
C  C195  1  0.59679543  0.75000765  0.25000478  1  -0.033316  0  0.019638  0.115237  0  3.96331  0
C  C196  1  0.45459022  0.17322808  0.76693370  1  0.026583  0  -0.075704  -0.164304  0  3.904208  0
C  C197  1  0.45459194  0.32677344  0.73306637  1  0.027169  0  -0.075676  -0.164288  0  3.904169  0
C  C198  1  0.54540562  0.82678060  0.23307027  1  0.026857  0  -0.075668  -0.16426  0  3.90398  0
C  C199  1  0.54540677  0.67323147  0.26693466  1  0.02663  0  -0.075738  -0.164346  0  3.904112  0
C  C200  1  0.55415117  0.17582719  0.76635147  1  0.419332  0  0.053543  0.101045  0  3.920349  0
C  C201  1  0.55415575  0.32417400  0.73365405  1  0.419612  0  0.053481  0.100938  0  3.920505  0
C  C202  1  0.44584181  0.82417698  0.23365122  1  0.418691  0  0.053492  0.100979  0  3.920372  0
C  C203  1  0.44584511  0.67582866  0.26634758  1  0.419557  0  0.053454  0.100881  0  3.920507  0
C  C204  1  0.43073430  0.30363560  0.02531679  1  0.454091  0  0.051104  0.10234  0  3.922435  0
C  C205  1  0.43073827  0.19636261  0.47467933  1  0.454025  0  0.051015  0.102321  0  3.922244  0
C  C206  1  0.56926226  0.69636326  0.97467880  1  0.454116  0  0.051002  0.102323  0  3.922448  0
C  C207  1  0.56926475  0.80363477  0.52531831  1  0.454042  0  0.051074  0.102353  0  3.92247  0
C  C208  1  0.42403628  0.40239267  0.02733425  1  -0.008411  0  -0.078888  -0.172029  0  3.922345  0
C  C209  1  0.42403917  0.09760475  0.47266040  1  -0.008398  0  -0.078861  -0.172036  0  3.922207  0
C  C210  1  0.57595957  0.59760540  0.97265738  1  -0.008631  0  -0.078795  -0.171984  0  3.922104  0
C  C211  1  0.57596098  0.90239188  0.52733703  1  -0.008382  0  -0.078798  -0.171995  0  3.922282  0
C  C212  1  0.50196496  0.44717995  0.99904951  1  -0.012788  0  0.014654  0.099918  0  3.955805  0
C  C213  1  0.50196729  0.05281645  0.50094535  1  -0.012789  0  0.014603  0.099868  0  3.955857  0
C  C214  1  0.49803017  0.55281584  0.00093899  1  0.022373  0  0.01458  0.099915  0  3.955979  0
C  C215  1  0.49803143  0.94718097  0.49905602  1  0.022169  0  0.014578  0.099945  0  3.95594  0
C  C216  1  0.58372799  0.38723213  0.96960600  1  -0.041517  0  -0.073859  -0.157771  0  3.913132  0
C  C217  1  0.58372908  0.11276609  0.53039183  1  -0.041595  0  -0.073819  -0.157666  0  3.913088  0
C  C218  1  0.41627001  0.61276519  0.03038542  1  -0.041622  0  -0.073874  -0.157738  0  3.913436  0
C  C219  1  0.41626964  0.88723134  0.46961078  1  -0.041705  0  -0.073862  -0.157829  0  3.913406  0
C  C220  1  0.58550760  0.28923110  0.97070191  1  0.439146  0  0.054296  0.104532  0  3.905949  0
C  C221  1  0.58550975  0.21076714  0.52929654  1  0.439192  0  0.054307  0.104512  0  3.90593  0
C  C222  1  0.41449112  0.71076776  0.02929367  1  0.439237  0  0.054325  0.104523  0  3.906031  0
C  C223  1  0.41449112  0.78922878  0.47070440  1  0.439102  0  0.054351  0.104685  0  3.905985  0
C  C224  1  0.63859032  0.41066808  0.17984426  1  0.468619  0  0.030921  0.078949  0  4.027935  0
C  C225  1  0.63859041  0.08933623  0.32016094  1  0.468627  0  0.030889  0.078954  0  4.027785  0
C  C226  1  0.36140553  0.58933532  0.82015697  1  0.468616  0  0.030906  0.079099  0  4.027645  0
C  C227  1  0.36140543  0.91066348  0.67984419  1  0.468401  0  0.030845  0.079018  0  4.027773  0
C  C228  1  0.63637657  0.34042798  0.22292666  1  -0.044685  0  -0.083775  -0.156391  0  3.904657  0
C  C229  1  0.63637623  0.15957782  0.27707835  1  -0.044475  0  -0.083744  -0.156401  0  3.904501  0
C  C230  1  0.36361498  0.65957845  0.77707729  1  -0.044448  0  -0.083793  -0.15661  0  3.904756  0
C  C231  1  0.36361675  0.84042265  0.72292762  1  -0.044818  0  -0.083795  -0.156515  0  3.904794  0
C  C232  1  0.72049304  0.28777759  0.22763263  1  -0.005128  0  0.013296  0.10799  0  3.960427  0
C  C233  1  0.72049361  0.21222853  0.27237367  1  0.03055  0  0.013266  0.107987  0  3.960211  0
C  C234  1  0.27949707  0.71222585  0.77237170  1  0.030739  0  0.013269  0.108027  0  3.960533  0
C  C235  1  0.27949722  0.78777568  0.72763337  1  -0.005174  0  0.01329  0.107901  0  3.960542  0
C  C236  1  0.80283633  0.31035026  0.18825216  1  -0.036377  0  -0.080332  -0.164311  0  3.941344  0
C  C237  1  0.80283823  0.18965468  0.31175500  1  -0.036471  0  -0.080259  -0.164269  0  3.941222  0
C  C238  1  0.19715521  0.68965247  0.81175570  1  -0.036788  0  -0.080239  -0.164027  0  3.941217  0
C  C239  1  0.19715332  0.81034801  0.68824850  1  -0.036308  0  -0.080279  -0.1641  0  3.941161  0
C  C240  1  0.79768500  0.38217236  0.14655061  1  0.500975  0  0.03939  0.09313  0  4.015184  0
C  C241  1  0.79768446  0.11783254  0.35345468  1  0.501019  0  0.039313  0.092977  0  4.015202  0
C  C242  1  0.20230869  0.61782959  0.85345516  1  0.500572  0  0.039309  0.092921  0  4.015186  0
C  C243  1  0.20231210  0.88217014  0.64654820  1  0.500759  0  0.039365  0.092923  0  4.015214  0
N  N244  1  0.09752394  0.25000118  0.74999560  1  -1.258329  0  -0.329525  -0.226644  0  3.547083  0
N  N245  1  0.90247262  0.75000071  0.25000333  1  -1.258547  0  -0.32956  -0.226671  0  3.547206  0
N  N246  1  0.60291318  0.25000068  0.75000277  1  -1.252322  0  -0.332672  -0.230138  0  3.571359  0
N  N247  1  0.39708625  0.75000122  0.24999802  1  -1.252241  0  -0.33258  -0.229892  0  3.571156  0
N  N248  1  0.51036802  0.24771240  0.99808072  1  -1.249875  0  -0.325909  -0.219925  0  3.536486  0
N  N249  1  0.51037177  0.25228480  0.50191623  1  -1.249869  0  -0.325847  -0.219843  0  3.5363  0
N  N250  1  0.48963070  0.75228573  0.00191713  1  -1.249909  0  -0.325864  -0.219871  0  3.536466  0
N  N251  1  0.48963268  0.74771108  0.49808098  1  -1.249896  0  -0.325933  -0.220008  0  3.536581  0
N  N252  1  0.71739197  0.43225063  0.14145035  1  -1.200285  0  -0.330381  -0.291571  0  3.366541  0
N  N253  1  0.71739197  0.06775471  0.35855386  1  -1.200284  0  -0.330324  -0.291464  0  3.366492  0
N  N254  1  0.28260387  0.56775279  0.85855274  1  -1.200229  0  -0.3303  -0.291534  0  3.366385  0
N  N255  1  0.28260603  0.93224572  0.64144837  1  -1.200279  0  -0.330318  -0.291465  0  3.366447  0
O  O256  1  0.77516540  0.19873661  0.85567916  1  -1.169529  0  -0.310806  -0.545611  0  2.316385  0
O  O257  1  0.77516207  0.30126234  0.64432003  1  -1.169548  0  -0.310834  -0.545704  0  2.316351  0
O  O258  1  0.22483619  0.80125927  0.14431805  1  -1.16951  0  -0.310861  -0.545648  0  2.316392  0
O  O259  1  0.22483952  0.69874031  0.35567974  1  -1.169303  0  -0.310859  -0.545766  0  2.316307  0
O  O260  1  0.92831351  0.25574755  0.87561823  1  -1.165888  0  -0.320376  -0.54867  0  2.332678  0
O  O261  1  0.92830999  0.24425574  0.62438398  1  -1.165794  0  -0.32039  -0.548707  0  2.332679  0
O  O262  1  0.07168592  0.74425210  0.12438129  1  -1.165894  0  -0.320383  -0.548699  0  2.332679  0
O  O263  1  0.07168801  0.75573941  0.37561550  1  -1.166025  0  -0.320455  -0.548743  0  2.332596  0
O  O264  1  0.63842055  0.08670802  0.05308668  1  -1.160048  0  -0.304477  -0.531029  0  2.37095  0
O  O265  1  0.63842531  0.41328641  0.44690453  1  -1.159676  0  -0.304486  -0.530998  0  2.370825  0
O  O266  1  0.36158103  0.91329010  0.94690993  1  -1.159942  0  -0.304521  -0.531092  0  2.370578  0
O  O267  1  0.36158631  0.58670643  0.55308809  1  -1.160254  0  -0.304523  -0.531065  0  2.370977  0
O  O268  1  0.62443837  0.92952086  0.06024359  1  -1.171079  0  -0.318691  -0.555599  0  2.332524  0
O  O269  1  0.62444549  0.57047576  0.43976061  1  -1.171044  0  -0.318719  -0.55561  0  2.332807  0
O  O270  1  0.37555820  0.07048106  0.93975845  1  -1.17116  0  -0.318729  -0.555636  0  2.332742  0
O  O271  1  0.37556542  0.42951943  0.56024323  1  -1.171308  0  -0.318713  -0.555608  0  2.332472  0
O  O272  1  0.76927140  0.39824123  0.82937993  1  -1.169632  0  -0.311353  -0.546301  0  2.324854  0
O  O273  1  0.76927236  0.10176143  0.67061846  1  -1.169595  0  -0.311337  -0.546262  0  2.324831  0
O  O274  1  0.23073018  0.60175693  0.17062165  1  -1.169819  0  -0.311347  -0.546283  0  2.32496  0
O  O275  1  0.23072779  0.89823745  0.32937899  1  -1.169647  0  -0.311313  -0.54617  0  2.32495  0
O  O276  1  0.92629811  0.40613739  0.79466672  1  -1.168542  0  -0.307639  -0.542298  0  2.314042  0
O  O277  1  0.92629829  0.09386512  0.70533342  1  -1.168609  0  -0.307659  -0.542317  0  2.314057  0
O  O278  1  0.07370204  0.59386073  0.20533052  1  -1.168471  0  -0.307645  -0.542313  0  2.314117  0
O  O279  1  0.07370114  0.90613306  0.29466879  1  -1.168617  0  -0.307608  -0.542222  0  2.314139  0
O  O280  1  0.57668944  0.47290874  0.62249584  1  -1.160425  0  -0.310863  -0.541544  0  2.314631  0
O  O281  1  0.57667780  0.02708643  0.87749864  1  -1.160126  0  -0.310848  -0.541513  0  2.314597  0
O  O282  1  0.42332146  0.52709234  0.37749666  1  -1.160315  0  -0.310861  -0.54142  0  2.31461  0
O  O283  1  0.42331948  0.97290947  0.12250044  1  -1.160305  0  -0.310783  -0.54131  0  2.31462  0
O  O284  1  0.55518104  0.63172463  0.62008582  1  -1.171106  0  -0.316378  -0.555199  0  2.306839  0
O  O285  1  0.55518425  0.86827113  0.87991375  1  -1.171161  0  -0.316387  -0.555188  0  2.30694  0
O  O286  1  0.44482054  0.36828029  0.37991646  1  -1.17099  0  -0.316339  -0.555124  0  2.306813  0
O  O287  1  0.44482092  0.13172178  0.12008633  1  -1.171014  0  -0.316339  -0.555145  0  2.306837  0
