# generated using pymatgen
data_CdH19C20SN3O8
_symmetry_space_group_name_H-M   'P 1'
_cell_length_a   8.32000607
_cell_length_b   10.22373554
_cell_length_c   13.83036632
_cell_angle_alpha   99.81617229
_cell_angle_beta   100.94059626
_cell_angle_gamma   104.57392110
_symmetry_Int_Tables_number   1
_chemical_formula_structural   CdH19C20SN3O8
_chemical_formula_sum   'Cd2 H38 C40 S2 N6 O16'
_cell_volume   1088.00097324
_cell_formula_units_Z   2
loop_
 _symmetry_equiv_pos_site_id
 _symmetry_equiv_pos_as_xyz
  1  'x, y, z'
loop_
 _atom_site_type_symbol
 _atom_site_label
 _atom_site_symmetry_multiplicity
 _atom_site_fract_x
 _atom_site_fract_y
 _atom_site_fract_z
 _atom_site_occupancy
 _atom_site_hle17_bader_spin_density
 _atom_site_hle17_ddec_charge
 _atom_site_hle17_ddec_spin_density
 _atom_site_hle17_ddec_sum_bond_order
 _atom_site_hle17_magmom
 _atom_site_hse06_10hf_bader_spin_density
 _atom_site_hse06_10hf_ddec_charge
 _atom_site_hse06_10hf_ddec_spin_density
 _atom_site_hse06_10hf_ddec_sum_bond_order
 _atom_site_hse06_10hf_magmom
 _atom_site_hse06_bader_spin_density
 _atom_site_hse06_ddec_charge
 _atom_site_hse06_ddec_spin_density
 _atom_site_hse06_ddec_sum_bond_order
 _atom_site_hse06_magmom
 _atom_site_pbe_bader_spin_density
 _atom_site_pbe_cm5_charge
 _atom_site_pbe_ddec_charge
 _atom_site_pbe_ddec_spin_density
 _atom_site_pbe_ddec_sum_bond_order
 _atom_site_pbe_magmom
Cd  Cd0  1  0.77788367  0.38992748  0.49473433  1  0  1.168175  0  1.626001  0  0  0.985535  0  2.061632  0  0  1.044151  0  2.006696  0  0  0.776977  0.940049  0  2.102714  0
Cd  Cd1  1  0.22211294  0.61007138  0.50526720  1  0  1.168188  0  1.626015  0  0  0.98555  0  2.06165  0  0  1.044168  0  2.006717  0  0  0.777006  0.940066  0  2.102731  0
H  H2  1  0.54462822  0.21562212  0.55319672  1  0  0.418689  0  0.855009  0  0  0.394139  0  0.920631  0  0  0.403471  0  0.906852  0  0  0.297731  0.387292  0  0.930727  0
H  H3  1  0.45536838  0.78437674  0.44680481  1  0  0.418723  0  0.854955  0  0  0.394164  0  0.920597  0  0  0.403496  0  0.906817  0  0  0.297725  0.387316  0  0.930694  0
H  H4  1  0.44278103  0.32685327  0.53672113  1  0  0.42979  0  0.873497  0  0  0.395545  0  0.942685  0  0  0.407064  0  0.926018  0  0  0.284398  0.387238  0  0.954665  0
H  H5  1  0.55721801  0.67314559  0.46328142  1  0  0.429811  0  0.873461  0  0  0.395577  0  0.942632  0  0  0.407094  0  0.925967  0  0  0.284421  0.387271  0  0.954613  0
H  H6  1  0.22163675  0.98791706  0.01696224  1  0  0.310304  0  0.88437  0  0  0.290948  0  0.945282  0  0  0.29924  0  0.939041  0  0  0.311639  0.285085  0  0.949702  0
H  H7  1  0.77836223  0.01208492  0.98303852  1  0  0.310325  0  0.884342  0  0  0.290967  0  0.945255  0  0  0.299257  0  0.939014  0  0  0.311642  0.285103  0  0.949672  0
H  H8  1  0.38936318  0.97142410  0.10029555  1  0  0.308095  0  0.909113  0  0  0.291967  0  0.965865  0  0  0.300166  0  0.959783  0  0  0.307888  0.286187  0  0.970145  0
H  H9  1  0.61063615  0.02857891  0.89970610  1  0  0.308138  0  0.909079  0  0  0.292009  0  0.965834  0  0  0.300208  0  0.959751  0  0  0.307943  0.286231  0  0.970112  0
H  H10  1  0.48419361  0.14784834  0.33981217  1  0  0.088523  0  0.928447  0  0  0.098272  0  0.992198  0  0  0.100747  0  0.989719  0  0  0.119217  0.096393  0  0.994055  0
H  H11  1  0.51579899  0.85214947  0.66018658  1  0  0.088543  0  0.928344  0  0  0.098293  0  0.992094  0  0  0.100768  0  0.989617  0  0  0.119214  0.096414  0  0.993952  0
H  H12  1  0.72121442  0.54872384  0.32336102  1  0  0.089032  0  0.929574  0  0  0.097692  0  0.992803  0  0  0.100082  0  0.990373  0  0  0.121455  0.095933  0  0.994542  0
H  H13  1  0.27878389  0.45127295  0.67664046  1  0  0.089088  0  0.929535  0  0  0.09772  0  0.992796  0  0  0.100119  0  0.990354  0  0  0.12147  0.095959  0  0.994532  0
H  H14  1  0.52418022  0.52192546  0.15640231  1  0  0.117419  0  0.957478  0  0  0.12851  0  1.01279  0  0  0.131548  0  1.011938  0  0  0.1113  0.126327  0  1.013514  0
H  H15  1  0.47581920  0.47807444  0.84359969  1  0  0.117439  0  0.957496  0  0  0.128524  0  1.012815  0  0  0.131562  0  1.011965  0  0  0.111298  0.126341  0  1.013537  0
H  H16  1  0.29492535  0.29191768  0.07798259  1  0  0.112918  0  0.955442  0  0  0.118539  0  1.022874  0  0  0.122148  0  1.019606  0  0  0.109824  0.115835  0  1.02532  0
H  H17  1  0.70507043  0.70808221  0.92201752  1  0  0.112944  0  0.955431  0  0  0.118562  0  1.022871  0  0  0.122176  0  1.019589  0  0  0.109832  0.115863  0  1.025311  0
H  H18  1  0.10772123  0.08745798  0.13514911  1  0  0.100068  0  0.937059  0  0  0.104788  0  1.014139  0  0  0.107035  0  1.012136  0  0  0.114046  0.10305  0  1.015646  0
H  H19  1  0.89227220  0.91253879  0.86485104  1  0  0.10013  0  0.936993  0  0  0.104823  0  1.014112  0  0  0.10707  0  1.012109  0  0  0.114072  0.103112  0  1.015595  0
H  H20  1  0.21357792  0.02001792  0.23085838  1  0  0.072253  0  0.953059  0  0  0.085315  0  1.020442  0  0  0.084616  0  1.023117  0  0  0.10975  0.085728  0  1.018676  0
H  H21  1  0.78641710  0.97997990  0.76914210  1  0  0.072205  0  0.953071  0  0  0.08528  0  1.020445  0  0  0.084581  0  1.023118  0  0  0.109734  0.085693  0  1.018685  0
H  H22  1  0.03209707  0.82463294  0.09745192  1  0  0.098703  0  0.949519  0  0  0.109722  0  1.018076  0  0  0.111125  0  1.017453  0  0  0.115713  0.108663  0  1.018543  0
H  H23  1  0.96790014  0.17536385  0.90254364  1  0  0.098718  0  0.949533  0  0  0.109731  0  1.018085  0  0  0.11114  0  1.017451  0  0  0.11571  0.108674  0  1.018559  0
H  H24  1  0.22677104  0.79365814  0.15595232  1  0  0.092534  0  0.903136  0  0  0.110091  0  0.956981  0  0  0.111309  0  0.95623  0  0  0.118469  0.10912  0  0.957751  0
H  H25  1  0.77322721  0.20634176  0.84404737  1  0  0.092534  0  0.903143  0  0  0.110082  0  0.956983  0  0  0.111302  0  0.956233  0  0  0.118458  0.10912  0  0.957758  0
H  H26  1  0.89135367  0.61437552  0.76470214  1  0  0.066814  0  0.946951  0  0  0.077736  0  1.005999  0  0  0.079203  0  1.005861  0  0  0.10723  0.076588  0  1.006346  0
H  H27  1  0.10865244  0.38562234  0.23529680  1  0  0.066776  0  0.946939  0  0  0.077704  0  1.005988  0  0  0.07917  0  1.005852  0  0  0.107214  0.076557  0  1.006327  0
H  H28  1  0.00823953  0.41415927  0.75895318  1  0  0.110952  0  0.977622  0  0  0.118344  0  1.042068  0  0  0.121912  0  1.040515  0  0  0.103332  0.115607  0  1.043632  0
H  H29  1  0.99177621  0.58584485  0.24104554  1  0  0.110947  0  0.977695  0  0  0.118393  0  1.042049  0  0  0.121956  0  1.0405  0  0  0.103362  0.115654  0  1.043612  0
H  H30  1  0.22301891  0.40840959  0.91435074  1  0  0.093463  0  0.944314  0  0  0.105846  0  1.002118  0  0  0.108321  0  1.000607  0  0  0.105552  0.104058  0  1.003191  0
H  H31  1  0.77699398  0.59159348  0.08564896  1  0  0.093545  0  0.944293  0  0  0.105935  0  1.002086  0  0  0.108407  0  1.00058  0  0  0.105599  0.104148  0  1.003159  0
H  H32  1  0.30494812  0.60752698  0.06677260  1  0  0.113971  0  0.958906  0  0  0.125271  0  1.017135  0  0  0.128342  0  1.016224  0  0  0.106486  0.123005  0  1.017969  0
H  H33  1  0.69505738  0.39247606  0.93322764  1  0  0.113993  0  0.958865  0  0  0.125277  0  1.017108  0  0  0.128346  0  1.016198  0  0  0.106468  0.123013  0  1.017944  0
H  H34  1  0.75474285  0.88146262  0.50785743  1  0  0.10542  0  0.956891  0  0  0.115186  0  1.021395  0  0  0.119213  0  1.017736  0  0  0.110251  0.112241  0  1.024342  0
H  H35  1  0.24525793  0.11853418  0.49214362  1  0  0.105376  0  0.956858  0  0  0.115172  0  1.021351  0  0  0.119199  0  1.017691  0  0  0.110246  0.112208  0  1.024318  0
H  H36  1  0.11859593  0.22792479  0.72757834  1  0  0.109983  0  0.951041  0  0  0.118616  0  1.01661  0  0  0.122457  0  1.013236  0  0  0.111193  0.115806  0  1.019054  0
H  H37  1  0.88139909  0.77207614  0.27241747  1  0  0.109979  0  0.950981  0  0  0.118595  0  1.016589  0  0  0.122436  0  1.013216  0  0  0.111204  0.115787  0  1.019033  0
H  H38  1  0.14567276  0.81332723  0.73128342  1  0  0.115463  0  0.945037  0  0  0.119833  0  1.014794  0  0  0.123739  0  1.012026  0  0  0.110442  0.117046  0  1.016736  0
H  H39  1  0.85432655  0.18667578  0.26871895  1  0  0.115484  0  0.945025  0  0  0.119863  0  1.014773  0  0  0.12377  0  1.012001  0  0  0.110433  0.117076  0  1.016711  0
C  C40  1  0.37103738  0.20264556  0.20313686  1  0  0.026848  0  3.712127  0  0  0.052133  0  3.952739  0  0  0.046127  0  3.97756  0  0  -0.003589  0.055794  0  3.93611  0
C  C41  1  0.62895646  0.79735225  0.79686131  1  0  0.026781  0  3.712043  0  0  0.052136  0  3.952571  0  0  0.046126  0  3.977393  0  0  -0.003605  0.055796  0  3.935952  0
C  C42  1  0.48809016  0.22728667  0.29581340  1  0  0.090358  0  3.68303  0  0  0.049645  0  3.932967  0  0  0.056344  0  3.953037  0  0  0.051858  0.045253  0  3.91916  0
C  C43  1  0.51190534  0.77270907  0.70418688  1  0  0.090341  0  3.683139  0  0  0.049623  0  3.933034  0  0  0.056324  0  3.953103  0  0  0.051835  0.045232  0  3.919225  0
C  C44  1  0.62144064  0.45152034  0.28647725  1  0  0.154405  0  3.671464  0  0  0.120392  0  3.92118  0  0  0.128727  0  3.939905  0  0  0.05824  0.114888  0  3.908204  0
C  C45  1  0.37855812  0.54847437  0.71352547  1  0  0.154398  0  3.671486  0  0  0.120406  0  3.92119  0  0  0.128735  0  3.939916  0  0  0.05822  0.114907  0  3.908208  0
C  C46  1  0.51094097  0.43513058  0.19325825  1  0  -0.112826  0  3.723414  0  0  -0.120775  0  3.969025  0  0  -0.128902  0  3.991079  0  0  -0.076133  -0.115589  0  3.954238  0
C  C47  1  0.48905654  0.56486725  0.80674109  1  0  -0.112842  0  3.723604  0  0  -0.120786  0  3.969223  0  0  -0.128918  0  3.99128  0  0  -0.076116  -0.115599  0  3.954435  0
C  C48  1  0.38466759  0.30897050  0.15055644  1  0  -0.030372  0  3.659001  0  0  -0.060674  0  3.907662  0  0  -0.056433  0  3.924625  0  0  -0.058021  -0.063076  0  3.896178  0
C  C49  1  0.61532912  0.69102525  0.84944472  1  0  -0.03045  0  3.658961  0  0  -0.060776  0  3.907617  0  0  -0.056535  0  3.924592  0  0  -0.058074  -0.06318  0  3.896137  0
C  C50  1  0.22880953  0.06856228  0.16700634  1  0  -0.01069  0  3.564079  0  0  -0.073282  0  3.809281  0  0  -0.069204  0  3.821601  0  0  -0.05482  -0.075882  0  3.801168  0
C  C51  1  0.77118661  0.93143865  0.83299467  1  0  -0.010594  0  3.56392  0  0  -0.073225  0  3.809185  0  0  -0.069146  0  3.821507  0  0  -0.054791  -0.075844  0  3.801063  0
C  C52  1  0.15897494  0.81918259  0.08889853  1  0  -0.04254  0  3.565766  0  0  -0.111413  0  3.823515  0  0  -0.107579  0  3.831681  0  0  -0.05439  -0.113965  0  3.818148  0
C  C53  1  0.84102493  0.18081835  0.91110004  1  0  -0.042523  0  3.565828  0  0  -0.111346  0  3.823507  0  0  -0.107541  0  3.83168  0  0  -0.054361  -0.113922  0  3.818171  0
C  C54  1  0.13476438  0.70980409  0.99516867  1  0  0.213748  0  3.754715  0  0  0.222098  0  4.005699  0  0  0.227532  0  4.026607  0  0  0.109628  0.21846  0  3.991582  0
C  C55  1  0.86524127  0.29019584  0.00482976  1  0  0.213682  0  3.754815  0  0  0.222007  0  4.005825  0  0  0.227498  0  4.026648  0  0  0.109642  0.218366  0  3.991721  0
C  C56  1  0.98278332  0.60925723  0.83086267  1  0  0.125644  0  3.74961  0  0  0.103269  0  4.006099  0  0  0.108383  0  4.02509  0  0  0.041347  0.100006  0  3.993183  0
C  C57  1  0.01722282  0.39074063  0.16913483  1  0  0.125627  0  3.749522  0  0  0.103244  0  4.006047  0  0  0.108354  0  4.025045  0  0  0.041336  0.099981  0  3.993125  0
C  C58  1  0.04867118  0.49622673  0.82794063  1  0  -0.133642  0  3.734779  0  0  -0.146618  0  3.983766  0  0  -0.153779  0  4.006666  0  0  -0.09068  -0.141991  0  3.968548  0
C  C59  1  0.95134174  0.50377634  0.17205762  1  0  -0.13371  0  3.734725  0  0  -0.146716  0  3.983712  0  0  -0.153871  0  4.006616  0  0  -0.090722  -0.142089  0  3.968494  0
C  C60  1  0.16660615  0.49395411  0.91357442  1  0  -0.014114  0  3.750726  0  0  -0.029823  0  3.999269  0  0  -0.028339  0  4.021207  0  0  -0.071421  -0.030522  0  3.984193  0
C  C61  1  0.83340393  0.50604791  0.08642408  1  0  -0.014126  0  3.750897  0  0  -0.02985  0  3.999435  0  0  -0.028369  0  4.021378  0  0  -0.071452  -0.03055  0  3.984364  0
C  C62  1  0.21198068  0.60345757  0.99846516  1  0  -0.155866  0  3.713732  0  0  -0.176393  0  3.956273  0  0  -0.183094  0  3.979109  0  0  -0.085318  -0.17191  0  3.940927  0
C  C63  1  0.78802468  0.39654858  0.00153689  1  0  -0.155892  0  3.713895  0  0  -0.1764  0  3.956453  0  0  -0.183115  0  3.979273  0  0  -0.085288  -0.171917  0  3.941112  0
C  C64  1  0.94202745  0.83028138  0.61519884  1  0  -0.074012  0  3.764479  0  0  -0.044442  0  4.001522  0  0  -0.05488  0  4.024503  0  0  -0.016748  -0.037894  0  3.986926  0
C  C65  1  0.05797280  0.16971748  0.38480458  1  0  -0.074134  0  3.764502  0  0  -0.044489  0  4.001499  0  0  -0.054934  0  4.024487  0  0  -0.016787  -0.03794  0  3.986895  0
C  C66  1  0.86298943  0.92048881  0.57370119  1  0  -0.061977  0  3.691907  0  0  -0.103368  0  3.941625  0  0  -0.099331  0  3.959355  0  0  -0.072973  -0.106595  0  3.931314  0
C  C67  1  0.13700970  0.07951006  0.42629704  1  0  -0.061792  0  3.69191  0  0  -0.103281  0  3.941647  0  0  -0.099242  0  3.959379  0  0  -0.072943  -0.106492  0  3.931339  0
C  C68  1  0.92719703  0.06361286  0.61306189  1  0  -0.057739  0  3.758177  0  0  -0.029763  0  3.993773  0  0  -0.039493  0  4.016428  0  0  -0.016586  -0.023819  0  3.979543  0
C  C69  1  0.07280052  0.93638497  0.38693529  1  0  -0.057824  0  3.758289  0  0  -0.029765  0  3.993832  0  0  -0.039498  0  4.016493  0  0  -0.016569  -0.023823  0  3.979595  0
C  C70  1  0.06787112  0.11642723  0.69679834  1  0  -0.054149  0  3.696736  0  0  -0.094243  0  3.945341  0  0  -0.089074  0  3.961274  0  0  -0.071988  -0.096696  0  3.934332  0
C  C71  1  0.93212670  0.88357475  0.30319867  1  0  -0.054176  0  3.696814  0  0  -0.094291  0  3.945449  0  0  -0.089121  0  3.96138  0  0  -0.07203  -0.096743  0  3.934442  0
C  C72  1  0.14241127  0.02574931  0.74028137  1  0  -0.118731  0  3.746327  0  0  -0.088642  0  3.993827  0  0  -0.097552  0  4.014981  0  0  -0.016323  -0.0833  0  3.979508  0
C  C73  1  0.85758762  0.97425578  0.25971832  1  0  -0.118625  0  3.74633  0  0  -0.088555  0  3.99387  0  0  -0.097463  0  4.015011  0  0  -0.016266  -0.08322  0  3.979565  0
C  C74  1  0.08364138  0.88317101  0.69878199  1  0  -0.036742  0  3.667864  0  0  -0.078285  0  3.921432  0  0  -0.072924  0  3.937634  0  0  -0.06739  -0.080828  0  3.910102  0
C  C75  1  0.91635722  0.11682993  0.30121859  1  0  -0.036827  0  3.667851  0  0  -0.078377  0  3.921406  0  0  -0.073025  0  3.937632  0  0  -0.067412  -0.080913  0  3.910066  0
C  C76  1  0.87672985  0.67811679  0.57022128  1  0  0.651742  0  3.910188  0  0  0.595166  0  4.203603  0  0  0.630376  0  4.19727  0  0  0.203295  0.570858  0  4.207389  0
C  C77  1  0.12327125  0.32188104  0.42978211  1  0  0.651873  0  3.910077  0  0  0.595266  0  4.203507  0  0  0.630482  0  4.197171  0  0  0.20337  0.570956  0  4.207294  0
C  C78  1  0.84731108  0.15998648  0.56459741  1  0  0.624284  0  3.961099  0  0  0.577265  0  4.246393  0  0  0.610337  0  4.24367  0  0  0.189491  0.554691  0  4.247318  0
C  C79  1  0.15269016  0.84001136  0.43539950  1  0  0.624274  0  3.96127  0  0  0.577236  0  4.246561  0  0  0.610306  0  4.243838  0  0  0.189438  0.554664  0  4.24748  0
S  S80  1  0.30146510  0.09469436  0.85678969  1  0  1.29072  0  5.67858  0  0  1.193882  0  6.204625  0  0  1.241919  0  6.179657  0  0  0.505978  1.160708  0  6.220825  0
S  S81  1  0.69853266  0.90530761  0.14321019  1  0  1.29058  0  5.678693  0  0  1.193744  0  6.204754  0  0  1.241782  0  6.179789  0  0  0.505911  1.160572  0  6.220956  0
N  N82  1  0.61044374  0.34883917  0.33653896  1  0  -0.344729  0  3.304845  0  0  -0.26078  0  3.574808  0  0  -0.283506  0  3.594793  0  0  -0.335246  -0.2447  0  3.560279  0
N  N83  1  0.38955219  0.65115761  0.66345933  1  0  -0.344744  0  3.304841  0  0  -0.260803  0  3.574792  0  0  -0.28353  0  3.594778  0  0  -0.335212  -0.24472  0  3.56026  0
N  N84  1  0.25737528  0.96288573  0.08695741  1  0  -0.279453  0  3.255676  0  0  -0.212431  0  3.465831  0  0  -0.227082  0  3.473189  0  0  -0.470654  -0.202377  0  3.460893  0
N  N85  1  0.74262172  0.03711417  0.91304285  1  0  -0.279577  0  3.255702  0  0  -0.212556  0  3.465865  0  0  -0.227205  0  3.473222  0  0  -0.470716  -0.2025  0  3.460944  0
N  N86  1  0.02307028  0.71417178  0.91235428  1  0  -0.355526  0  3.059761  0  0  -0.322659  0  3.327903  0  0  -0.334568  0  3.343579  0  0  -0.319963  -0.314541  0  3.317182  0
N  N87  1  0.97693497  0.28582711  0.08764541  1  0  -0.355424  0  3.059851  0  0  -0.32256  0  3.328019  0  0  -0.334486  0  3.343677  0  0  -0.319969  -0.31444  0  3.317289  0
O  O88  1  0.97641541  0.60301430  0.58909325  1  0  -0.668363  0  2.037203  0  0  -0.594765  0  2.298099  0  0  -0.625884  0  2.286812  0  0  -0.327052  -0.57169  0  2.307106  0
O  O89  1  0.02358679  0.39698665  0.41091138  1  0  -0.668357  0  2.037197  0  0  -0.594788  0  2.298158  0  0  -0.625891  0  2.286825  0  0  -0.32705  -0.571712  0  2.307164  0
O  O90  1  0.72468621  0.62429364  0.51599027  1  0  -0.633656  0  2.000506  0  0  -0.566441  0  2.232119  0  0  -0.594957  0  2.22268  0  0  -0.308197  -0.5456  0  2.237635  0
O  O91  1  0.27531329  0.37570314  0.48401279  1  0  -0.633711  0  2.000492  0  0  -0.566474  0  2.232111  0  0  -0.594995  0  2.22267  0  0  -0.30824  -0.545636  0  2.237626  0
O  O92  1  0.70652680  0.11196627  0.49885456  1  0  -0.64181  0  1.902167  0  0  -0.590679  0  2.118092  0  0  -0.615472  0  2.109243  0  0  -0.335686  -0.572292  0  2.123038  0
O  O93  1  0.29347325  0.88803158  0.50114075  1  0  -0.641887  0  1.902314  0  0  -0.590747  0  2.118231  0  0  -0.615541  0  2.109383  0  0  -0.335732  -0.572367  0  2.123187  0
O  O94  1  0.93216501  0.28976009  0.59404850  1  0  -0.64746  0  2.006074  0  0  -0.577067  0  2.248319  0  0  -0.607945  0  2.23997  0  0  -0.332  -0.554026  0  2.254498  0
O  O95  1  0.06783128  0.71023773  0.40594997  1  0  -0.647349  0  2.006014  0  0  -0.576968  0  2.248268  0  0  -0.607846  0  2.239917  0  0  -0.331931  -0.553932  0  2.254456  0
O  O96  1  0.39952852  0.23348453  0.85412257  1  0  -0.65861  0  1.918865  0  0  -0.618574  0  2.162118  0  0  -0.638297  0  2.147567  0  0  -0.349624  -0.60454  0  2.171453  0
O  O97  1  0.60046864  0.76652263  0.14587789  1  0  -0.658611  0  1.918913  0  0  -0.61858  0  2.162176  0  0  -0.638305  0  2.147628  0  0  -0.349653  -0.604545  0  2.171507  0
O  O98  1  0.19884373  0.09560743  0.93362623  1  0  -0.675231  0  1.97328  0  0  -0.619588  0  2.221123  0  0  -0.641133  0  2.207166  0  0  -0.339076  -0.604172  0  2.229897  0
O  O99  1  0.80115562  0.90439558  0.06637470  1  0  -0.675169  0  1.973307  0  0  -0.619523  0  2.221154  0  0  -0.641061  0  2.207183  0  0  -0.339066  -0.604109  0  2.229925  0
O  O100  1  0.40090865  0.99437413  0.86411077  1  0  -0.665756  0  1.970256  0  0  -0.618567  0  2.212016  0  0  -0.638383  0  2.198184  0  0  -0.350376  -0.604579  0  2.220932  0
O  O101  1  0.59909108  0.00562992  0.13588961  1  0  -0.665694  0  1.970324  0  0  -0.618483  0  2.212047  0  0  -0.6383  0  2.19822  0  0  -0.350303  -0.604495  0  2.220961  0
O  O102  1  0.55231488  0.31429593  0.57238442  1  0  -0.826339  0  1.821204  0  0  -0.766487  0  2.000013  0  0  -0.787837  0  1.967306  0  0  -0.58849  -0.751337  0  2.023531  0
O  O103  1  0.44768219  0.68570085  0.42761763  1  0  -0.826389  0  1.821132  0  0  -0.766531  0  1.99996  0  0  -0.787882  0  1.967254  0  0  -0.5885  -0.751383  0  2.02348  0
