# generated using pymatgen
data_TbH19C27O8
_symmetry_space_group_name_H-M   'P 1'
_cell_length_a   13.78570389
_cell_length_b   13.50032481
_cell_length_c   22.14179553
_cell_angle_alpha   107.75802960
_cell_angle_beta   102.00591505
_cell_angle_gamma   89.98611639
_symmetry_Int_Tables_number   1
_chemical_formula_structural   TbH19C27O8
_chemical_formula_sum   'Tb4 H76 C108 O32'
_cell_volume   3829.80760385
_cell_formula_units_Z   4
loop_
 _symmetry_equiv_pos_site_id
 _symmetry_equiv_pos_as_xyz
  1  'x, y, z'
loop_
 _atom_site_type_symbol
 _atom_site_label
 _atom_site_symmetry_multiplicity
 _atom_site_fract_x
 _atom_site_fract_y
 _atom_site_fract_z
 _atom_site_occupancy
 _atom_site_pbe_bader_charge
 _atom_site_pbe_bader_spin_density
 _atom_site_pbe_cm5_charge
 _atom_site_pbe_ddec_charge
 _atom_site_pbe_ddec_spin_density
 _atom_site_pbe_ddec_sum_bond_order
 _atom_site_pbe_magmom
Tb  Tb0  1  0.95298366  0.99881873  0.40994753  1  2.156443  0  1.501406  2.048275  0  2.156643  0
Tb  Tb1  1  0.54698315  0.58887923  0.59009079  1  2.157417  0  1.50082  2.035398  0  2.181982  0
Tb  Tb2  1  0.04702054  0.00117803  0.59006476  1  2.156892  0  1.501251  2.047999  0  2.157131  0
Tb  Tb3  1  0.45300689  0.41110279  0.40989874  1  2.157412  0  1.500782  2.035441  0  2.181828  0
H  H4  1  0.08040757  0.27760544  0.63344229  1  0.127571  0  0.113033  0.127236  0  1.034859  0
H  H5  1  0.41973621  0.64425956  0.36642276  1  0.12545  0  0.112966  0.126935  0  1.035225  0
H  H6  1  0.91959726  0.72240466  0.36656010  1  0.127689  0  0.113016  0.12719  0  1.034783  0
H  H7  1  0.58026827  0.35574623  0.63357163  1  0.125381  0  0.113029  0.126904  0  1.035474  0
H  H8  1  0.30559584  0.51602868  0.65424817  1  0.114036  0  0.110324  0.114801  0  1.020177  0
H  H9  1  0.19428454  0.86177623  0.34578957  1  0.111094  0  0.110328  0.115344  0  1.019415  0
H  H10  1  0.69440478  0.48397944  0.34574619  1  0.114732  0  0.110332  0.114733  0  1.02026  0
H  H11  1  0.80570192  0.13820380  0.65420945  1  0.111306  0  0.110272  0.115299  0  1.019489  0
H  H12  1  0.19259912  0.28930708  0.46799020  1  0.110176  0  0.114211  0.128551  0  0.990668  0
H  H13  1  0.30759654  0.82140977  0.53200842  1  0.106537  0  0.114406  0.128606  0  0.990557  0
H  H14  1  0.80737867  0.71069250  0.53201789  1  0.109806  0  0.114208  0.128606  0  0.990661  0
H  H15  1  0.69239252  0.17857358  0.46798851  1  0.106472  0  0.114392  0.128489  0  0.990558  0
H  H16  1  0.15213171  0.30529047  0.73790204  1  0.053865  0  0.10076  0.108071  0  1.028302  0
H  H17  1  0.34837898  0.56772853  0.26204288  1  0.084507  0  0.101068  0.108495  0  1.028699  0
H  H18  1  0.84787742  0.69471218  0.26210227  1  0.053964  0  0.100733  0.108022  0  1.028336  0
H  H19  1  0.65161343  0.43226223  0.73794601  1  0.084273  0  0.10106  0.108455  0  1.028753  0
H  H20  1  0.12992959  0.38566511  0.84813447  1  0.067956  0  0.097161  0.095245  0  1.038841  0
H  H21  1  0.37071651  0.53811398  0.15191318  1  0.073669  0  0.09724  0.095352  0  1.039078  0
H  H22  1  0.87006539  0.61433548  0.15186704  1  0.067834  0  0.097172  0.095268  0  1.03892  0
H  H23  1  0.62928887  0.46189743  0.84807830  1  0.073735  0  0.097225  0.095244  0  1.039244  0
H  H24  1  0.19846328  0.68935417  0.83502294  1  0.018781  0  0.099404  0.096309  0  1.014907  0
H  H25  1  0.30141704  0.85482253  0.16504866  1  0.053486  0  0.099481  0.095641  0  1.015622  0
H  H26  1  0.80153631  0.31065683  0.16497955  1  0.018699  0  0.099372  0.096174  0  1.014934  0
H  H27  1  0.69859942  0.14519447  0.83495666  1  0.053571  0  0.099481  0.095677  0  1.0157  0
H  H28  1  0.21879506  0.60880896  0.72432000  1  0.06109  0  0.10221  0.102747  0  1.001565  0
H  H29  1  0.28100600  0.88476196  0.27576320  1  0.060822  0  0.102128  0.102293  0  1.002715  0
H  H30  1  0.78121826  0.39120167  0.27568751  1  0.062132  0  0.102201  0.102741  0  1.001674  0
H  H31  1  0.71900103  0.11524270  0.72423467  1  0.060977  0  0.102169  0.102353  0  1.002802  0
H  H32  1  0.13838195  0.45314661  0.94357890  1  0.058196  0  0.101468  0.101143  0  1.008356  0
H  H33  1  0.36221590  0.51033752  0.05649944  1  0.071418  0  0.101074  0.100684  0  1.009328  0
H  H34  1  0.86161000  0.54686456  0.05642069  1  0.058041  0  0.101514  0.101183  0  1.008196  0
H  H35  1  0.63780784  0.48966236  0.94349993  1  0.071784  0  0.101041  0.100674  0  1.009265  0
H  H36  1  0.09651954  0.53446862  0.04786183  1  0.061323  0  0.100822  0.098669  0  1.017126  0
H  H37  1  0.40418267  0.48757267  0.95228994  1  0.066711  0  0.100706  0.098314  0  1.018725  0
H  H38  1  0.90350333  0.46554538  0.95214745  1  0.060907  0  0.100876  0.098733  0  1.017024  0
H  H39  1  0.59582563  0.51243638  0.04771830  1  0.066808  0  0.100655  0.098231  0  1.018769  0
H  H40  1  0.09405215  0.83179576  0.01254983  1  0.049323  0  0.09741  0.092383  0  1.021824  0
H  H41  1  0.40644839  0.82021677  0.98778598  1  0.052324  0  0.097448  0.092178  0  1.021316  0
H  H42  1  0.90595108  0.16820801  0.98745554  1  0.049237  0  0.09739  0.09242  0  1.021727  0
H  H43  1  0.59352314  0.17976261  0.01219179  1  0.052342  0  0.097392  0.092129  0  1.021335  0
H  H44  1  0.12967333  0.74939896  0.90696834  1  0.027324  0  0.09901  0.096228  0  1.014562  0
H  H45  1  0.37075382  0.84325866  0.09334313  1  0.038227  0  0.099001  0.096453  0  1.014834  0
H  H46  1  0.87031193  0.25060473  0.09302473  1  0.02753  0  0.099002  0.096147  0  1.014427  0
H  H47  1  0.62923565  0.15674051  0.90664326  1  0.038698  0  0.098996  0.096467  0  1.014921  0
H  H48  1  0.09126482  0.60896492  0.14003518  1  0.064236  0  0.102717  0.103293  0  1.010197  0
H  H49  1  0.40851237  0.47001769  0.86022034  1  0.037334  0  0.102695  0.103041  0  1.011037  0
H  H50  1  0.90868501  0.39102695  0.85995924  1  0.063835  0  0.102831  0.103372  0  1.010089  0
H  H51  1  0.59146255  0.52996239  0.13978250  1  0.037622  0  0.102713  0.103108  0  1.01119  0
H  H52  1  0.04559669  0.69470196  0.24447139  1  0.110017  0  0.107048  0.110459  0  0.993071  0
H  H53  1  0.45425224  0.45094539  0.75568666  1  0.096788  0  0.107296  0.111102  0  0.993145  0
H  H54  1  0.95435730  0.30530204  0.75551959  1  0.110478  0  0.107015  0.110372  0  0.992972  0
H  H55  1  0.54572304  0.54903988  0.24430599  1  0.097196  0  0.107371  0.111289  0  0.992887  0
H  H56  1  0.99808812  0.97574226  0.19328246  1  0.088748  0  0.103894  0.108595  0  0.996623  0
H  H57  1  0.50279129  0.78306101  0.80697860  1  0.105414  0  0.103927  0.108704  0  0.996353  0
H  H58  1  0.00198029  0.02431265  0.80673623  1  0.089057  0  0.104028  0.108722  0  0.996596  0
H  H59  1  0.49723097  0.21690447  0.19302161  1  0.105025  0  0.103973  0.108698  0  0.996348  0
H  H60  1  0.03726947  0.88987903  0.08682551  1  0.034004  0  0.097655  0.094946  0  1.025138  0
H  H61  1  0.46365945  0.80409192  0.91337067  1  0.026349  0  0.097741  0.095292  0  1.023811  0
H  H62  1  0.96282302  0.11017403  0.91319679  1  0.033857  0  0.097687  0.094808  0  1.025624  0
H  H63  1  0.53636015  0.19589411  0.08662132  1  0.025939  0  0.097632  0.095191  0  1.023743  0
H  H64  1  0.88063158  0.09412188  0.31863108  1  0.636723  0  0.31888  0.411937  0  0.892075  0
H  H65  1  0.61980729  0.77560037  0.68126073  1  0.641189  0  0.317962  0.409717  0  0.894477  0
H  H66  1  0.11939043  0.90587324  0.68138042  1  0.636589  0  0.318803  0.411707  0  0.892379  0
H  H67  1  0.38020293  0.22440311  0.31873905  1  0.641105  0  0.317944  0.409741  0  0.8945  0
H  H68  1  0.88882509  0.18571111  0.38239805  1  0.619199  0  0.32883  0.416287  0  0.87296  0
H  H69  1  0.61139839  0.80309112  0.61737169  1  0.624789  0  0.328893  0.417029  0  0.871895  0
H  H70  1  0.11117894  0.81428088  0.61760807  1  0.619127  0  0.328874  0.416328  0  0.872848  0
H  H71  1  0.38858881  0.19690765  0.38262344  1  0.624924  0  0.328901  0.417  0  0.871912  0
H  H72  1  0.78102562  0.83818023  0.35870289  1  0.614214  0  0.322699  0.401474  0  0.901466  0
H  H73  1  0.71881549  0.47905129  0.64126245  1  0.624412  0  0.323074  0.401734  0  0.900953  0
H  H74  1  0.21896114  0.16182504  0.64129171  1  0.614413  0  0.322737  0.4015  0  0.901439  0
H  H75  1  0.28114924  0.52092623  0.35873102  1  0.624644  0  0.323025  0.401601  0  0.901175  0
H  H76  1  0.75007334  0.95148403  0.38875116  1  0.633394  0  0.32783  0.419833  0  0.874455  0
H  H77  1  0.74982514  0.56219629  0.61120708  1  0.638185  0  0.327989  0.419466  0  0.874804  0
H  H78  1  0.24991711  0.04852557  0.61124688  1  0.633699  0  0.327825  0.419749  0  0.874574  0
H  H79  1  0.25015465  0.43779774  0.38880323  1  0.637903  0  0.328005  0.419465  0  0.874837  0
C  C80  1  0.06398016  0.18231057  0.50485205  1  1.525511  0  0.220701  0.637487  0  4.162015  0
C  C81  1  0.43620974  0.67754571  0.49510521  1  1.545023  0  0.221606  0.640723  0  4.158039  0
C  C82  1  0.93601230  0.81768701  0.49515261  1  1.525142  0  0.220542  0.637472  0  4.161949  0
C  C83  1  0.56376937  0.32243059  0.50488178  1  1.54666  0  0.22126  0.640114  0  4.158382  0
C  C84  1  0.13131227  0.27399934  0.54720119  1  0.037251  0  -0.01842  -0.037795  0  4.01139  0
C  C85  1  0.36899628  0.72698428  0.45276575  1  -0.082716  0  -0.018808  -0.038311  0  4.010111  0
C  C86  1  0.86868918  0.72599718  0.45280399  1  0.037016  0  -0.018582  -0.03838  0  4.011615  0
C  C87  1  0.63098398  0.27297116  0.54723830  1  -0.082506  0  -0.0187  -0.038164  0  4.009798  0
C  C88  1  0.13147189  0.31390883  0.61352793  1  -0.088646  0  -0.080027  -0.160002  0  3.919365  0
C  C89  1  0.36871137  0.70051317  0.38640534  1  -0.036289  0  -0.079815  -0.160238  0  3.917617  0
C  C90  1  0.86852812  0.68609335  0.38647284  1  -0.088942  0  -0.079923  -0.159726  0  3.919046  0
C  C91  1  0.63127098  0.29947614  0.61359584  1  -0.036392  0  -0.080055  -0.160454  0  3.918318  0
C  C92  1  0.19219995  0.40344468  0.65319529  1  -0.053984  0  -0.006622  0.063735  0  4.015809  0
C  C93  1  0.30794362  0.75045798  0.34679849  1  -0.041693  0  -0.00615  0.064437  0  4.013928  0
C  C94  1  0.80779353  0.59656080  0.34680029  1  -0.054016  0  -0.006694  0.063671  0  4.016067  0
C  C95  1  0.69205609  0.24954838  0.65320178  1  -0.041771  0  -0.006066  0.064629  0  4.013616  0
C  C96  1  0.25509517  0.44861534  0.62495037  1  -0.083181  0  -0.0695  -0.116539  0  3.891141  0
C  C97  1  0.24493079  0.82372295  0.37506866  1  -0.07722  0  -0.07005  -0.117134  0  3.889183  0
C  C98  1  0.74490933  0.55139277  0.37504627  1  -0.083826  0  -0.069424  -0.11622  0  3.891436  0
C  C99  1  0.75507301  0.17628185  0.62493543  1  -0.077588  0  -0.069911  -0.11694  0  3.889489  0
C  C100  1  0.25618534  0.40759723  0.55893250  1  0.007127  0  -0.016465  -0.035973  0  3.974871  0
C  C101  1  0.24390473  0.84873065  0.44109176  1  0.015684  0  -0.017059  -0.037734  0  3.977383  0
C  C102  1  0.74381350  0.59237329  0.44106568  1  0.006665  0  -0.016455  -0.036408  0  3.975193  0
C  C103  1  0.75609971  0.15126855  0.55891604  1  0.016572  0  -0.017202  -0.038192  0  3.978117  0
C  C104  1  0.19299319  0.32093556  0.51954341  1  -0.018373  0  -0.072893  -0.10201  0  3.918669  0
C  C105  1  0.30725279  0.80153965  0.48045615  1  0.018946  0  -0.072672  -0.101403  0  3.918636  0
C  C106  1  0.80700477  0.67905201  0.48046678  1  -0.017833  0  -0.07272  -0.10147  0  3.91778  0
C  C107  1  0.69271855  0.19842022  0.51954152  1  0.017846  0  -0.072618  -0.10114  0  3.918875  0
C  C108  1  0.32743519  0.45526650  0.53118272  1  1.577946  0  0.233189  0.652365  0  4.144361  0
C  C109  1  0.17257841  0.92395267  0.46882658  1  1.578893  0  0.23386  0.65372  0  4.146449  0
C  C110  1  0.67256150  0.54472529  0.46880490  1  1.584101  0  0.23318  0.652402  0  4.144896  0
C  C111  1  0.82741749  0.07603369  0.53118471  1  1.579217  0  0.234102  0.654352  0  4.145781  0
C  C112  1  0.18627917  0.45067839  0.72182991  1  -0.050417  0  -0.01217  0.060641  0  4.011282  0
C  C113  1  0.31387591  0.72916523  0.27817893  1  -0.007548  0  -0.012631  0.060505  0  4.010233  0
C  C114  1  0.81370912  0.54933123  0.27816893  1  -0.04971  0  -0.012175  0.060572  0  4.011534  0
C  C115  1  0.68612249  0.27084094  0.72182343  1  -0.007703  0  -0.012602  0.060504  0  4.010147  0
C  C116  1  0.16316570  0.38981006  0.75897294  1  0.003896  0  -0.091141  -0.123803  0  3.972999  0
C  C117  1  0.33716940  0.63122027  0.24100890  1  -0.099325  0  -0.091676  -0.124752  0  3.975576  0
C  C118  1  0.83682015  0.61018913  0.24102413  1  0.003297  0  -0.091105  -0.12374  0  3.973199  0
C  C119  1  0.66283989  0.36878745  0.75899195  1  -0.099628  0  -0.091713  -0.124777  0  3.975966  0
C  C120  1  0.15061077  0.43588450  0.82197801  1  -0.036779  0  -0.092532  -0.127256  0  3.987286  0
C  C121  1  0.34980345  0.61444214  0.17804909  1  0.016896  0  -0.092446  -0.127925  0  3.987557  0
C  C122  1  0.84938649  0.56411529  0.17802348  1  -0.036614  0  -0.092587  -0.127376  0  3.987479  0
C  C123  1  0.65020072  0.38557262  0.82194869  1  0.016574  0  -0.09245  -0.127799  0  3.987572  0
C  C124  1  0.15961621  0.54480984  0.85092934  1  -0.045234  0  -0.009451  0.061297  0  3.99361  0
C  C125  1  0.34077093  0.69452050  0.14919507  1  0.004118  0  -0.009485  0.062917  0  3.992382  0
C  C126  1  0.84039046  0.45519224  0.14907135  1  -0.045559  0  -0.009334  0.061545  0  3.993546  0
C  C127  1  0.65923460  0.30547780  0.85079738  1  0.00397  0  -0.00936  0.063156  0  3.991993  0
C  C128  1  0.18689211  0.60493212  0.81431115  1  0.032148  0  -0.089735  -0.121812  0  3.995032  0
C  C129  1  0.31317772  0.79114111  0.18577114  1  -0.038558  0  -0.089335  -0.120162  0  3.99274  0
C  C130  1  0.81311675  0.39507611  0.18569400  1  0.032437  0  -0.089714  -0.121721  0  3.994883  0
C  C131  1  0.68683230  0.20886578  0.81422890  1  -0.038249  0  -0.089355  -0.120263  0  3.993292  0
C  C132  1  0.19973811  0.55922530  0.75144401  1  -0.04025  0  -0.091096  -0.12572  0  3.999929  0
C  C133  1  0.30019001  0.80811401  0.24859470  1  -0.07875  0  -0.090814  -0.12587  0  3.999539  0
C  C134  1  0.80025948  0.44078433  0.24856019  1  -0.041252  0  -0.09113  -0.12573  0  3.999899  0
C  C135  1  0.69981124  0.19188067  0.75140641  1  -0.078365  0  -0.090848  -0.125936  0  3.999682  0
C  C136  1  0.13788471  0.59385981  0.91569818  1  -0.084614  0  -0.005856  0.071712  0  3.98884  0
C  C137  1  0.36259007  0.67892085  0.08450142  1  -0.001869  0  -0.005882  0.071046  0  3.989553  0
C  C138  1  0.86211670  0.40615689  0.08430376  1  -0.084511  0  -0.00591  0.071552  0  3.989212  0
C  C139  1  0.63741679  0.32108861  0.91549807  1  -0.001223  0  -0.006001  0.07081  0  3.989494  0
C  C140  1  0.12769766  0.53639910  0.95775765  1  0.062634  0  -0.089404  -0.125001  0  3.981562  0
C  C141  1  0.37292311  0.57948345  0.04241118  1  -0.121316  0  -0.089235  -0.124674  0  3.982498  0
C  C142  1  0.87231030  0.46360657  0.04224349  1  0.062886  0  -0.089481  -0.125035  0  3.98169  0
C  C143  1  0.62709490  0.42052278  0.95759587  1  -0.121881  0  -0.08926  -0.124655  0  3.98252  0
C  C144  1  0.10462976  0.58323962  0.01783618  1  -0.081492  0  -0.087827  -0.118961  0  3.985266  0
C  C145  1  0.39597326  0.56633712  0.98235353  1  0.004586  0  -0.087562  -0.118214  0  3.984365  0
C  C146  1  0.89537036  0.41677349  0.98216532  1  -0.081515  0  -0.087906  -0.119149  0  3.985648  0
C  C147  1  0.60403234  0.43367631  0.01765210  1  0.004689  0  -0.087491  -0.118105  0  3.983965  0
C  C148  1  0.09134639  0.69071755  0.03999960  1  -0.066714  0  -0.01099  0.057803  0  3.993125  0
C  C149  1  0.40912693  0.65169045  0.96022297  1  -0.045263  0  -0.010852  0.05832  0  3.989733  0
C  C150  1  0.90865535  0.30930853  0.96000460  1  -0.066233  0  -0.010971  0.057904  0  3.992915  0
C  C151  1  0.59087467  0.34830156  0.03977097  1  -0.045312  0  -0.010986  0.058181  0  3.989393  0
C  C152  1  0.10229191  0.74810965  0.99803052  1  -0.044637  0  -0.092703  -0.123747  0  4.005119  0
C  C153  1  0.39819469  0.75099060  0.00226774  1  -0.077007  0  -0.092991  -0.123961  0  4.004642  0
C  C154  1  0.89770579  0.25190180  0.00196707  1  -0.045638  0  -0.092682  -0.123966  0  4.004605  0
C  C155  1  0.60180348  0.24900137  0.99772006  1  -0.076934  0  -0.092835  -0.12387  0  4.004603  0
C  C156  1  0.12411178  0.70119011  0.93776700  1  0.017036  0  -0.093804  -0.129008  0  4.001043  0
C  C157  1  0.37638282  0.76424547  0.06252304  1  0.004922  0  -0.093675  -0.129478  0  4.002173  0
C  C158  1  0.87589247  0.29883160  0.06223753  1  0.017879  0  -0.093734  -0.128671  0  4.000539  0
C  C159  1  0.62361605  0.23575940  0.93746510  1  0.004267  0  -0.093625  -0.129432  0  4.002322  0
C  C160  1  0.06674872  0.74140762  0.10378531  1  -0.054468  0  -0.002096  0.074373  0  3.987794  0
C  C161  1  0.43361288  0.63867795  0.89644078  1  -0.015848  0  -0.00297  0.073884  0  3.985608  0
C  C162  1  0.93325774  0.25860080  0.89621774  1  -0.055323  0  -0.002066  0.074348  0  3.987529  0
C  C163  1  0.56638739  0.36129983  0.10355305  1  -0.016496  0  -0.00291  0.073958  0  3.985651  0
C  C164  1  0.06882486  0.68868793  0.15003639  1  -0.011474  0  -0.086848  -0.131568  0  3.972382  0
C  C165  1  0.43119066  0.53961289  0.85019033  1  0.048952  0  -0.086943  -0.131982  0  3.97463  0
C  C166  1  0.93116176  0.31131413  0.84996346  1  -0.011175  0  -0.08704  -0.131617  0  3.972359  0
C  C167  1  0.56879011  0.46036359  0.14979913  1  0.048312  0  -0.086895  -0.131896  0  3.974477  0
C  C168  1  0.04411138  0.73687692  0.20946463  1  -0.05707  0  -0.078942  -0.081366  0  3.97794  0
C  C169  1  0.45587148  0.52813751  0.79072721  1  -0.110847  0  -0.079382  -0.082496  0  3.978292  0
C  C170  1  0.95588007  0.26313491  0.79053865  1  -0.057617  0  -0.078785  -0.081244  0  3.977979  0
C  C171  1  0.54410837  0.47183196  0.20926381  1  -0.110997  0  -0.079583  -0.083125  0  3.978554  0
C  C172  1  0.01740276  0.84037642  0.22532205  1  -0.039811  0  -0.022596  -0.044326  0  3.983787  0
C  C173  1  0.48285984  0.61568696  0.77488196  1  -0.054049  0  -0.022945  -0.044939  0  3.983241  0
C  C174  1  0.98262703  0.15966214  0.77469130  1  -0.044687  0  -0.02261  -0.044019  0  3.984208  0
C  C175  1  0.51712391  0.38429607  0.22511310  1  -0.052731  0  -0.022746  -0.044462  0  3.983155  0
C  C176  1  0.01744714  0.89480078  0.18055694  1  -0.1108  0  -0.085616  -0.086961  0  3.995167  0
C  C177  1  0.48310685  0.71490060  0.81964108  1  -0.036338  0  -0.085431  -0.086277  0  3.997787  0
C  C178  1  0.98262846  0.10524397  0.81946028  1  -0.105372  0  -0.085935  -0.087406  0  3.995625  0
C  C179  1  0.51688243  0.28506777  0.18034660  1  -0.035976  0  -0.085349  -0.086287  0  3.997592  0
C  C180  1  0.04056880  0.84584088  0.12090973  1  0.049647  0  -0.095303  -0.14209  0  4.001288  0
C  C181  1  0.46005414  0.72587620  0.87932480  1  -0.01773  0  -0.095105  -0.142249  0  3.999913  0
C  C182  1  0.95947848  0.15418758  0.87910148  1  0.050138  0  -0.095314  -0.141915  0  4.001923  0
C  C183  1  0.53994997  0.27411051  0.12066857  1  -0.017696  0  -0.095156  -0.14221  0  4.000258  0
C  C184  1  0.98816024  0.89250372  0.28771532  1  1.525873  0  0.192948  0.580364  0  4.223746  0
C  C185  1  0.51201795  0.60519189  0.71242459  1  1.532626  0  0.193105  0.581427  0  4.222886  0
C  C186  1  0.01186270  0.10752922  0.71229104  1  1.523211  0  0.192659  0.580043  0  4.224618  0
C  C187  1  0.48796706  0.39477591  0.28756482  1  1.531985  0  0.193113  0.58127  0  4.223077  0
O  O188  1  0.85175479  0.11927310  0.35714981  1  -1.215299  0  -0.607609  -0.791082  0  1.940352  0
O  O189  1  0.64843650  0.76187350  0.64263004  1  -1.224599  0  -0.606604  -0.788142  0  1.943823  0
O  O190  1  0.14825685  0.88071641  0.64285696  1  -1.215039  0  -0.607559  -0.79088  0  1.940514  0
O  O191  1  0.35155277  0.23812169  0.35736010  1  -1.224572  0  -0.606634  -0.788163  0  1.943835  0
O  O192  1  0.78552984  0.90930874  0.35683663  1  -1.211272  0  -0.604213  -0.791726  0  1.994157  0
O  O193  1  0.71429885  0.55203261  0.64310124  1  -1.226136  0  -0.604817  -0.790104  0  1.996115  0
O  O194  1  0.21446689  0.09070065  0.64316581  1  -1.211733  0  -0.604256  -0.79165  0  1.994198  0
O  O195  1  0.28567568  0.44795429  0.35690213  1  -1.226182  0  -0.604823  -0.790038  0  1.996367  0
O  O196  1  0.03299233  0.17148874  0.44489979  1  -1.173659  0  -0.375116  -0.628829  0  2.177485  0
O  O197  1  0.46706720  0.72657369  0.55509622  1  -1.181728  0  -0.375287  -0.628416  0  2.177963  0
O  O198  1  0.96699486  0.82850481  0.55511009  1  -1.173682  0  -0.375119  -0.628861  0  2.177221  0
O  O199  1  0.53293564  0.27341774  0.44489412  1  -1.182188  0  -0.375033  -0.628122  0  2.178429  0
O  O200  1  0.03820891  0.11398307  0.52922470  1  -1.214148  0  -0.435832  -0.757215  0  2.457979  0
O  O201  1  0.46187023  0.58476447  0.47073727  1  -1.220922  0  -0.436185  -0.756416  0  2.458548  0
O  O202  1  0.96180567  0.88603056  0.47079182  1  -1.213694  0  -0.435748  -0.757179  0  2.457929  0
O  O203  1  0.53813541  0.41522088  0.52925555  1  -1.221709  0  -0.436093  -0.756172  0  2.458616  0
O  O204  1  0.33053632  0.41097795  0.47168616  1  -1.206425  0  -0.392674  -0.683559  0  2.28938  0
O  O205  1  0.16942670  0.93914497  0.52831164  1  -1.203416  0  -0.39292  -0.685236  0  2.28923  0
O  O206  1  0.66943780  0.58900861  0.52829251  1  -1.206795  0  -0.392801  -0.683651  0  2.28994  0
O  O207  1  0.83057762  0.06082159  0.47170633  1  -1.20325  0  -0.393047  -0.685406  0  2.288905  0
O  O208  1  0.38094463  0.53566378  0.56875879  1  -1.190911  0  -0.399888  -0.65017  0  2.309209  0
O  O209  1  0.11901698  0.96670598  0.43121717  1  -1.19134  0  -0.40037  -0.652773  0  2.307815  0
O  O210  1  0.61904809  0.46433493  0.43121193  1  -1.196628  0  -0.399753  -0.65004  0  2.308716  0
O  O211  1  0.88097291  0.03328584  0.56880703  1  -1.191694  0  -0.400402  -0.653085  0  2.307847  0
O  O212  1  0.97954256  0.99166126  0.30470490  1  -1.179349  0  -0.398875  -0.66536  0  2.186245  0
O  O213  1  0.52088812  0.68729357  0.69542983  1  -1.191815  0  -0.398554  -0.663991  0  2.185916  0
O  O214  1  0.02050789  0.00837420  0.69531464  1  -1.178958  0  -0.39862  -0.665218  0  2.186605  0
O  O215  1  0.47912459  0.31267500  0.30456423  1  -1.191846  0  -0.398503  -0.663923  0  2.185853  0
O  O216  1  0.97233278  0.84019977  0.32446679  1  -1.186244  0  -0.377019  -0.630809  0  2.225725  0
O  O217  1  0.52738692  0.51598040  0.67563421  1  -1.184918  0  -0.37645  -0.629389  0  2.226688  0
O  O218  1  0.02765584  0.15982183  0.67552693  1  -1.184403  0  -0.37681  -0.630462  0  2.226107  0
O  O219  1  0.47258150  0.48398754  0.32435149  1  -1.184817  0  -0.376645  -0.629422  0  2.226842  0
