# generated using pymatgen
data_SnH12C10(OF)2
_symmetry_space_group_name_H-M   'P 1'
_cell_length_a   8.15666594
_cell_length_b   8.16542405
_cell_length_c   18.75708425
_cell_angle_alpha   80.05153231
_cell_angle_beta   80.01610896
_cell_angle_gamma   75.73968293
_symmetry_Int_Tables_number   1
_chemical_formula_structural   SnH12C10(OF)2
_chemical_formula_sum   'Sn4 H48 C40 O8 F8'
_cell_volume   1181.32070949
_cell_formula_units_Z   4
loop_
 _symmetry_equiv_pos_site_id
 _symmetry_equiv_pos_as_xyz
  1  'x, y, z'
loop_
 _atom_site_type_symbol
 _atom_site_label
 _atom_site_symmetry_multiplicity
 _atom_site_fract_x
 _atom_site_fract_y
 _atom_site_fract_z
 _atom_site_occupancy
 _atom_site_hle17_bader_spin_density
 _atom_site_hle17_ddec_charge
 _atom_site_hle17_ddec_spin_density
 _atom_site_hle17_ddec_sum_bond_order
 _atom_site_hle17_magmom
 _atom_site_hse06_10hf_bader_spin_density
 _atom_site_hse06_10hf_ddec_charge
 _atom_site_hse06_10hf_ddec_spin_density
 _atom_site_hse06_10hf_ddec_sum_bond_order
 _atom_site_hse06_10hf_magmom
 _atom_site_hse06_bader_spin_density
 _atom_site_hse06_ddec_charge
 _atom_site_hse06_ddec_spin_density
 _atom_site_hse06_ddec_sum_bond_order
 _atom_site_hse06_magmom
 _atom_site_pbe_bader_spin_density
 _atom_site_pbe_cm5_charge
 _atom_site_pbe_ddec_charge
 _atom_site_pbe_ddec_spin_density
 _atom_site_pbe_ddec_sum_bond_order
 _atom_site_pbe_magmom
Sn  Sn0  1  0.09107772  0.34350690  0.72608119  1  0  1.384437  0  2.875579  0  0  1.257036  0  3.360936  0  0  1.294563  0  3.345024  0  0  0.52971  1.231126  0  3.371724  0
Sn  Sn1  1  0.65655554  0.90869870  0.77385404  1  0  1.38491  0  2.875677  0  0  1.25742  0  3.361191  0  0  1.295033  0  3.345025  0  0  0.529925  1.231561  0  3.371816  0
Sn  Sn2  1  0.90892357  0.65648811  0.27391989  1  0  1.384467  0  2.875586  0  0  1.257005  0  3.361143  0  0  1.294574  0  3.345071  0  0  0.529714  1.231135  0  3.371779  0
Sn  Sn3  1  0.34344544  0.09129757  0.22614858  1  0  1.384908  0  2.875657  0  0  1.257419  0  3.361161  0  0  1.295027  0  3.344994  0  0  0.529902  1.231561  0  3.371786  0
H  H4  1  0.11392937  0.99707307  0.56987179  1  0  0.147274  0  0.950993  0  0  0.147326  0  1.025378  0  0  0.152236  0  1.0213  0  0  0.11232  0.143735  0  1.028498  0
H  H5  1  0.00320411  0.88582525  0.93008271  1  0  0.146813  0  0.950921  0  0  0.146996  0  1.025109  0  0  0.151939  0  1.020965  0  0  0.112038  0.14343  0  1.028173  0
H  H6  1  0.88606581  0.00292703  0.43012564  1  0  0.147237  0  0.950939  0  0  0.147263  0  1.025411  0  0  0.152198  0  1.021274  0  0  0.112286  0.143711  0  1.028452  0
H  H7  1  0.99680105  0.11418001  0.06991681  1  0  0.14692  0  0.950845  0  0  0.147077  0  1.025065  0  0  0.152019  0  1.020921  0  0  0.112057  0.143497  0  1.028143  0
H  H8  1  0.46496298  0.62855645  0.44464721  1  0  0.154778  0  0.93287  0  0  0.163169  0  0.994379  0  0  0.167184  0  0.991885  0  0  0.11775  0.160294  0  0.996237  0
H  H9  1  0.37119281  0.53495476  0.05555848  1  0  0.155142  0  0.93223  0  0  0.163373  0  0.993956  0  0  0.167473  0  0.99122  0  0  0.117884  0.160591  0  0.99558  0
H  H10  1  0.53503796  0.37143471  0.55535418  1  0  0.154805  0  0.932806  0  0  0.163172  0  0.994327  0  0  0.167201  0  0.991828  0  0  0.117759  0.160312  0  0.996177  0
H  H11  1  0.62881073  0.46504663  0.94444357  1  0  0.155171  0  0.932254  0  0  0.163411  0  0.993951  0  0  0.167488  0  0.991244  0  0  0.117892  0.16063  0  0.995575  0
H  H12  1  0.64245056  0.83455357  0.60655986  1  0  0.130738  0  0.958808  0  0  0.138621  0  1.025331  0  0  0.142203  0  1.023224  0  0  0.112974  0.13615  0  1.02665  0
H  H13  1  0.16547820  0.35780268  0.89342737  1  0  0.130668  0  0.958827  0  0  0.138432  0  1.025519  0  0  0.142038  0  1.023382  0  0  0.112847  0.135959  0  1.026846  0
H  H14  1  0.35754162  0.16545418  0.39343617  1  0  0.130762  0  0.958788  0  0  0.138705  0  1.025087  0  0  0.142202  0  1.023256  0  0  0.113017  0.136141  0  1.026688  0
H  H15  1  0.83452447  0.64220256  0.10657287  1  0  0.130764  0  0.958916  0  0  0.13855  0  1.025566  0  0  0.142154  0  1.023433  0  0  0.11288  0.136077  0  1.026894  0
H  H16  1  0.76259749  0.49724613  0.70674689  1  0  0.1522  0  1.009565  0  0  0.173181  0  1.064488  0  0  0.175079  0  1.066469  0  0  0.084416  0.171826  0  1.063138  0
H  H17  1  0.50281444  0.23681884  0.79332595  1  0  0.151624  0  1.010186  0  0  0.172384  0  1.065458  0  0  0.174281  0  1.067446  0  0  0.084093  0.171028  0  1.064113  0
H  H18  1  0.23740108  0.50275522  0.29325553  1  0  0.152152  0  1.009544  0  0  0.173142  0  1.064467  0  0  0.175033  0  1.066452  0  0  0.084414  0.17178  0  1.063121  0
H  H19  1  0.49717660  0.76317735  0.20667740  1  0  0.15161  0  1.010244  0  0  0.172356  0  1.06553  0  0  0.174253  0  1.067516  0  0  0.08408  0.171001  0  1.064186  0
H  H20  1  0.84069562  0.32427921  0.65310806  1  0  0.163481  0  0.985608  0  0  0.179579  0  1.044225  0  0  0.182688  0  1.044091  0  0  0.085253  0.177312  0  1.044402  0
H  H21  1  0.67597701  0.15873306  0.84688211  1  0  0.162976  0  0.986833  0  0  0.179322  0  1.045079  0  0  0.182408  0  1.044995  0  0  0.085241  0.177102  0  1.0452  0
H  H22  1  0.15930544  0.67572217  0.34689311  1  0  0.16353  0  0.985583  0  0  0.179661  0  1.044116  0  0  0.182738  0  1.044064  0  0  0.085299  0.177377  0  1.044353  0
H  H23  1  0.32401652  0.84126315  0.15312052  1  0  0.162924  0  0.986943  0  0  0.179276  0  1.045178  0  0  0.182361  0  1.045096  0  0  0.085228  0.177059  0  1.045296  0
H  H24  1  0.89989856  0.52230570  0.62176617  1  0  0.158394  0  0.988438  0  0  0.172224  0  1.049739  0  0  0.176042  0  1.048146  0  0  0.084146  0.169671  0  1.050658  0
H  H25  1  0.47762714  0.09976093  0.87828705  1  0  0.15803  0  0.988065  0  0  0.171985  0  1.049284  0  0  0.175856  0  1.047545  0  0  0.084078  0.16947  0  1.050098  0
H  H26  1  0.10010002  0.47769568  0.37823412  1  0  0.15838  0  0.988461  0  0  0.172448  0  1.049397  0  0  0.176033  0  1.048165  0  0  0.084158  0.169662  0  1.050677  0
H  H27  1  0.52236852  0.90023147  0.12171518  1  0  0.158064  0  0.98804  0  0  0.17199  0  1.049291  0  0  0.175862  0  1.047547  0  0  0.084085  0.169477  0  1.050105  0
H  H28  1  0.20538315  0.11218668  0.84012834  1  0  0.152863  0  0.999263  0  0  0.171976  0  1.055728  0  0  0.174181  0  1.05693  0  0  0.085699  0.170394  0  1.054963  0
H  H29  1  0.88831908  0.79463026  0.65973067  1  0  0.152759  0  0.998837  0  0  0.172066  0  1.054998  0  0  0.174276  0  1.056179  0  0  0.085685  0.17048  0  1.054236  0
H  H30  1  0.79462070  0.88781346  0.15987166  1  0  0.152851  0  0.999296  0  0  0.171976  0  1.055739  0  0  0.174184  0  1.056938  0  0  0.085696  0.170394  0  1.054978  0
H  H31  1  0.11167643  0.20537364  0.34026966  1  0  0.152748  0  0.998819  0  0  0.172069  0  1.054956  0  0  0.174274  0  1.056148  0  0  0.085683  0.170478  0  1.054205  0
H  H32  1  0.05926180  0.03688757  0.80057254  1  0  0.159765  0  0.991719  0  0  0.177838  0  1.047294  0  0  0.180541  0  1.048168  0  0  0.087638  0.175888  0  1.046767  0
H  H33  1  0.96352639  0.94058249  0.69935248  1  0  0.159067  0  0.991526  0  0  0.177229  0  1.047132  0  0  0.179926  0  1.048016  0  0  0.087438  0.175283  0  1.046591  0
H  H34  1  0.94074053  0.96311385  0.19942587  1  0  0.159763  0  0.991747  0  0  0.177837  0  1.04731  0  0  0.180539  0  1.048193  0  0  0.087649  0.175887  0  1.046789  0
H  H35  1  0.03646971  0.05941886  0.30064799  1  0  0.159165  0  0.991525  0  0  0.177331  0  1.047097  0  0  0.180024  0  1.047995  0  0  0.087493  0.175386  0  1.046563  0
H  H36  1  0.97994632  0.19462394  0.86062748  1  0  0.155664  0  1.012713  0  0  0.168827  0  1.076109  0  0  0.171991  0  1.075856  0  0  0.081077  0.16652  0  1.076425  0
H  H37  1  0.80573034  0.01975629  0.63931440  1  0  0.155927  0  1.012412  0  0  0.168697  0  1.076155  0  0  0.171858  0  1.075902  0  0  0.081223  0.1664  0  1.076453  0
H  H38  1  0.02005812  0.80537366  0.13937159  1  0  0.155645  0  1.012703  0  0  0.16881  0  1.076103  0  0  0.171971  0  1.075855  0  0  0.081071  0.1665  0  1.076421  0
H  H39  1  0.19426516  0.98024761  0.36068646  1  0  0.155959  0  1.012364  0  0  0.168734  0  1.076104  0  0  0.171885  0  1.075855  0  0  0.081237  0.166435  0  1.076398  0
H  H40  1  0.30497632  0.52994885  0.74817476  1  0  0.152748  0  1.007862  0  0  0.172431  0  1.062586  0  0  0.174671  0  1.063896  0  0  0.084022  0.170814  0  1.061739  0
H  H41  1  0.46966284  0.69527285  0.75177082  1  0  0.153055  0  1.008029  0  0  0.172848  0  1.062543  0  0  0.175067  0  1.063882  0  0  0.084385  0.171246  0  1.061681  0
H  H42  1  0.69502783  0.47005002  0.25182477  1  0  0.152707  0  1.00785  0  0  0.172411  0  1.062545  0  0  0.174642  0  1.06387  0  0  0.084012  0.170796  0  1.061702  0
H  H43  1  0.53033416  0.30472469  0.24822827  1  0  0.15306  0  1.008102  0  0  0.172862  0  1.062591  0  0  0.175081  0  1.063928  0  0  0.084375  0.171259  0  1.06173  0
H  H44  1  0.26055783  0.58578330  0.65594751  1  0  0.152698  0  1.002002  0  0  0.169423  0  1.061413  0  0  0.170985  0  1.06431  0  0  0.081146  0.168268  0  1.059513  0
H  H45  1  0.41382106  0.73971366  0.84402574  1  0  0.152955  0  1.002198  0  0  0.169634  0  1.061763  0  0  0.171219  0  1.06461  0  0  0.081237  0.168495  0  1.059821  0
H  H46  1  0.73944538  0.41421429  0.34405112  1  0  0.152688  0  1.002018  0  0  0.169404  0  1.061479  0  0  0.170981  0  1.064321  0  0  0.081151  0.168265  0  1.05952  0
H  H47  1  0.58617594  0.26028388  0.15597335  1  0  0.153027  0  1.002091  0  0  0.169681  0  1.061684  0  0  0.171265  0  1.064532  0  0  0.081244  0.168543  0  1.059741  0
H  H48  1  0.41142934  0.39188553  0.68178369  1  0  0.156233  0  0.998268  0  0  0.173393  0  1.056194  0  0  0.176466  0  1.055987  0  0  0.084647  0.171169  0  1.056442  0
H  H49  1  0.60788080  0.58889417  0.81809000  1  0  0.156041  0  0.998096  0  0  0.173187  0  1.056143  0  0  0.176228  0  1.055991  0  0  0.084493  0.170992  0  1.056354  0
H  H50  1  0.58857262  0.60811205  0.31821503  1  0  0.156262  0  0.998266  0  0  0.173421  0  1.056196  0  0  0.176496  0  1.055979  0  0  0.084651  0.171202  0  1.056433  0
H  H51  1  0.39211525  0.41110208  0.18190978  1  0  0.156083  0  0.998042  0  0  0.17323  0  1.056079  0  0  0.176271  0  1.055925  0  0  0.084518  0.171035  0  1.056289  0
C  C52  1  0.33816759  0.05090380  0.64918642  1  0  0.651599  0  3.885304  0  0  0.598553  0  4.177725  0  0  0.632976  0  4.168717  0  0  0.228705  0.575289  0  4.183232  0
C  C53  1  0.94927379  0.66175752  0.85076398  1  0  0.653639  0  3.883188  0  0  0.600648  0  4.175608  0  0  0.635137  0  4.166408  0  0  0.229667  0.577407  0  4.181016  0
C  C54  1  0.66182878  0.94909120  0.35081023  1  0  0.651734  0  3.885375  0  0  0.598634  0  4.177946  0  0  0.633098  0  4.168792  0  0  0.228778  0.575408  0  4.183297  0
C  C55  1  0.05072946  0.33824516  0.14923694  1  0  0.653544  0  3.883126  0  0  0.600517  0  4.175588  0  0  0.635005  0  4.166394  0  0  0.229589  0.577277  0  4.180996  0
C  C56  1  0.37401445  0.92712056  0.59473498  1  0  -0.016838  0  3.77465  0  0  0.009407  0  4.011888  0  0  0.004045  0  4.034617  0  0  -0.011512  0.012666  0  3.996972  0
C  C57  1  0.07299923  0.62597354  0.90525139  1  0  -0.017745  0  3.775122  0  0  0.008125  0  4.012658  0  0  0.002697  0  4.035533  0  0  -0.011862  0.011458  0  3.997642  0
C  C58  1  0.62598686  0.07287445  0.40526504  1  0  -0.016903  0  3.77469  0  0  0.009348  0  4.01197  0  0  0.00404  0  4.034599  0  0  -0.011517  0.012643  0  3.996984  0
C  C59  1  0.92700374  0.37403043  0.09474732  1  0  -0.017692  0  3.775045  0  0  0.008175  0  4.01261  0  0  0.002764  0  4.035459  0  0  -0.011836  0.011505  0  3.997595  0
C  C60  1  0.24098171  0.91783144  0.55827527  1  0  -0.203401  0  3.712959  0  0  -0.250286  0  3.982283  0  0  -0.252988  0  3.998518  0  0  -0.098424  -0.248338  0  3.971646  0
C  C61  1  0.08233654  0.75886204  0.94173836  1  0  -0.20326  0  3.71321  0  0  -0.249462  0  3.981702  0  0  -0.252061  0  3.997781  0  0  -0.09776  -0.247488  0  3.971025  0
C  C62  1  0.75901287  0.08217120  0.44172362  1  0  -0.203252  0  3.713093  0  0  -0.250233  0  3.982566  0  0  -0.252889  0  3.99864  0  0  -0.098373  -0.248237  0  3.971746  0
C  C63  1  0.91766680  0.24114578  0.05825951  1  0  -0.203386  0  3.713436  0  0  -0.249565  0  3.98192  0  0  -0.252168  0  3.998004  0  0  -0.09775  -0.247577  0  3.97125  0
C  C64  1  0.27672472  0.80767941  0.50640137  1  0  0.336644  0  3.789537  0  0  0.323602  0  4.078911  0  0  0.334631  0  4.088513  0  0  0.101069  0.315714  0  4.072842  0
C  C65  1  0.19237130  0.72310551  0.99367373  1  0  0.33547  0  3.791545  0  0  0.323187  0  4.079699  0  0  0.334314  0  4.089055  0  0  0.100755  0.315379  0  4.073388  0
C  C66  1  0.72327942  0.19231945  0.49359923  1  0  0.336565  0  3.789647  0  0  0.323517  0  4.079194  0  0  0.334626  0  4.088524  0  0  0.101021  0.315694  0  4.072877  0
C  C67  1  0.80763291  0.27689847  0.00632543  1  0  0.335405  0  3.791664  0  0  0.323129  0  4.079801  0  0  0.334256  0  4.089154  0  0  0.100733  0.315321  0  4.073491  0
C  C68  1  0.43928804  0.71032378  0.48708115  1  0  -0.291292  0  3.72306  0  0  -0.336873  0  3.996215  0  0  -0.341699  0  4.010286  0  0  -0.104623  -0.333235  0  3.98644  0
C  C69  1  0.28958651  0.56066896  0.01304332  1  0  -0.291896  0  3.723848  0  0  -0.33709  0  3.99684  0  0  -0.341665  0  4.010409  0  0  -0.104445  -0.333285  0  3.986662  0
C  C70  1  0.56071889  0.28967384  0.51291774  1  0  -0.291259  0  3.723031  0  0  -0.336629  0  3.99575  0  0  -0.3417  0  4.010294  0  0  -0.104597  -0.333239  0  3.986453  0
C  C71  1  0.71041490  0.43933626  0.98695861  1  0  -0.291906  0  3.724046  0  0  -0.337125  0  3.997085  0  0  -0.341682  0  4.010669  0  0  -0.104475  -0.333324  0  3.98691  0
C  C72  1  0.56730003  0.72261843  0.52489057  1  0  0.336226  0  3.792234  0  0  0.324253  0  4.081109  0  0  0.335674  0  4.090689  0  0  0.101759  0.317039  0  4.073425  0
C  C73  1  0.27729190  0.43282649  0.97518510  1  0  0.336252  0  3.792238  0  0  0.324072  0  4.081295  0  0  0.335617  0  4.090789  0  0  0.102208  0.316873  0  4.07364  0
C  C74  1  0.43270127  0.27737658  0.47510999  1  0  0.336324  0  3.792009  0  0  0.325253  0  4.079371  0  0  0.335786  0  4.090451  0  0  0.101801  0.31716  0  4.073174  0
C  C75  1  0.72270792  0.56717489  0.02481510  1  0  0.336354  0  3.792282  0  0  0.324178  0  4.081341  0  0  0.335717  0  4.090837  0  0  0.102232  0.316978  0  4.07369  0
C  C76  1  0.53842327  0.82723853  0.57892934  1  0  -0.206687  0  3.725994  0  0  -0.249521  0  3.986808  0  0  -0.252777  0  4.005705  0  0  -0.096936  -0.246804  0  3.9733  0
C  C77  1  0.17280720  0.46171792  0.92108285  1  0  -0.205963  0  3.725892  0  0  -0.248926  0  3.987143  0  0  -0.252128  0  4.005991  0  0  -0.096852  -0.246208  0  3.973649  0
C  C78  1  0.46157536  0.17276288  0.42106668  1  0  -0.206783  0  3.72583  0  0  -0.249202  0  3.985666  0  0  -0.252895  0  4.005574  0  0  -0.096979  -0.246911  0  3.973157  0
C  C79  1  0.82719020  0.53828854  0.07891875  1  0  -0.206143  0  3.725939  0  0  -0.249105  0  3.987123  0  0  -0.252313  0  4.005981  0  0  -0.096927  -0.246386  0  3.973635  0
C  C80  1  0.87072862  0.43353114  0.67060951  1  0  -0.71479  0  3.50602  0  0  -0.754489  0  3.733552  0  0  -0.768098  0  3.739087  0  0  -0.336035  -0.744889  0  3.729488  0
C  C81  1  0.56656086  0.12877881  0.82941380  1  0  -0.714219  0  3.507111  0  0  -0.753753  0  3.734431  0  0  -0.767291  0  3.739899  0  0  -0.335942  -0.744163  0  3.730239  0
C  C82  1  0.12927091  0.56647152  0.32939061  1  0  -0.714769  0  3.506004  0  0  -0.754351  0  3.733114  0  0  -0.768077  0  3.739086  0  0  -0.336082  -0.744881  0  3.729463  0
C  C83  1  0.43342954  0.87121482  0.17058925  1  0  -0.714175  0  3.507216  0  0  -0.753673  0  3.734555  0  0  -0.767209  0  3.740036  0  0  -0.335931  -0.744086  0  3.730359  0
C  C84  1  0.08330787  0.14875676  0.81833671  1  0  -0.725413  0  3.526946  0  0  -0.764263  0  3.759329  0  0  -0.778003  0  3.765156  0  0  -0.337513  -0.754691  0  3.755453  0
C  C85  1  0.85156814  0.91652236  0.68158247  1  0  -0.724699  0  3.526741  0  0  -0.763525  0  3.759231  0  0  -0.777275  0  3.765055  0  0  -0.337306  -0.75397  0  3.755324  0
C  C86  1  0.91669657  0.85124082  0.18166396  1  0  -0.725406  0  3.526943  0  0  -0.764272  0  3.759279  0  0  -0.778012  0  3.765126  0  0  -0.33753  -0.754697  0  3.755419  0
C  C87  1  0.14842796  0.08347899  0.31841854  1  0  -0.724815  0  3.526717  0  0  -0.763646  0  3.759192  0  0  -0.777387  0  3.76503  0  0  -0.337353  -0.754095  0  3.755282  0
C  C88  1  0.29204272  0.47975381  0.69948058  1  0  -0.719251  0  3.519838  0  0  -0.757813  0  3.745462  0  0  -0.771447  0  3.75203  0  0  -0.3371  -0.748343  0  3.741059  0
C  C89  1  0.51992688  0.70816125  0.80045349  1  0  -0.719583  0  3.520487  0  0  -0.75835  0  3.746158  0  0  -0.771899  0  3.752764  0  0  -0.337305  -0.748895  0  3.741638  0
C  C90  1  0.70795740  0.52024629  0.30052022  1  0  -0.719241  0  3.519877  0  0  -0.757857  0  3.745541  0  0  -0.771453  0  3.75205  0  0  -0.337102  -0.748359  0  3.741061  0
C  C91  1  0.48007288  0.29183502  0.19954708  1  0  -0.719679  0  3.520431  0  0  -0.758439  0  3.746134  0  0  -0.771987  0  3.752734  0  0  -0.337312  -0.748983  0  3.741615  0
O  O92  1  0.19181137  0.15623719  0.64909760  1  0  -0.607284  0  2.060592  0  0  -0.537483  0  2.30307  0  0  -0.563318  0  2.29498  0  0  -0.275953  -0.519698  0  2.308134  0
O  O93  1  0.84411437  0.80813189  0.85072707  1  0  -0.607725  0  2.060276  0  0  -0.538296  0  2.303128  0  0  -0.563853  0  2.294568  0  0  -0.276362  -0.520329  0  2.307987  0
O  O94  1  0.80819183  0.84376040  0.35090156  1  0  -0.60735  0  2.060485  0  0  -0.537804  0  2.303377  0  0  -0.563392  0  2.294893  0  0  -0.275991  -0.519789  0  2.3081  0
O  O95  1  0.15588545  0.19186949  0.14927366  1  0  -0.607676  0  2.060263  0  0  -0.538231  0  2.303122  0  0  -0.563787  0  2.294561  0  0  -0.27634  -0.520268  0  2.307981  0
O  O96  1  0.44634486  0.05055953  0.68971377  1  0  -0.645532  0  2.038476  0  0  -0.580152  0  2.277305  0  0  -0.605804  0  2.270817  0  0  -0.286818  -0.562358  0  2.281151  0
O  O97  1  0.94942220  0.55346409  0.81035954  1  0  -0.646393  0  2.037622  0  0  -0.581204  0  2.276709  0  0  -0.606827  0  2.270162  0  0  -0.287283  -0.563406  0  2.280599  0
O  O98  1  0.55365154  0.94944056  0.31028571  1  0  -0.645548  0  2.038624  0  0  -0.580164  0  2.277459  0  0  -0.605819  0  2.270972  0  0  -0.286831  -0.562365  0  2.281294  0
O  O99  1  0.05058266  0.44654244  0.18964098  1  0  -0.646386  0  2.037616  0  0  -0.581163  0  2.276706  0  0  -0.606791  0  2.270162  0  0  -0.287234  -0.563361  0  2.280588  0
F  F100  1  0.14726785  0.79482151  0.47168791  1  0  -0.210297  0  1.201396  0  0  -0.144706  0  1.346634  0  0  -0.154137  0  1.33624  0  0  -0.0865  -0.137926  0  1.353852  0
F  F101  1  0.20529334  0.85237902  0.02841105  1  0  -0.209246  0  1.201493  0  0  -0.144801  0  1.347136  0  0  -0.154118  0  1.336497  0  0  -0.086571  -0.137892  0  1.354119  0
F  F102  1  0.85273833  0.20516841  0.52831532  1  0  -0.210326  0  1.201426  0  0  -0.144848  0  1.346802  0  0  -0.15419  0  1.336252  0  0  -0.086513  -0.137978  0  1.353869  0
F  F103  1  0.79471525  0.14762754  0.97158866  1  0  -0.209185  0  1.201455  0  0  -0.144756  0  1.347111  0  0  -0.154073  0  1.336472  0  0  -0.086556  -0.137846  0  1.354096  0
F  F104  1  0.72768241  0.62800628  0.50753184  1  0  -0.20497  0  1.187664  0  0  -0.14424  0  1.332075  0  0  -0.157947  0  1.328284  0  0  -0.091014  -0.137599  0  1.338139  0
F  F105  1  0.37175351  0.27259121  0.99258187  1  0  -0.204637  0  1.187786  0  0  -0.144176  0  1.332359  0  0  -0.15821  0  1.328805  0  0  -0.091427  -0.137524  0  1.338397  0
F  F106  1  0.27231837  0.37199639  0.49246766  1  0  -0.204978  0  1.187617  0  0  -0.147739  0  1.336142  0  0  -0.157962  0  1.328236  0  0  -0.091031  -0.137623  0  1.338095  0
F  F107  1  0.62824693  0.72740765  0.00741580  1  0  -0.204671  0  1.187771  0  0  -0.144223  0  1.332353  0  0  -0.158235  0  1.328782  0  0  -0.091432  -0.13757  0  1.338392  0
