# generated using pymatgen
data_ZnH4C6N3O2
_symmetry_space_group_name_H-M   'P 1'
_cell_length_a   13.27449818
_cell_length_b   13.27456545
_cell_length_c   27.66237731
_cell_angle_alpha   89.99991957
_cell_angle_beta   89.99965468
_cell_angle_gamma   90.00110592
_symmetry_Int_Tables_number   1
_chemical_formula_structural   ZnH4C6N3O2
_chemical_formula_sum   'Zn16 H64 C96 N48 O32'
_cell_volume   4874.47588293
_cell_formula_units_Z   16
loop_
 _symmetry_equiv_pos_site_id
 _symmetry_equiv_pos_as_xyz
  1  'x, y, z'
loop_
 _atom_site_type_symbol
 _atom_site_label
 _atom_site_symmetry_multiplicity
 _atom_site_fract_x
 _atom_site_fract_y
 _atom_site_fract_z
 _atom_site_occupancy
 _atom_site_pbe_bader_charge
 _atom_site_pbe_bader_spin_density
 _atom_site_pbe_cm5_charge
 _atom_site_pbe_ddec_charge
 _atom_site_pbe_ddec_spin_density
 _atom_site_pbe_ddec_sum_bond_order
 _atom_site_pbe_magmom
Zn  Zn0  1  0.08122541  0.97631456  0.94492847  1  1.238177  0  0.706971  0.678023  0  2.508129  0
Zn  Zn1  1  0.52368849  0.08121985  0.94492848  1  1.238074  0  0.706953  0.678003  0  2.507961  0
Zn  Zn2  1  0.41877806  0.52368229  0.94492524  1  1.238072  0  0.706978  0.67792  0  2.508119  0
Zn  Zn3  1  0.97631752  0.41877425  0.94493133  1  1.238287  0  0.706968  0.678117  0  2.508001  0
Zn  Zn4  1  0.58122400  0.02368992  0.55507111  1  1.238222  0  0.70694  0.677932  0  2.508206  0
Zn  Zn5  1  0.47631543  0.58122806  0.55506927  1  1.238406  0  0.706969  0.678085  0  2.508001  0
Zn  Zn6  1  0.91877559  0.47631289  0.55507336  1  1.237994  0  0.707009  0.677981  0  2.508139  0
Zn  Zn7  1  0.02368614  0.91877373  0.55507199  1  1.238281  0  0.706972  0.678032  0  2.508165  0
Zn  Zn8  1  0.91878113  0.02368037  0.05507274  1  1.238213  0  0.70699  0.678017  0  2.508072  0
Zn  Zn9  1  0.47631956  0.91877734  0.05507164  1  1.238192  0  0.707028  0.678082  0  2.508012  0
Zn  Zn10  1  0.58122170  0.47631867  0.05507055  1  1.238171  0  0.706959  0.67802  0  2.508142  0
Zn  Zn11  1  0.02368526  0.58122143  0.05507133  1  1.23836  0  0.706956  0.67795  0  2.508157  0
Zn  Zn12  1  0.41877953  0.97631857  0.44492829  1  1.238283  0  0.706962  0.677936  0  2.508205  0
Zn  Zn13  1  0.52367830  0.41878118  0.44492832  1  1.238202  0  0.706986  0.677991  0  2.508093  0
Zn  Zn14  1  0.08122116  0.52368505  0.44492857  1  1.238236  0  0.706942  0.677949  0  2.508107  0
Zn  Zn15  1  0.97631815  0.08122271  0.44492886  1  1.238256  0  0.706987  0.678092  0  2.508136  0
H  H16  1  0.17673398  0.07470505  0.77868731  1  0.091984  0  0.106546  0.111688  0  0.997541  0
H  H17  1  0.42529728  0.17672284  0.77868728  1  0.092188  0  0.106525  0.111702  0  0.997518  0
H  H18  1  0.32326494  0.42529798  0.77868554  1  0.091753  0  0.106529  0.111733  0  0.997435  0
H  H19  1  0.07469561  0.32329601  0.77868882  1  0.092424  0  0.10656  0.111849  0  0.997697  0
H  H20  1  0.67672303  0.92530504  0.72131199  1  0.092299  0  0.10653  0.11173  0  0.997551  0
H  H21  1  0.57469493  0.67672266  0.72130897  1  0.092581  0  0.10654  0.111755  0  0.997682  0
H  H22  1  0.82325626  0.57470063  0.72131659  1  0.091833  0  0.106562  0.111749  0  0.997494  0
H  H23  1  0.92530093  0.82328753  0.72131853  1  0.092237  0  0.106553  0.111774  0  0.99767  0
H  H24  1  0.82327181  0.92530570  0.22131751  1  0.09176  0  0.10653  0.111738  0  0.99759  0
H  H25  1  0.57470324  0.82326531  0.22131502  1  0.091709  0  0.106565  0.111723  0  0.997572  0
H  H26  1  0.67671072  0.57470298  0.22131350  1  0.092284  0  0.106535  0.111783  0  0.997676  0
H  H27  1  0.92529737  0.67671474  0.22131347  1  0.092241  0  0.106557  0.111822  0  0.99761  0
H  H28  1  0.32329858  0.07470421  0.27868850  1  0.092929  0  0.10661  0.111816  0  0.997794  0
H  H29  1  0.42529655  0.32326022  0.27868321  1  0.09169  0  0.106588  0.111749  0  0.997519  0
H  H30  1  0.17672693  0.42529958  0.27868353  1  0.091803  0  0.106542  0.111722  0  0.997445  0
H  H31  1  0.07469958  0.17673000  0.27868810  1  0.092369  0  0.106566  0.111758  0  0.997578  0
H  H32  1  0.95502378  0.84853672  0.81041494  1  0.099844  0  0.104238  0.110294  0  0.998055  0
H  H33  1  0.65147133  0.95502541  0.81041210  1  0.099783  0  0.104314  0.11034  0  0.997957  0
H  H34  1  0.54497624  0.65147320  0.81040801  1  0.099843  0  0.10434  0.110424  0  0.998006  0
H  H35  1  0.84850609  0.54498225  0.81041737  1  0.100065  0  0.104223  0.110142  0  0.998016  0
H  H36  1  0.45502150  0.15147799  0.68958572  1  0.100184  0  0.104254  0.110214  0  0.997976  0
H  H37  1  0.34850666  0.45502287  0.68958324  1  0.100162  0  0.104235  0.110226  0  0.99797  0
H  H38  1  0.04497250  0.34854188  0.68959023  1  0.099956  0  0.104258  0.110377  0  0.998027  0
H  H39  1  0.15148659  0.04497892  0.68958475  1  0.100308  0  0.104241  0.110221  0  0.997944  0
H  H40  1  0.04497599  0.15147479  0.18958771  1  0.099734  0  0.104276  0.110296  0  0.998016  0
H  H41  1  0.34854500  0.04498158  0.18959056  1  0.099889  0  0.104283  0.110397  0  0.998007  0
H  H42  1  0.45501975  0.34850817  0.18958163  1  0.100108  0  0.104222  0.110148  0  0.998053  0
H  H43  1  0.15148388  0.45502474  0.18958384  1  0.100135  0  0.104247  0.110214  0  0.997993  0
H  H44  1  0.54498052  0.84851392  0.31041585  1  0.100226  0  0.104207  0.110187  0  0.998017  0
H  H45  1  0.65145544  0.54497658  0.31041254  1  0.099832  0  0.10428  0.110333  0  0.998093  0
H  H46  1  0.95501596  0.65145983  0.31041388  1  0.099833  0  0.104241  0.110304  0  0.998003  0
H  H47  1  0.84851694  0.95502656  0.31041718  1  0.100131  0  0.104269  0.11021  0  0.998048  0
H  H48  1  0.29577033  0.06121405  0.90441278  1  0.230966  0  0.148504  0.137208  0  0.988784  0
H  H49  1  0.43879043  0.29576322  0.90440960  1  0.230692  0  0.148489  0.13721  0  0.98881  0
H  H50  1  0.20423530  0.43878560  0.90441207  1  0.23087  0  0.148531  0.137266  0  0.98869  0
H  H51  1  0.06121821  0.20422889  0.90441127  1  0.23087  0  0.148512  0.137155  0  0.988707  0
H  H52  1  0.79576498  0.93878705  0.59559124  1  0.230773  0  0.14853  0.137265  0  0.988745  0
H  H53  1  0.56121839  0.79577219  0.59558693  1  0.230894  0  0.148514  0.137187  0  0.988693  0
H  H54  1  0.70423245  0.56121523  0.59558896  1  0.230828  0  0.148541  0.137244  0  0.988787  0
H  H55  1  0.93877829  0.70422858  0.59559075  1  0.230799  0  0.1485  0.13718  0  0.988832  0
H  H56  1  0.70423094  0.93878691  0.09558590  1  0.230892  0  0.148539  0.137256  0  0.988728  0
H  H57  1  0.56121009  0.70423322  0.09558763  1  0.2308  0  0.148531  0.137246  0  0.988714  0
H  H58  1  0.79576899  0.56121084  0.09559059  1  0.230671  0  0.148549  0.137262  0  0.988773  0
H  H59  1  0.93878833  0.79576905  0.09559139  1  0.230706  0  0.148518  0.137195  0  0.988835  0
H  H60  1  0.20423328  0.06121165  0.40441033  1  0.230711  0  0.148531  0.137276  0  0.988702  0
H  H61  1  0.43878138  0.20423630  0.40441212  1  0.230821  0  0.148538  0.137196  0  0.98876  0
H  H62  1  0.29576505  0.43878573  0.40441116  1  0.230827  0  0.148513  0.137224  0  0.988774  0
H  H63  1  0.06121243  0.29577012  0.40441119  1  0.230874  0  0.148514  0.137212  0  0.988741  0
H  H64  1  0.23453570  0.91043427  0.03511095  1  0.150523  0  0.145182  0.112928  0  0.966344  0
H  H65  1  0.58955955  0.23453761  0.03511210  1  0.15059  0  0.14517  0.112905  0  0.966265  0
H  H66  1  0.26546711  0.58955778  0.03511354  1  0.15093  0  0.14515  0.1128  0  0.966279  0
H  H67  1  0.91045032  0.26546450  0.03511235  1  0.151063  0  0.145157  0.112886  0  0.966336  0
H  H68  1  0.73453872  0.08955659  0.46488990  1  0.150787  0  0.145128  0.112837  0  0.966455  0
H  H69  1  0.41045209  0.73454106  0.46488401  1  0.150752  0  0.145214  0.112918  0  0.966276  0
H  H70  1  0.76546502  0.41044875  0.46488360  1  0.150685  0  0.145196  0.11286  0  0.96622  0
H  H71  1  0.08954911  0.76545950  0.46488736  1  0.150823  0  0.145167  0.112844  0  0.96637  0
H  H72  1  0.76547537  0.08955765  0.96488628  1  0.150588  0  0.145192  0.112818  0  0.966161  0
H  H73  1  0.41044248  0.76546410  0.96488513  1  0.150691  0  0.145218  0.112879  0  0.966208  0
H  H74  1  0.73453417  0.41044318  0.96488731  1  0.151001  0  0.145168  0.112887  0  0.966224  0
H  H75  1  0.08956225  0.73453570  0.96488778  1  0.150669  0  0.145154  0.112833  0  0.966296  0
H  H76  1  0.26547084  0.91045341  0.53511421  1  0.15067  0  0.145179  0.11283  0  0.96628  0
H  H77  1  0.58954843  0.26546744  0.53511395  1  0.15066  0  0.145192  0.112833  0  0.966341  0
H  H78  1  0.23453475  0.58956275  0.53510785  1  0.150644  0  0.145137  0.112859  0  0.966422  0
H  H79  1  0.91045292  0.23453393  0.53511638  1  0.150687  0  0.145177  0.112813  0  0.966265  0
C  C80  1  0.08325474  0.98131225  0.85215625  1  1.508785  0  0.195581  0.561713  0  4.197957  0
C  C81  1  0.51868476  0.08324110  0.85215194  1  1.508502  0  0.195411  0.561455  0  4.197993  0
C  C82  1  0.41675065  0.51868865  0.85215122  1  1.508489  0  0.195542  0.561627  0  4.197707  0
C  C83  1  0.98130434  0.41675630  0.85215622  1  1.508409  0  0.195672  0.561895  0  4.197759  0
C  C84  1  0.58324605  0.01869679  0.64784513  1  1.508327  0  0.195595  0.561838  0  4.197499  0
C  C85  1  0.48130263  0.58325139  0.64784256  1  1.508784  0  0.195652  0.561853  0  4.197793  0
C  C86  1  0.91674108  0.48131553  0.64784811  1  1.508698  0  0.195452  0.561442  0  4.198117  0
C  C87  1  0.01869326  0.91675464  0.64784927  1  1.508381  0  0.195587  0.561848  0  4.197516  0
C  C88  1  0.91674954  0.01868871  0.14784893  1  1.508373  0  0.19562  0.561767  0  4.197621  0
C  C89  1  0.48131727  0.91674253  0.14784530  1  1.508844  0  0.195521  0.561529  0  4.198091  0
C  C90  1  0.58324761  0.48131005  0.14784674  1  1.508563  0  0.195633  0.561868  0  4.197504  0
C  C91  1  0.01869543  0.58325596  0.14784644  1  1.508549  0  0.195632  0.561807  0  4.197533  0
C  C92  1  0.41676276  0.98130869  0.35215572  1  1.508441  0  0.195632  0.561779  0  4.197454  0
C  C93  1  0.51867529  0.41674053  0.35215323  1  1.508412  0  0.195449  0.561442  0  4.198374  0
C  C94  1  0.08324738  0.51868091  0.35215202  1  1.508543  0  0.195517  0.561602  0  4.197902  0
C  C95  1  0.98130651  0.08325234  0.35215447  1  1.508705  0  0.19567  0.561946  0  4.197433  0
C  C96  1  0.06714054  0.96346149  0.79949306  1  -0.038788  0  -0.014886  -0.023627  0  3.974326  0
C  C97  1  0.53653872  0.06712331  0.79949195  1  -0.038735  0  -0.014828  -0.023476  0  3.974514  0
C  C98  1  0.43286400  0.53654408  0.79948941  1  -0.038528  0  -0.01476  -0.023438  0  3.974265  0
C  C99  1  0.96344652  0.43288705  0.79949627  1  -0.03881  0  -0.014863  -0.023604  0  3.974478  0
C  C100  1  0.56712400  0.03654724  0.70050584  1  -0.038682  0  -0.014917  -0.023677  0  3.974407  0
C  C101  1  0.46344686  0.56712330  0.70050437  1  -0.038651  0  -0.014865  -0.023595  0  3.974505  0
C  C102  1  0.93286323  0.46346719  0.70050951  1  -0.038524  0  -0.014791  -0.023474  0  3.974405  0
C  C103  1  0.03654461  0.93288784  0.70050993  1  -0.038658  0  -0.014781  -0.02364  0  3.974504  0
C  C104  1  0.93286525  0.03654775  0.20050996  1  -0.038604  0  -0.014825  -0.02352  0  3.974366  0
C  C105  1  0.46346256  0.93286559  0.20050818  1  -0.038601  0  -0.014823  -0.023459  0  3.974113  0
C  C106  1  0.56711995  0.46344934  0.20050601  1  -0.038614  0  -0.014842  -0.023667  0  3.974381  0
C  C107  1  0.03655023  0.56712295  0.20050494  1  -0.038669  0  -0.014895  -0.02358  0  3.974475  0
C  C108  1  0.43289008  0.96344996  0.29949465  1  -0.038648  0  -0.014867  -0.023534  0  3.974123  0
C  C109  1  0.53653332  0.43286033  0.29949142  1  -0.038768  0  -0.014836  -0.023663  0  3.974622  0
C  C110  1  0.06712524  0.53653678  0.29949315  1  -0.038673  0  -0.014875  -0.023714  0  3.974539  0
C  C111  1  0.96345817  0.06712592  0.29949381  1  -0.03865  0  -0.014875  -0.023768  0  3.974712  0
C  C112  1  0.12244974  0.01939426  0.76561370  1  0.00166  0  -0.081129  -0.094814  0  3.973322  0
C  C113  1  0.48059912  0.12243687  0.76561314  1  0.000996  0  -0.081146  -0.09494  0  3.972977  0
C  C114  1  0.37754858  0.48060730  0.76560956  1  0.0013  0  -0.081234  -0.095092  0  3.973253  0
C  C115  1  0.01939469  0.37757147  0.76561770  1  0.001303  0  -0.081216  -0.095229  0  3.973313  0
C  C116  1  0.62243668  0.98060424  0.73438323  1  0.001172  0  -0.081127  -0.094969  0  3.973112  0
C  C117  1  0.51939280  0.62244462  0.73438061  1  0.00129  0  -0.081162  -0.094986  0  3.973177  0
C  C118  1  0.87754772  0.51940064  0.73439097  1  0.001544  0  -0.081266  -0.095113  0  3.973203  0
C  C119  1  0.98060064  0.87756326  0.73438853  1  0.001183  0  -0.081235  -0.095065  0  3.972915  0
C  C120  1  0.87755605  0.98061122  0.23439005  1  0.001407  0  -0.081182  -0.095103  0  3.973344  0
C  C121  1  0.51939462  0.87754751  0.23438735  1  0.001155  0  -0.081201  -0.094972  0  3.973296  0
C  C122  1  0.62243084  0.51940043  0.23438478  1  0.001274  0  -0.081196  -0.095105  0  3.972999  0
C  C123  1  0.98059905  0.62243551  0.23438314  1  0.001177  0  -0.081198  -0.095188  0  3.972987  0
C  C124  1  0.37757513  0.01940350  0.26561906  1  0.000813  0  -0.081266  -0.095138  0  3.973157  0
C  C125  1  0.48060245  0.37754729  0.26560867  1  0.001703  0  -0.081261  -0.094978  0  3.973246  0
C  C126  1  0.12244150  0.48060710  0.26561205  1  0.001429  0  -0.081126  -0.094844  0  3.973116  0
C  C127  1  0.01940214  0.12244221  0.26561557  1  0.001356  0  -0.081186  -0.094942  0  3.973004  0
C  C128  1  0.99669750  0.89191108  0.78361385  1  -0.057024  0  -0.083337  -0.095137  0  3.97231  0
C  C129  1  0.60808646  0.99669720  0.78360606  1  -0.057946  0  -0.08346  -0.095237  0  3.972743  0
C  C130  1  0.50329984  0.60809364  0.78360453  1  -0.058179  0  -0.083525  -0.095401  0  3.972723  0
C  C131  1  0.89188527  0.50329773  0.78361015  1  -0.057979  0  -0.083412  -0.094962  0  3.972863  0
C  C132  1  0.49669632  0.10809614  0.71639176  1  -0.05757  0  -0.083474  -0.095148  0  3.972573  0
C  C133  1  0.39189159  0.49670070  0.71639106  1  -0.05774  0  -0.083461  -0.095111  0  3.972952  0
C  C134  1  0.00329735  0.39192214  0.71639419  1  -0.057993  0  -0.083395  -0.095228  0  3.972736  0
C  C135  1  0.10810133  0.00330629  0.71639705  1  -0.058883  0  -0.083525  -0.095213  0  3.973154  0
C  C136  1  0.00330302  0.10809515  0.21639242  1  -0.057314  0  -0.083481  -0.09528  0  3.972575  0
C  C137  1  0.39192008  0.00330677  0.21639298  1  -0.057936  0  -0.083446  -0.095357  0  3.972471  0
C  C138  1  0.49669917  0.39188999  0.21639017  1  -0.058031  0  -0.083435  -0.095008  0  3.972949  0
C  C139  1  0.10809943  0.49670248  0.21639178  1  -0.057522  0  -0.083509  -0.095226  0  3.973012  0
C  C140  1  0.50330872  0.89189653  0.28360620  1  -0.057673  0  -0.08345  -0.095179  0  3.972975  0
C  C141  1  0.60807805  0.50330177  0.28361015  1  -0.057711  0  -0.08341  -0.095166  0  3.972668  0
C  C142  1  0.99668960  0.60808258  0.28360775  1  -0.057973  0  -0.083353  -0.095082  0  3.972393  0
C  C143  1  0.89190145  0.99670220  0.28361066  1  -0.058304  0  -0.083422  -0.094935  0  3.972828  0
C  C144  1  0.30422809  0.02524002  0.93943399  1  0.948183  0  0.160858  0.167692  0  3.895038  0
C  C145  1  0.47476152  0.30421953  0.93943112  1  0.978398  0  0.16084  0.167631  0  3.894903  0
C  C146  1  0.19577786  0.47475651  0.93943364  1  0.97846  0  0.160849  0.167588  0  3.894759  0
C  C147  1  0.02524970  0.19577323  0.93943362  1  0.978474  0  0.160879  0.167773  0  3.894784  0
C  C148  1  0.80422538  0.97475822  0.56056928  1  0.97863  0  0.160819  0.167584  0  3.894937  0
C  C149  1  0.52524370  0.80423168  0.56056576  1  0.948642  0  0.16093  0.167738  0  3.894709  0
C  C150  1  0.69577777  0.52524642  0.56056814  1  0.978181  0  0.160786  0.167642  0  3.894528  0
C  C151  1  0.97475267  0.69577145  0.56057057  1  0.978428  0  0.16096  0.167799  0  3.894589  0
C  C152  1  0.69577695  0.97475492  0.06056649  1  0.978322  0  0.160841  0.167599  0  3.894696  0
C  C153  1  0.52524276  0.69577615  0.06056611  1  0.948344  0  0.160866  0.167661  0  3.894687  0
C  C154  1  0.80422492  0.52524294  0.06056865  1  0.978547  0  0.160861  0.167719  0  3.894755  0
C  C155  1  0.97475459  0.80422171  0.06056831  1  0.97838  0  0.160861  0.167733  0  3.894967  0
C  C156  1  0.19577815  0.02523821  0.43943229  1  0.97847  0  0.160849  0.167578  0  3.894772  0
C  C157  1  0.47475758  0.19577681  0.43943183  1  0.978654  0  0.16085  0.167664  0  3.894869  0
C  C158  1  0.30422124  0.47475906  0.43943163  1  0.978406  0  0.160764  0.167547  0  3.894834  0
C  C159  1  0.02524483  0.30422649  0.43943317  1  0.949021  0  0.160861  0.167707  0  3.894818  0
C  C160  1  0.27312302  0.94840128  0.00568861  1  0.982097  0  0.14876  0.140024  0  3.973561  0
C  C161  1  0.55160010  0.27311934  0.00568517  1  0.981669  0  0.148844  0.140124  0  3.973643  0
C  C162  1  0.22688392  0.55159161  0.00568844  1  0.981303  0  0.148786  0.140119  0  3.973532  0
C  C163  1  0.94840938  0.22687683  0.00568678  1  0.981353  0  0.148837  0.140088  0  3.973797  0
C  C164  1  0.77312268  0.05159409  0.49431357  1  0.98162  0  0.148845  0.140126  0  3.973825  0
C  C165  1  0.44841680  0.77312343  0.49430874  1  0.980903  0  0.148743  0.139869  0  3.973419  0
C  C166  1  0.72688144  0.44841342  0.49430989  1  0.981543  0  0.148755  0.140083  0  3.973369  0
C  C167  1  0.05158553  0.72688080  0.49431223  1  0.981045  0  0.148852  0.14027  0  3.973399  0
C  C168  1  0.72689031  0.05158235  0.99431043  1  0.981688  0  0.14876  0.140152  0  3.973428  0
C  C169  1  0.44841624  0.72688162  0.99430845  1  0.981576  0  0.148762  0.140039  0  3.973359  0
C  C170  1  0.77311810  0.44841236  0.99431096  1  0.980742  0  0.148806  0.1401  0  3.973432  0
C  C171  1  0.05159114  0.77311659  0.99431190  1  0.981583  0  0.148797  0.140114  0  3.973495  0
C  C172  1  0.22688312  0.94840988  0.50568945  1  0.981521  0  0.148739  0.140066  0  3.973445  0
C  C173  1  0.55159276  0.22688732  0.50568777  1  0.981422  0  0.148767  0.14012  0  3.973411  0
C  C174  1  0.27312058  0.55159583  0.50568662  1  0.981655  0  0.148808  0.140079  0  3.973838  0
C  C175  1  0.94841348  0.27311715  0.50569043  1  0.981521  0  0.148807  0.140184  0  3.973199  0
N  N176  1  0.22831791  0.98244723  0.96489689  1  -1.2527  0  -0.355221  -0.317071  0  3.569496  0
N  N177  1  0.51755170  0.22831234  0.96489491  1  -1.253238  0  -0.355223  -0.317076  0  3.569576  0
N  N178  1  0.27168832  0.51754504  0.96489734  1  -1.253167  0  -0.355201  -0.316895  0  3.569464  0
N  N179  1  0.98246009  0.27168322  0.96489748  1  -1.253239  0  -0.355282  -0.317103  0  3.56955  0
N  N180  1  0.72831739  0.01755030  0.53510624  1  -1.25335  0  -0.355216  -0.316986  0  3.569556  0
N  N181  1  0.48246561  0.72831922  0.53510058  1  -1.252958  0  -0.355325  -0.31704  0  3.569381  0
N  N182  1  0.77168547  0.48245257  0.53510168  1  -1.252874  0  -0.355257  -0.317099  0  3.56936  0
N  N183  1  0.01753772  0.77168414  0.53510449  1  -1.253192  0  -0.355378  -0.317316  0  3.569267  0
N  N184  1  0.77169164  0.01754394  0.03510215  1  -1.253233  0  -0.355285  -0.31706  0  3.569351  0
N  N185  1  0.48245560  0.77168561  0.03510124  1  -1.252973  0  -0.355299  -0.317093  0  3.569406  0
N  N186  1  0.72831445  0.48245290  0.03510350  1  -1.253051  0  -0.355295  -0.31713  0  3.569355  0
N  N187  1  0.01754721  0.72831322  0.03510518  1  -1.253128  0  -0.355294  -0.317092  0  3.569519  0
N  N188  1  0.27168841  0.98245367  0.46489714  1  -1.25316  0  -0.355256  -0.316996  0  3.569439  0
N  N189  1  0.51754018  0.27168927  0.46489593  1  -1.253335  0  -0.355282  -0.317074  0  3.569424  0
N  N190  1  0.22831128  0.51754990  0.46489555  1  -1.253125  0  -0.355197  -0.317019  0  3.569451  0
N  N191  1  0.98245753  0.22831532  0.46489672  1  -1.25322  0  -0.355314  -0.317127  0  3.569443  0
N  N192  1  0.37142975  0.96811361  0.00575895  1  -0.803132  0  -0.251418  -0.190948  0  3.505973  0
N  N193  1  0.53187601  0.37142444  0.00575675  1  -0.802691  0  -0.251463  -0.19111  0  3.505905  0
N  N194  1  0.12857568  0.53187853  0.00575909  1  -0.802551  0  -0.251392  -0.190902  0  3.505884  0
N  N195  1  0.96813046  0.12857174  0.00576125  1  -0.803039  0  -0.251401  -0.190964  0  3.506046  0
N  N196  1  0.87142978  0.03187613  0.49424330  1  -0.803588  0  -0.251391  -0.190994  0  3.506064  0
N  N197  1  0.46812998  0.87143268  0.49424000  1  -0.80325  0  -0.251418  -0.190896  0  3.505854  0
N  N198  1  0.62857434  0.46812912  0.49423845  1  -0.802932  0  -0.251405  -0.190938  0  3.505923  0
N  N199  1  0.03187235  0.62857080  0.49424288  1  -0.803007  0  -0.251388  -0.190948  0  3.505768  0
N  N200  1  0.62858056  0.03187454  0.99423900  1  -0.802392  0  -0.251359  -0.190928  0  3.505828  0
N  N201  1  0.46812677  0.62857501  0.99423904  1  -0.80298  0  -0.251435  -0.190955  0  3.505992  0
N  N202  1  0.87142710  0.46812017  0.99424285  1  -0.802348  0  -0.251395  -0.190967  0  3.506028  0
N  N203  1  0.03187910  0.87142470  0.99424321  1  -0.803149  0  -0.251364  -0.190949  0  3.505972  0
N  N204  1  0.12857601  0.96812709  0.50576116  1  -0.802925  0  -0.251391  -0.190946  0  3.505854  0
N  N205  1  0.53187506  0.12857581  0.50575796  1  -0.802635  0  -0.251403  -0.190935  0  3.505742  0
N  N206  1  0.37142769  0.53188088  0.50575697  1  -0.802489  0  -0.251334  -0.190844  0  3.505972  0
N  N207  1  0.96812666  0.37142639  0.50575978  1  -0.802882  0  -0.251351  -0.190861  0  3.505804  0
N  N208  1  0.39127673  0.01728500  0.96313176  1  -0.768774  0  -0.253545  -0.188755  0  3.525063  0
N  N209  1  0.48271054  0.39126875  0.96312825  1  -0.79835  0  -0.253539  -0.188617  0  3.524968  0
N  N210  1  0.10872892  0.48271145  0.96313093  1  -0.798706  0  -0.253553  -0.188794  0  3.525068  0
N  N211  1  0.01729210  0.10872620  0.96313047  1  -0.798431  0  -0.253558  -0.188763  0  3.525159  0
N  N212  1  0.89127372  0.98270663  0.53687090  1  -0.797724  0  -0.253583  -0.18873  0  3.525026  0
N  N213  1  0.51729485  0.89127856  0.53686894  1  -0.767874  0  -0.253543  -0.188666  0  3.525079  0
N  N214  1  0.60872747  0.51729356  0.53686748  1  -0.798319  0  -0.253476  -0.188705  0  3.524865  0
N  N215  1  0.98270859  0.60872390  0.53687161  1  -0.79775  0  -0.253562  -0.1887  0  3.524954  0
N  N216  1  0.60873132  0.98271068  0.03686837  1  -0.798672  0  -0.253563  -0.188721  0  3.525059  0
N  N217  1  0.51729300  0.60872844  0.03686754  1  -0.768279  0  -0.253547  -0.188718  0  3.525054  0
N  N218  1  0.89127461  0.51728424  0.03687172  1  -0.798533  0  -0.253555  -0.188758  0  3.525087  0
N  N219  1  0.98270993  0.89127100  0.03687075  1  -0.797806  0  -0.253563  -0.188749  0  3.525146  0
N  N220  1  0.10872982  0.01728830  0.46313104  1  -0.798234  0  -0.253521  -0.188697  0  3.524995  0
N  N221  1  0.48271094  0.10873069  0.46312902  1  -0.798392  0  -0.253517  -0.188651  0  3.525047  0
N  N222  1  0.39127079  0.48271568  0.46312758  1  -0.798812  0  -0.253545  -0.188703  0  3.525121  0
N  N223  1  0.01729117  0.39127480  0.46313069  1  -0.768875  0  -0.253575  -0.188836  0  3.525146  0
O  O224  1  0.13319262  0.05597696  0.86689419  1  -1.176027  0  -0.32453  -0.553819  0  2.129424  0
O  O225  1  0.44402319  0.13318248  0.86689371  1  -1.176163  0  -0.32451  -0.553763  0  2.129277  0
O  O226  1  0.36680896  0.44402657  0.86689119  1  -1.176175  0  -0.324525  -0.55381  0  2.12934  0
O  O227  1  0.05597387  0.36682481  0.86689565  1  -1.176113  0  -0.324521  -0.553876  0  2.129246  0
O  O228  1  0.63318313  0.94403531  0.63310343  1  -1.1761  0  -0.324479  -0.553856  0  2.12933  0
O  O229  1  0.55597345  0.63318597  0.63310112  1  -1.176331  0  -0.324513  -0.553894  0  2.129388  0
O  O230  1  0.86680856  0.55597891  0.63310720  1  -1.176053  0  -0.324465  -0.553724  0  2.129505  0
O  O231  1  0.94402502  0.86681620  0.63310554  1  -1.176051  0  -0.32458  -0.55391  0  2.129105  0
O  O232  1  0.86681543  0.94402174  0.13310955  1  -1.176168  0  -0.324556  -0.553896  0  2.129303  0
O  O233  1  0.55598486  0.86681094  0.13310497  1  -1.176168  0  -0.324488  -0.553719  0  2.1295  0
O  O234  1  0.63318101  0.55598042  0.13310640  1  -1.176168  0  -0.324565  -0.553886  0  2.129138  0
O  O235  1  0.94402891  0.63318745  0.13310484  1  -1.176289  0  -0.324498  -0.553817  0  2.129169  0
O  O236  1  0.36682190  0.05597168  0.36689778  1  -1.176143  0  -0.32451  -0.553822  0  2.129236  0
O  O237  1  0.44400748  0.36680369  0.36688925  1  -1.175936  0  -0.324451  -0.553643  0  2.129705  0
O  O238  1  0.13318819  0.44402280  0.36689329  1  -1.176334  0  -0.324479  -0.553736  0  2.12934  0
O  O239  1  0.05597625  0.13318476  0.36689748  1  -1.176341  0  -0.324542  -0.553885  0  2.129192  0
O  O240  1  0.04313265  0.91703777  0.88223798  1  -1.15504  0  -0.352443  -0.555218  0  2.240879  0
O  O241  1  0.58295253  0.04310854  0.88223351  1  -1.154405  0  -0.352382  -0.555147  0  2.240624  0
O  O242  1  0.45688442  0.58295701  0.88223279  1  -1.15432  0  -0.352423  -0.555146  0  2.24056  0
O  O243  1  0.91703318  0.45687521  0.88224012  1  -1.154674  0  -0.352583  -0.555412  0  2.240727  0
O  O244  1  0.54311427  0.08296522  0.61776279  1  -1.154528  0  -0.352522  -0.555303  0  2.240498  0
O  O245  1  0.41703334  0.54312295  0.61775957  1  -1.154868  0  -0.352562  -0.555379  0  2.240745  0
O  O246  1  0.95686571  0.41704267  0.61776642  1  -1.154617  0  -0.352471  -0.555114  0  2.240718  0
O  O247  1  0.08296218  0.95687413  0.61776317  1  -1.154649  0  -0.352479  -0.555293  0  2.240663  0
O  O248  1  0.95688143  0.08295490  0.11776540  1  -1.154512  0  -0.352485  -0.555217  0  2.240542  0
O  O249  1  0.41704272  0.95686681  0.11776445  1  -1.154935  0  -0.352424  -0.555166  0  2.240851  0
O  O250  1  0.54312212  0.41704094  0.11776300  1  -1.154626  0  -0.352515  -0.555315  0  2.240652  0
O  O251  1  0.08295905  0.54311972  0.11776471  1  -1.154655  0  -0.352547  -0.555315  0  2.240682  0
O  O252  1  0.45688098  0.91703348  0.38223697  1  -1.154653  0  -0.352545  -0.555297  0  2.240617  0
O  O253  1  0.58295211  0.45686671  0.38223296  1  -1.154689  0  -0.352396  -0.555097  0  2.240725  0
O  O254  1  0.04311899  0.58295226  0.38223298  1  -1.154426  0  -0.352486  -0.555195  0  2.24052  0
O  O255  1  0.91703909  0.04312532  0.38224021  1  -1.154669  0  -0.352564  -0.555406  0  2.240604  0
