# generated using pymatgen
data_P2H8Pb3(C3O5)2
_symmetry_space_group_name_H-M   'P 1'
_cell_length_a   9.12139652
_cell_length_b   10.72662428
_cell_length_c   14.55840000
_cell_angle_alpha   90.00000000
_cell_angle_beta   90.00000000
_cell_angle_gamma   111.32931565
_symmetry_Int_Tables_number   1
_chemical_formula_structural   P2H8Pb3(C3O5)2
_chemical_formula_sum   'P8 H32 Pb12 C24 O40'
_cell_volume   1326.85466969
_cell_formula_units_Z   4
loop_
 _symmetry_equiv_pos_site_id
 _symmetry_equiv_pos_as_xyz
  1  'x, y, z'
loop_
 _atom_site_type_symbol
 _atom_site_label
 _atom_site_symmetry_multiplicity
 _atom_site_fract_x
 _atom_site_fract_y
 _atom_site_fract_z
 _atom_site_occupancy
 _atom_site_hle17_bader_spin_density
 _atom_site_hle17_ddec_charge
 _atom_site_hle17_ddec_spin_density
 _atom_site_hle17_ddec_sum_bond_order
 _atom_site_hle17_magmom
 _atom_site_hse06_10hf_bader_spin_density
 _atom_site_hse06_10hf_ddec_charge
 _atom_site_hse06_10hf_ddec_spin_density
 _atom_site_hse06_10hf_ddec_sum_bond_order
 _atom_site_hse06_10hf_magmom
 _atom_site_hse06_bader_spin_density
 _atom_site_hse06_ddec_charge
 _atom_site_hse06_ddec_spin_density
 _atom_site_hse06_ddec_sum_bond_order
 _atom_site_hse06_magmom
 _atom_site_pbe_bader_charge
 _atom_site_pbe_bader_spin_density
 _atom_site_pbe_cm5_charge
 _atom_site_pbe_ddec_charge
 _atom_site_pbe_ddec_spin_density
 _atom_site_pbe_ddec_sum_bond_order
 _atom_site_pbe_magmom
P  P0  1  0.41809290  0.56212494  0.66578608  1  0  1.465412  0  4.911588  0  0  1.308066  0  5.402914  0  0  1.358169  0  5.370025  0  3.348329  0  0.33659  1.273461  0  5.423717  0
P  P1  1  0.41809365  0.06212828  0.83421392  1  0  1.465458  0  4.91153  0  0  1.308087  0  5.402843  0  0  1.358189  0  5.369948  0  3.348457  0  0.336626  1.273479  0  5.42365  0
P  P2  1  0.58190769  0.43787238  0.33421599  1  0  1.465463  0  4.911411  0  0  1.308096  0  5.402722  0  0  1.358209  0  5.36984  0  3.348385  0  0.336606  1.27349  0  5.423531  0
P  P3  1  0.58189983  0.93787804  0.16578470  1  0  1.465569  0  4.911393  0  0  1.308219  0  5.402696  0  0  1.358332  0  5.369823  0  3.348208  0  0.33669  1.273611  0  5.423503  0
P  P4  1  0.75142619  0.09317941  0.64904591  1  0  1.501051  0  4.871457  0  0  1.341445  0  5.367414  0  0  1.393327  0  5.332193  0  3.31439  0  0.339487  1.305911  0  5.389786  0
P  P5  1  0.75142515  0.59318308  0.85095340  1  0  1.501245  0  4.8712  0  0  1.341679  0  5.367071  0  0  1.393555  0  5.331857  0  3.314231  0  0.33952  1.306145  0  5.389436  0
P  P6  1  0.24857350  0.90682091  0.35094997  1  0  1.501233  0  4.871176  0  0  1.341676  0  5.367012  0  0  1.393558  0  5.331786  0  3.314355  0  0.339612  1.306138  0  5.389392  0
P  P7  1  0.24857716  0.40681825  0.14904935  1  0  1.501171  0  4.871234  0  0  1.34161  0  5.367072  0  0  1.393492  0  5.331835  0  3.314022  0  0.339582  1.306073  0  5.389458  0
H  H8  1  0.28582918  0.59368148  0.53085367  1  0  0.093499  0  0.993513  0  0  0.105561  0  1.066354  0  0  0.106793  0  1.06744  0  0.036115  0  0.101129  0.104401  0  1.066179  0
H  H9  1  0.28582707  0.09368582  0.96914359  1  0  0.093473  0  0.993509  0  0  0.105555  0  1.066318  0  0  0.106785  0  1.067402  0  0.036097  0  0.101129  0.104392  0  1.066143  0
H  H10  1  0.71417751  0.40631984  0.46914633  1  0  0.093498  0  0.993484  0  0  0.10558  0  1.06629  0  0  0.106817  0  1.067376  0  0.036118  0  0.101139  0.104419  0  1.066116  0
H  H11  1  0.71417013  0.90632151  0.03085641  1  0  0.09354  0  0.993464  0  0  0.105594  0  1.066316  0  0  0.106832  0  1.067412  0  0.036184  0  0.101137  0.104434  0  1.066139  0
H  H12  1  0.27737930  0.42869295  0.54582509  1  0  0.126546  0  0.956024  0  0  0.140897  0  1.018693  0  0  0.143228  0  1.017751  0  0.08249  0  0.107493  0.13904  0  1.019714  0
H  H13  1  0.27737697  0.92869361  0.95417834  1  0  0.126564  0  0.955972  0  0  0.140877  0  1.018674  0  0  0.143201  0  1.017734  0  0.082545  0  0.107469  0.139019  0  1.019692  0
H  H14  1  0.72262672  0.57130937  0.45417766  1  0  0.126529  0  0.956029  0  0  0.14086  0  1.018712  0  0  0.143188  0  1.017777  0  0.082422  0  0.107478  0.139003  0  1.019731  0
H  H15  1  0.72262418  0.07131271  0.04582234  1  0  0.126569  0  0.956029  0  0  0.140913  0  1.018693  0  0  0.143248  0  1.017764  0  0.082604  0  0.107478  0.139054  0  1.019712  0
H  H16  1  0.08755397  0.44585984  0.69189471  1  0  0.114142  0  0.925701  0  0  0.129135  0  0.988832  0  0  0.131729  0  0.986894  0  0.067709  0  0.111069  0.127247  0  0.990467  0
H  H17  1  0.08754988  0.94586151  0.80810529  1  0  0.114128  0  0.925741  0  0  0.129094  0  0.988908  0  0  0.131692  0  0.986958  0  0.067709  0  0.111056  0.127206  0  0.990545  0
H  H18  1  0.91244882  0.55413748  0.30810391  1  0  0.114113  0  0.92572  0  0  0.129136  0  0.988808  0  0  0.131734  0  0.986863  0  0.067681  0  0.111076  0.127249  0  0.990443  0
H  H19  1  0.91244762  0.05413882  0.19189609  1  0  0.114149  0  0.925648  0  0  0.129133  0  0.98876  0  0  0.131725  0  0.986821  0  0.067698  0  0.111089  0.127248  0  0.990393  0
H  H20  1  0.01381090  0.38488450  0.58395978  1  0  0.103869  0  0.957011  0  0  0.121637  0  1.014742  0  0  0.123257  0  1.014836  0  0.071573  0  0.103764  0.120876  0  1.014135  0
H  H21  1  0.01380681  0.88488616  0.91604091  1  0  0.10386  0  0.957009  0  0  0.121635  0  1.01472  0  0  0.123237  0  1.014838  0  0.071584  0  0.103749  0.120876  0  1.014111  0
H  H22  1  0.98619384  0.61511483  0.41603816  1  0  0.103873  0  0.957009  0  0  0.121652  0  1.01473  0  0  0.123254  0  1.014851  0  0.071649  0  0.103754  0.120891  0  1.014123  0
H  H23  1  0.98619373  0.11511617  0.08395978  1  0  0.103878  0  0.956991  0  0  0.121652  0  1.01469  0  0  0.123251  0  1.014808  0  0.071599  0  0.10377  0.120891  0  1.014085  0
H  H24  1  0.91522113  0.03350311  0.54667065  1  0  0.094144  0  1.002028  0  0  0.109431  0  1.068391  0  0  0.110303  0  1.070314  0  0.042767  0  0.098793  0.108605  0  1.067424  0
H  H25  1  0.91521575  0.53350177  0.95333004  1  0  0.094188  0  1.00192  0  0  0.109474  0  1.068286  0  0  0.110347  0  1.070204  0  0.042748  0  0.098821  0.108648  0  1.067317  0
H  H26  1  0.08477484  0.96649621  0.45332729  1  0  0.09409  0  1.002038  0  0  0.109383  0  1.068412  0  0  0.110254  0  1.070335  0  0.042704  0  0.098775  0.108559  0  1.067441  0
H  H27  1  0.08478136  0.46649254  0.04667340  1  0  0.094078  0  1.002094  0  0  0.10937  0  1.068461  0  0  0.110238  0  1.070379  0  0.042905  0  0.098766  0.108548  0  1.06749  0
H  H28  1  0.95558055  0.20566045  0.54084927  1  0  0.113793  0  1.001422  0  0  0.125998  0  1.066724  0  0  0.128487  0  1.066277  0  0.064905  0  0.099601  0.124261  0  1.067077  0
H  H29  1  0.95557627  0.70565910  0.95915142  1  0  0.113806  0  1.001451  0  0  0.126007  0  1.066748  0  0  0.128497  0  1.066303  0  0.064922  0  0.099596  0.124266  0  1.06711  0
H  H30  1  0.04442175  0.79434088  0.45915073  1  0  0.113804  0  1.001445  0  0  0.126022  0  1.066719  0  0  0.128512  0  1.066273  0  0.064944  0  0.099611  0.124286  0  1.067071  0
H  H31  1  0.04442651  0.29433821  0.04085133  1  0  0.113861  0  1.001327  0  0  0.126013  0  1.066689  0  0  0.128499  0  1.066237  0  0.064717  0  0.099591  0.124272  0  1.067054  0
H  H32  1  0.12474247  0.25059781  0.67748860  1  0  0.114961  0  0.939391  0  0  0.128973  0  0.999984  0  0  0.130801  0  0.999733  0  0.054546  0  0.103153  0.127505  0  1.000441  0
H  H33  1  0.12474124  0.75059848  0.82251278  1  0  0.114968  0  0.939392  0  0  0.128988  0  0.999999  0  0  0.130819  0  0.999745  0  0.054556  0  0.10315  0.127521  0  1.000453  0
H  H34  1  0.87526318  0.74939850  0.32251072  1  0  0.114922  0  0.939378  0  0  0.128929  0  0.999998  0  0  0.13077  0  0.99973  0  0.054502  0  0.103113  0.127462  0  1.000454  0
H  H35  1  0.87525826  0.24939884  0.17748722  1  0  0.114923  0  0.939433  0  0  0.128949  0  1.000074  0  0  0.13078  0  0.999818  0  0.054501  0  0.103125  0.12748  0  1.00053  0
H  H36  1  0.03255880  0.08356163  0.71679305  1  0  0.093508  0  0.964275  0  0  0.106506  0  1.030182  0  0  0.108312  0  1.029497  0  0.062549  0  0.098901  0.105186  0  1.030716  0
H  H37  1  0.03256262  0.58356129  0.78320832  1  0  0.093543  0  0.964207  0  0  0.106546  0  1.030121  0  0  0.108353  0  1.029435  0  0.062568  0  0.098909  0.105227  0  1.030653  0
H  H38  1  0.96744422  0.91643369  0.28320351  1  0  0.093525  0  0.964247  0  0  0.106484  0  1.030187  0  0  0.108287  0  1.029508  0  0.06246  0  0.098918  0.105165  0  1.030717  0
H  H39  1  0.96743778  0.41643303  0.21679443  1  0  0.093493  0  0.964176  0  0  0.106502  0  1.030121  0  0  0.10831  0  1.029434  0  0.062408  0  0.098919  0.105181  0  1.030655  0
Pb  Pb40  1  0.81747079  0.75525324  0.62207317  1  0  1.40944  0  1.410317  0  0  1.237122  0  1.80184  0  0  1.291928  0  1.759765  0  1.431886  0  0.675103  1.198461  0  1.829912  0
Pb  Pb41  1  0.81746868  0.25525759  0.87792477  1  0  1.409441  0  1.410277  0  0  1.237116  0  1.801811  0  0  1.291937  0  1.75972  0  1.431874  0  0.675127  1.198452  0  1.82988  0
Pb  Pb42  1  0.18253347  0.24475008  0.37792889  1  0  1.409479  0  1.410355  0  0  1.23715  0  1.801909  0  0  1.291965  0  1.759824  0  1.431972  0  0.675126  1.198486  0  1.829977  0
Pb  Pb43  1  0.18252534  0.74473973  0.12206767  1  0  1.409539  0  1.410257  0  0  1.23722  0  1.801791  0  0  1.292042  0  1.759693  0  1.431955  0  0.675133  1.198558  0  1.829862  0
Pb  Pb44  1  0.37854132  0.38395174  0.89381594  1  0  1.451651  0  1.463174  0  0  1.279259  0  1.866892  0  0  1.335888  0  1.821228  0  1.475458  0  0.669276  1.238124  0  1.899091  0
Pb  Pb45  1  0.37853723  0.88395340  0.60618337  1  0  1.451643  0  1.463181  0  0  1.279239  0  1.866893  0  0  1.335872  0  1.821235  0  1.475387  0  0.669253  1.238104  0  1.899091  0
Pb  Pb46  1  0.62145989  0.61604958  0.10619161  1  0  1.451683  0  1.463251  0  0  1.279291  0  1.866975  0  0  1.335911  0  1.821318  0  1.475404  0  0.669277  1.238157  0  1.899173  0
Pb  Pb47  1  0.62146093  0.11604592  0.39381182  1  0  1.451691  0  1.46324  0  0  1.279288  0  1.866953  0  0  1.335911  0  1.8213  0  1.475427  0  0.669285  1.238155  0  1.89915  0
Pb  Pb48  1  0.58009344  0.83602761  0.83434512  1  0  1.451674  0  1.442002  0  0  1.284488  0  1.835446  0  0  1.337636  0  1.792118  0  1.484094  0  0.677335  1.246033  0  1.86513  0
Pb  Pb49  1  0.58009558  0.33602395  0.66565625  1  0  1.451705  0  1.441976  0  0  1.284518  0  1.835436  0  0  1.337667  0  1.792098  0  1.484124  0  0.677344  1.246062  0  1.865117  0
Pb  Pb50  1  0.41990590  0.16398472  0.16566037  1  0  1.451717  0  1.442026  0  0  1.284525  0  1.835485  0  0  1.337672  0  1.792148  0  1.484031  0  0.677351  1.246069  0  1.865162  0
Pb  Pb51  1  0.41990558  0.66398237  0.33434443  1  0  1.451679  0  1.441979  0  0  1.284508  0  1.835423  0  0  1.337653  0  1.792084  0  1.484093  0  0.677319  1.246054  0  1.865101  0
C  C52  1  0.26158754  0.51301720  0.58169648  1  0  -0.409349  0  3.700769  0  0  -0.428637  0  3.942389  0  0  -0.437283  0  3.951761  0  -0.546074  0  -0.170155  -0.422509  0  3.936131  0
C  C53  1  0.26158592  0.01301754  0.91830352  1  0  -0.409331  0  3.700702  0  0  -0.428602  0  3.942307  0  0  -0.43723  0  3.951649  0  -0.545834  0  -0.170128  -0.422464  0  3.936036  0
C  C54  1  0.73841476  0.48698413  0.41830421  1  0  -0.409315  0  3.700553  0  0  -0.428636  0  3.942292  0  0  -0.437288  0  3.951664  0  -0.546141  0  -0.170158  -0.422507  0  3.936035  0
C  C55  1  0.73841110  0.98698679  0.08169716  1  0  -0.409441  0  3.700712  0  0  -0.428815  0  3.942491  0  0  -0.437428  0  3.951719  0  -0.545946  0  -0.170147  -0.422682  0  3.936233  0
C  C56  1  0.09432644  0.47396759  0.61877061  1  0  -0.211258  0  3.661233  0  0  -0.248961  0  3.905714  0  0  -0.253606  0  3.913704  0  -0.044175  0  -0.159219  -0.245964  0  3.900301  0
C  C57  1  0.09432454  0.97396925  0.88122939  1  0  -0.211251  0  3.661232  0  0  -0.248946  0  3.905686  0  0  -0.253579  0  3.913668  0  -0.044466  0  -0.159234  -0.245951  0  3.900267  0
C  C58  1  0.90567544  0.52603273  0.38122871  1  0  -0.211248  0  3.66104  0  0  -0.249004  0  3.905581  0  0  -0.253639  0  3.91359  0  -0.044152  0  -0.159231  -0.246006  0  3.900167  0
C  C59  1  0.90567295  0.02603107  0.11877129  1  0  -0.211282  0  3.661311  0  0  -0.248924  0  3.90577  0  0  -0.253538  0  3.913768  0  -0.044238  0  -0.15927  -0.245931  0  3.900359  0
C  C60  1  0.02032073  0.57865732  0.60981495  1  0  0.711619  0  3.835043  0  0  0.661095  0  4.13373  0  0  0.695654  0  4.127293  0  1.53936  0  0.218406  0.637405  0  4.137662  0
C  C61  1  0.02032362  0.07866567  0.89018642  1  0  0.711628  0  3.835057  0  0  0.661083  0  4.133767  0  0  0.69564  0  4.127331  0  1.538975  0  0.21845  0.637394  0  4.137699  0
C  C62  1  0.97967706  0.42133600  0.39018505  1  0  0.711603  0  3.835002  0  0  0.661055  0  4.133741  0  0  0.695615  0  4.127299  0  1.539086  0  0.218398  0.637366  0  4.137674  0
C  C63  1  0.97966853  0.92134266  0.10981289  1  0  0.711725  0  3.83465  0  0  0.661135  0  4.133407  0  0  0.695692  0  4.126972  0  1.538669  0  0.218455  0.637444  0  4.13734  0
C  C64  1  0.93564792  0.12283141  0.58942191  1  0  -0.428564  0  3.699138  0  0  -0.445327  0  3.939764  0  0  -0.454804  0  3.948425  0  -0.545287  0  -0.171278  -0.438641  0  3.933682  0
C  C65  1  0.93564492  0.62283307  0.91057877  1  0  -0.428689  0  3.699147  0  0  -0.445416  0  3.939755  0  0  -0.454892  0  3.948413  0  -0.545372  0  -0.171336  -0.438736  0  3.933681  0
C  C66  1  0.06435268  0.87716591  0.41057671  1  0  -0.428496  0  3.699067  0  0  -0.445314  0  3.939789  0  0  -0.454789  0  3.94845  0  -0.545261  0  -0.171281  -0.438632  0  3.933714  0
C  C67  1  0.06435458  0.37716425  0.08942329  1  0  -0.42856  0  3.699133  0  0  -0.44523  0  3.939711  0  0  -0.454759  0  3.948516  0  -0.545185  0  -0.171268  -0.438539  0  3.933602  0
C  C68  1  0.07414411  0.14592010  0.65564691  1  0  -0.217167  0  3.658797  0  0  -0.255333  0  3.902071  0  0  -0.259777  0  3.910457  0  -0.019059  0  -0.166859  -0.25234  0  3.896465  0
C  C69  1  0.07414135  0.64591976  0.84435446  1  0  -0.217178  0  3.65874  0  0  -0.255389  0  3.902042  0  0  -0.259838  0  3.910432  0  -0.019054  0  -0.166833  -0.252396  0  3.896435  0
C  C70  1  0.92585801  0.85407822  0.34435171  1  0  -0.217118  0  3.658775  0  0  -0.255284  0  3.902062  0  0  -0.259739  0  3.910447  0  -0.018624  0  -0.166838  -0.252291  0  3.896456  0
C  C71  1  0.92585838  0.35407556  0.15564554  1  0  -0.217101  0  3.658853  0  0  -0.255391  0  3.902223  0  0  -0.259837  0  3.910594  0  -0.018558  0  -0.166835  -0.252397  0  3.896618  0
C  C72  1  0.20051757  0.10557544  0.61071821  1  0  0.712457  0  3.855417  0  0  0.6672  0  4.151925  0  0  0.701494  0  4.144103  0  1.552276  0  0.212953  0.6438  0  4.156507  0
C  C73  1  0.20052291  0.60557611  0.88928454  1  0  0.712342  0  3.855677  0  0  0.667127  0  4.152134  0  0  0.701423  0  4.144305  0  1.552265  0  0.212909  0.643728  0  4.156718  0
C  C74  1  0.79948297  0.89442688  0.38928042  1  0  0.712277  0  3.855908  0  0  0.667119  0  4.15226  0  0  0.701414  0  4.144439  0  1.551968  0  0.21284  0.643717  0  4.156844  0
C  C75  1  0.79948987  0.39442922  0.11071890  1  0  0.712279  0  3.855658  0  0  0.667138  0  4.152062  0  0  0.701436  0  4.144234  0  1.551896  0  0.212881  0.643735  0  4.156645  0
O  O76  1  0.41721065  0.68704704  0.71748200  1  0  -0.898109  0  2.000681  0  0  -0.79483  0  2.260137  0  0  -0.827384  0  2.245372  0  -1.454907  0  -0.343237  -0.771521  0  2.269207  0
O  O77  1  0.41721212  0.18704438  0.78251937  1  0  -0.898103  0  2.000804  0  0  -0.794791  0  2.260227  0  0  -0.827344  0  2.24546  0  -1.454935  0  -0.343216  -0.771484  0  2.269301  0
O  O78  1  0.58278898  0.31295828  0.28252006  1  0  -0.898159  0  2.000921  0  0  -0.794815  0  2.260337  0  0  -0.827372  0  2.245569  0  -1.454833  0  -0.343219  -0.77151  0  2.269412  0
O  O79  1  0.58278232  0.81295394  0.21748338  1  0  -0.89814  0  2.000616  0  0  -0.794835  0  2.26002  0  0  -0.827398  0  2.245255  0  -1.454849  0  -0.343231  -0.771526  0  2.269094  0
O  O80  1  0.57025526  0.58629550  0.60912738  1  0  -0.895819  0  1.987599  0  0  -0.790863  0  2.248089  0  0  -0.82229  0  2.231383  0  -1.437157  0  -0.350691  -0.76886  0  2.25857  0
O  O81  1  0.57025997  0.08629784  0.89086988  1  0  -0.895848  0  1.987571  0  0  -0.790877  0  2.248064  0  0  -0.82231  0  2.231366  0  -1.437143  0  -0.350735  -0.768875  0  2.258547  0
O  O82  1  0.42974528  0.41370682  0.39087537  1  0  -0.895883  0  1.987562  0  0  -0.790896  0  2.248067  0  0  -0.822335  0  2.231366  0  -1.43723  0  -0.350702  -0.76889  0  2.258548  0
O  O83  1  0.42973429  0.91369747  0.10912738  1  0  -0.895935  0  1.987575  0  0  -0.790955  0  2.248074  0  0  -0.822392  0  2.231369  0  -1.437265  0  -0.350774  -0.768953  0  2.258557  0
O  O84  1  0.39133180  0.43907235  0.72877995  1  0  -0.889894  0  1.997624  0  0  -0.782262  0  2.257256  0  0  -0.814799  0  2.240783  0  -1.438782  0  -0.342131  -0.75903  0  2.267553  0
O  O85  1  0.39132624  0.93906801  0.77122143  1  0  -0.889968  0  1.997578  0  0  -0.782326  0  2.257196  0  0  -0.814885  0  2.240761  0  -1.438782  0  -0.342153  -0.759093  0  2.267493  0
O  O86  1  0.60866831  0.56092897  0.27121936  1  0  -0.889921  0  1.997508  0  0  -0.782303  0  2.257185  0  0  -0.814816  0  2.240647  0  -1.438649  0  -0.342146  -0.759071  0  2.267482  0
O  O87  1  0.60866473  0.06092731  0.22877995  1  0  -0.889925  0  1.997696  0  0  -0.78229  0  2.257315  0  0  -0.814828  0  2.24084  0  -1.438502  0  -0.342135  -0.759059  0  2.267614  0
O  O88  1  0.70596617  0.95222566  0.69240095  1  0  -0.943981  0  2.013496  0  0  -0.837814  0  2.275671  0  0  -0.871526  0  2.2598  0  -1.459023  0  -0.346329  -0.813729  0  2.284283  0
O  O89  1  0.70596095  0.45223300  0.80759768  1  0  -0.944045  0  2.013464  0  0  -0.837931  0  2.275726  0  0  -0.871644  0  2.259855  0  -1.459123  0  -0.346354  -0.813842  0  2.284338  0
O  O90  1  0.29403223  0.04777166  0.30759836  1  0  -0.944077  0  2.013615  0  0  -0.837938  0  2.27583  0  0  -0.871657  0  2.259964  0  -1.459096  0  -0.346349  -0.813855  0  2.284445  0
O  O91  1  0.29403357  0.54777833  0.19239889  1  0  -0.944015  0  2.013392  0  0  -0.837897  0  2.275622  0  0  -0.871608  0  2.259751  0  -1.459045  0  -0.346362  -0.813815  0  2.284239  0
O  O92  1  0.62604203  0.09793426  0.57862609  1  0  -0.974383  0  2.001717  0  0  -0.86802  0  2.265776  0  0  -0.903569  0  2.25093  0  -1.463328  0  -0.350218  -0.842856  0  2.275949  0
O  O93  1  0.62604184  0.59793993  0.92137391  1  0  -0.97443  0  2.001703  0  0  -0.868072  0  2.26576  0  0  -0.903621  0  2.250914  0  -1.463033  0  -0.350202  -0.842904  0  2.275933  0
O  O94  1  0.37395722  0.90206506  0.42137117  1  0  -0.974457  0  2.001688  0  0  -0.868079  0  2.265718  0  0  -0.903628  0  2.250871  0  -1.463284  0  -0.350272  -0.84291  0  2.275888  0
O  O95  1  0.37396113  0.40206040  0.07862883  1  0  -0.974408  0  2.001707  0  0  -0.868043  0  2.265753  0  0  -0.903587  0  2.250903  0  -1.463015  0  -0.350232  -0.842879  0  2.275926  0
O  O96  1  0.77857602  0.20909022  0.71895195  1  0  -0.893614  0  1.959407  0  0  -0.784539  0  2.224435  0  0  -0.817015  0  2.206268  0  -1.441032  0  -0.34528  -0.762216  0  2.235066  0
O  O97  1  0.77857675  0.70909288  0.78104531  1  0  -0.893669  0  1.959291  0  0  -0.784582  0  2.224269  0  0  -0.817051  0  2.206095  0  -1.441052  0  -0.345289  -0.76228  0  2.234954  0
O  O98  1  0.22141933  0.79090510  0.28104462  1  0  -0.893693  0  1.959298  0  0  -0.784633  0  2.224303  0  0  -0.817107  0  2.206131  0  -1.441098  0  -0.34531  -0.762318  0  2.234958  0
O  O99  1  0.22143447  0.29091644  0.21895950  1  0  -0.893653  0  1.959418  0  0  -0.784591  0  2.22441  0  0  -0.817061  0  2.206238  0  -1.441104  0  -0.345297  -0.762262  0  2.235024  0
O  O100  1  0.10171920  0.69940805  0.58996936  1  0  -0.696541  0  2.027857  0  0  -0.618831  0  2.268478  0  0  -0.650316  0  2.261872  0  -1.212569  0  -0.297291  -0.596796  0  2.272612  0
O  O101  1  0.10172390  0.19941039  0.91003132  1  0  -0.69657  0  2.027956  0  0  -0.618848  0  2.268579  0  0  -0.65033  0  2.261973  0  -1.212345  0  -0.297343  -0.596815  0  2.272715  0
O  O102  1  0.89827482  0.30058927  0.41002995  1  0  -0.696593  0  2.027855  0  0  -0.618848  0  2.268498  0  0  -0.650334  0  2.261894  0  -1.212456  0  -0.297349  -0.596815  0  2.272633  0
O  O103  1  0.89827297  0.80058593  0.08996936  1  0  -0.696616  0  2.027692  0  0  -0.618868  0  2.268366  0  0  -0.65036  0  2.261765  0  -1.212407  0  -0.297312  -0.596833  0  2.272503  0
O  O104  1  0.87141624  0.54017017  0.62261169  1  0  -0.688294  0  2.015719  0  0  -0.61372  0  2.265967  0  0  -0.646533  0  2.260325  0  -1.169506  0  -0.29268  -0.590866  0  2.268407  0
O  O105  1  0.87141985  0.04017251  0.87738763  1  0  -0.688276  0  2.015619  0  0  -0.613681  0  2.26588  0  0  -0.6465  0  2.26024  0  -1.16945  0  -0.292673  -0.590827  0  2.268319  0
O  O106  1  0.12857845  0.45982615  0.37739312  1  0  -0.688247  0  2.015756  0  0  -0.613649  0  2.26604  0  0  -0.64646  0  2.260393  0  -1.169442  0  -0.292615  -0.590795  0  2.26848  0
O  O107  1  0.12858289  0.95982981  0.12260619  1  0  -0.688393  0  2.015335  0  0  -0.613768  0  2.265594  0  0  -0.646583  0  2.259954  0  -1.169316  0  -0.292694  -0.590911  0  2.268032  0
O  O108  1  0.18335244  0.98238607  0.62264054  1  0  -0.688886  0  2.015062  0  0  -0.615833  0  2.26674  0  0  -0.647776  0  2.259049  0  -1.185514  0  -0.300154  -0.592859  0  2.271081  0
O  O109  1  0.18336197  0.48238941  0.87735328  1  0  -0.688916  0  2.014969  0  0  -0.615907  0  2.266639  0  0  -0.647847  0  2.258941  0  -1.185571  0  -0.300224  -0.592932  0  2.270984  0
O  O110  1  0.81664095  0.01760725  0.37735191  1  0  -0.688835  0  2.015393  0  0  -0.615823  0  2.267034  0  0  -0.647766  0  2.259342  0  -1.185596  0  -0.300162  -0.59285  0  2.271378  0
O  O111  1  0.81664258  0.51760691  0.12264328  1  0  -0.688833  0  2.015323  0  0  -0.615831  0  2.266999  0  0  -0.647774  0  2.259306  0  -1.18553  0  -0.300166  -0.592857  0  2.271342  0
O  O112  1  0.30716312  0.18873074  0.56215106  1  0  -0.721876  0  1.933825  0  0  -0.661822  0  2.176737  0  0  -0.690307  0  2.169368  0  -1.211945  0  -0.317521  -0.6421  0  2.181607  0
O  O113  1  0.30715842  0.68872840  0.93785375  1  0  -0.721739  0  1.934183  0  0  -0.661681  0  2.177015  0  0  -0.690164  0  2.169644  0  -1.21197  0  -0.31745  -0.641958  0  2.181883  0
O  O114  1  0.69283923  0.81126557  0.43784894  1  0  -0.721798  0  1.933927  0  0  -0.661761  0  2.176754  0  0  -0.69025  0  2.169388  0  -1.211914  0  -0.31741  -0.642036  0  2.181623  0
O  O115  1  0.69283931  0.31126992  0.06214900  1  0  -0.721815  0  1.933726  0  0  -0.661782  0  2.176567  0  0  -0.690272  0  2.169201  0  -1.211825  0  -0.317481  -0.642057  0  2.181435  0
