# generated using pymatgen
data_NiH16C17SN2O7
_symmetry_space_group_name_H-M   'P 1'
_cell_length_a   8.61734938
_cell_length_b   8.17081175
_cell_length_c   14.24410712
_cell_angle_alpha   90.00148514
_cell_angle_beta   89.99581591
_cell_angle_gamma   114.11725738
_symmetry_Int_Tables_number   1
_chemical_formula_structural   NiH16C17SN2O7
_chemical_formula_sum   'Ni2 H32 C34 S2 N4 O14'
_cell_volume   915.39279628
_cell_formula_units_Z   2
loop_
 _symmetry_equiv_pos_site_id
 _symmetry_equiv_pos_as_xyz
  1  'x, y, z'
loop_
 _atom_site_type_symbol
 _atom_site_label
 _atom_site_symmetry_multiplicity
 _atom_site_fract_x
 _atom_site_fract_y
 _atom_site_fract_z
 _atom_site_occupancy
 _atom_site_hle17_bader_spin_density
 _atom_site_hle17_ddec_charge
 _atom_site_hle17_ddec_spin_density
 _atom_site_hle17_ddec_sum_bond_order
 _atom_site_hle17_magmom
 _atom_site_hse06_10hf_bader_spin_density
 _atom_site_hse06_10hf_ddec_charge
 _atom_site_hse06_10hf_ddec_spin_density
 _atom_site_hse06_10hf_ddec_sum_bond_order
 _atom_site_hse06_10hf_magmom
 _atom_site_hse06_bader_spin_density
 _atom_site_hse06_ddec_charge
 _atom_site_hse06_ddec_spin_density
 _atom_site_hse06_ddec_sum_bond_order
 _atom_site_hse06_magmom
 _atom_site_pbe_bader_spin_density
 _atom_site_pbe_cm5_charge
 _atom_site_pbe_ddec_charge
 _atom_site_pbe_ddec_spin_density
 _atom_site_pbe_ddec_sum_bond_order
 _atom_site_pbe_magmom
Ni  Ni0  1  0.36758337  0.39815508  0.01933458  1  0  0.646964  0  2.292475  0  0  0.605716  0  2.765783  0  0  0.673413  0  2.689669  0  0  0.632178  0.57215  0  2.81144  0
Ni  Ni1  1  0.63240477  0.60182426  0.51932426  1  0  0.64693  0  2.292473  0  0  0.605668  0  2.765851  0  0  0.673324  0  2.689746  0  0  0.63223  0.572127  0  2.81126  0
H  H2  1  0.58677395  0.51160823  0.18807399  1  0  0.093437  0  0.957657  0  0  0.100914  0  1.021731  0  0  0.10279  0  1.020013  0  0  0.124242  0.099417  0  1.023242  0
H  H3  1  0.41326910  0.48838946  0.68803598  1  0  0.093512  0  0.958016  0  0  0.100887  0  1.022201  0  0  0.102761  0  1.020481  0  0  0.124276  0.099384  0  1.02371  0
H  H4  1  0.80880169  0.80582369  0.23940515  1  0  0.105859  0  0.971647  0  0  0.114622  0  1.03247  0  0  0.117263  0  1.032349  0  0  0.111178  0.112578  0  1.032937  0
H  H5  1  0.19125076  0.19426270  0.73938307  1  0  0.105591  0  0.971603  0  0  0.11439  0  1.032404  0  0  0.117012  0  1.032302  0  0  0.111018  0.112346  0  1.032869  0
H  H6  1  0.88396774  0.07464913  0.13293639  1  0  0.115404  0  0.924669  0  0  0.128671  0  0.977921  0  0  0.131065  0  0.975967  0  0  0.118871  0.126682  0  0.979742  0
H  H7  1  0.11600446  0.92536366  0.63293501  1  0  0.115442  0  0.924612  0  0  0.128702  0  0.977861  0  0  0.131098  0  0.97591  0  0  0.118901  0.126708  0  0.979676  0
H  H8  1  0.71640681  0.03973157  0.98560703  1  0  0.12161  0  0.979228  0  0  0.126588  0  1.045806  0  0  0.13023  0  1.043927  0  0  0.112407  0.123821  0  1.047459  0
H  H9  1  0.28358674  0.96027816  0.48557218  1  0  0.121336  0  0.979768  0  0  0.126367  0  1.046281  0  0  0.12999  0  1.044404  0  0  0.112409  0.1236  0  1.047939  0
H  H10  1  0.53378122  0.98397050  0.86813410  1  0  0.127249  0  0.959391  0  0  0.133936  0  1.021143  0  0  0.137456  0  1.01938  0  0  0.113775  0.13132  0  1.022643  0
H  H11  1  0.46626703  0.01599510  0.36814868  1  0  0.127253  0  0.959429  0  0  0.133942  0  1.021182  0  0  0.137462  0  1.019418  0  0  0.113838  0.131333  0  1.022666  0
H  H12  1  0.31520777  0.88067403  0.74175464  1  0  0.094781  0  0.946921  0  0  0.107891  0  1.001661  0  0  0.109981  0  0.999937  0  0  0.108928  0.106223  0  1.003334  0
H  H13  1  0.68487484  0.11929823  0.24175975  1  0  0.095021  0  0.946997  0  0  0.107861  0  1.002004  0  0  0.109952  0  1.000281  0  0  0.108934  0.106199  0  1.003651  0
H  H14  1  0.09818567  0.56118175  0.74233269  1  0  0.119174  0  0.974741  0  0  0.12665  0  1.035441  0  0  0.130379  0  1.033816  0  0  0.107668  0.123858  0  1.036902  0
H  H15  1  0.90185248  0.43875460  0.24230215  1  0  0.118981  0  0.974826  0  0  0.126456  0  1.035569  0  0  0.130187  0  1.033939  0  0  0.107577  0.123665  0  1.037023  0
H  H16  1  0.11734170  0.35431321  0.86868987  1  0  0.103213  0  0.983029  0  0  0.107591  0  1.049491  0  0  0.11059  0  1.045504  0  0  0.123512  0.10526  0  1.052591  0
H  H17  1  0.88270246  0.64569596  0.36865791  1  0  0.103406  0  0.982967  0  0  0.107836  0  1.049333  0  0  0.110782  0  1.045409  0  0  0.123543  0.105498  0  1.052429  0
H  H18  1  0.99785673  0.67000308  0.01112772  1  0  0.093046  0  0.978472  0  0  0.098813  0  1.051874  0  0  0.102506  0  1.048562  0  0  0.103805  0.096084  0  1.054229  0
H  H19  1  0.00218570  0.33015668  0.51118962  1  0  0.092965  0  0.978296  0  0  0.098654  0  1.051888  0  0  0.102304  0  1.048638  0  0  0.103677  0.095921  0  1.05427  0
H  H20  1  0.66722425  0.54704471  0.76996331  1  0  0.100477  0  0.947966  0  0  0.110255  0  1.010502  0  0  0.113106  0  1.008508  0  0  0.107019  0.1081  0  1.012103  0
H  H21  1  0.33276675  0.45293826  0.26996248  1  0  0.10057  0  0.947688  0  0  0.110334  0  1.010248  0  0  0.113184  0  1.00826  0  0  0.107059  0.108174  0  1.011859  0
H  H22  1  0.78140287  0.87317322  0.73050015  1  0  0.10485  0  0.951019  0  0  0.116379  0  1.006262  0  0  0.119996  0  1.004987  0  0  0.10632  0.113554  0  1.007568  0
H  H23  1  0.21857896  0.12686031  0.23054810  1  0  0.104964  0  0.950773  0  0  0.116502  0  1.005972  0  0  0.120118  0  1.004699  0  0  0.10638  0.113701  0  1.007257  0
H  H24  1  0.99703245  0.09392585  0.83412685  1  0  0.100506  0  0.976919  0  0  0.111315  0  1.038098  0  0  0.11478  0  1.034589  0  0  0.106312  0.108865  0  1.040485  0
H  H25  1  0.00308159  0.90617239  0.33414534  1  0  0.100605  0  0.977289  0  0  0.111114  0  1.038798  0  0  0.11457  0  1.035321  0  0  0.106285  0.108663  0  1.041179  0
H  H26  1  0.12766906  0.55767736  0.11476568  1  0  0.403224  0  0.848031  0  0  0.3879  0  0.906813  0  0  0.396429  0  0.895736  0  0  0.304737  0.381829  0  0.914826  0
H  H27  1  0.87218512  0.44182533  0.61485494  1  0  0.4036  0  0.847496  0  0  0.388168  0  0.906435  0  0  0.396682  0  0.895386  0  0  0.304977  0.382122  0  0.914399  0
H  H28  1  0.35948382  0.13098734  0.08709164  1  0  0.40982  0  0.900664  0  0  0.380636  0  0.966774  0  0  0.393971  0  0.948489  0  0  0.29007  0.371329  0  0.97951  0
H  H29  1  0.64062666  0.86903053  0.58713976  1  0  0.410139  0  0.900862  0  0  0.380933  0  0.966577  0  0  0.394259  0  0.948302  0  0  0.290282  0.371634  0  0.979299  0
H  H30  1  0.55762253  0.28564166  0.07839066  1  0  0.411742  0  0.882106  0  0  0.381675  0  0.959557  0  0  0.392223  0  0.944783  0  0  0.29416  0.374417  0  0.967324  0
H  H31  1  0.44247705  0.71449484  0.57840265  1  0  0.411701  0  0.881993  0  0  0.381633  0  0.95946  0  0  0.392173  0  0.944696  0  0  0.294211  0.374391  0  0.967089  0
H  H32  1  0.95640548  0.40792633  0.07985304  1  0  0.412569  0  0.889667  0  0  0.383052  0  0.952296  0  0  0.393081  0  0.937566  0  0  0.281157  0.376167  0  0.962376  0
H  H33  1  0.04326007  0.59183945  0.57994292  1  0  0.412373  0  0.889973  0  0  0.383019  0  0.952336  0  0  0.393059  0  0.937588  0  0  0.281263  0.376135  0  0.962418  0
C  C34  1  0.61789531  0.63232257  0.14636863  1  0  0.135996  0  3.650149  0  0  0.10459  0  3.902835  0  0  0.117003  0  3.917271  0  0  0.053362  0.096008  0  3.894557  0
C  C35  1  0.38211598  0.36765869  0.64636160  1  0  0.135757  0  3.650141  0  0  0.104393  0  3.902901  0  0  0.1168  0  3.917328  0  0  0.053356  0.09581  0  3.894572  0
C  C36  1  0.74334394  0.79669202  0.17316545  1  0  -0.100117  0  3.703752  0  0  -0.112029  0  3.951893  0  0  -0.119933  0  3.970232  0  0  -0.072221  -0.107297  0  3.940664  0
C  C37  1  0.25665116  0.20327332  0.67313500  1  0  -0.099734  0  3.70365  0  0  -0.111621  0  3.95175  0  0  -0.119509  0  3.970099  0  0  -0.072025  -0.106889  0  3.940479  0
C  C38  1  0.78228255  0.94556496  0.11500335  1  0  -0.000282  0  3.688756  0  0  -0.02137  0  3.941021  0  0  -0.012857  0  3.953372  0  0  -0.060821  -0.027615  0  3.933813  0
C  C39  1  0.21771196  0.05442174  0.61496478  1  0  -0.00052  0  3.689477  0  0  -0.021655  0  3.941911  0  0  -0.013147  0  3.954252  0  0  -0.060885  -0.027894  0  3.934667  0
C  C40  1  0.68886576  0.92680977  0.03287091  1  0  -0.11001  0  3.666203  0  0  -0.129576  0  3.912283  0  0  -0.136107  0  3.929482  0  0  -0.067491  -0.125813  0  3.90186  0
C  C41  1  0.31113894  0.07318496  0.53283772  1  0  -0.109597  0  3.666704  0  0  -0.129211  0  3.912829  0  0  -0.135705  0  3.930005  0  0  -0.067358  -0.125453  0  3.902378  0
C  C42  1  0.56041063  0.76054399  0.01117516  1  0  0.169324  0  3.751825  0  0  0.165918  0  3.991891  0  0  0.175553  0  4.010103  0  0  0.121055  0.159245  0  3.980811  0
C  C43  1  0.43961139  0.23945355  0.51114710  1  0  0.169127  0  3.751808  0  0  0.165707  0  3.991975  0  0  0.175338  0  4.010177  0  0  0.120839  0.159026  0  3.980846  0
C  C44  1  0.44460946  0.72176207  0.93205975  1  0  0.159966  0  3.761655  0  0  0.154276  0  4.006149  0  0  0.162407  0  4.025624  0  0  0.118257  0.148569  0  3.994202  0
C  C45  1  0.55541092  0.27824488  0.43204220  1  0  0.159827  0  3.761485  0  0  0.15422  0  4.005901  0  0  0.162347  0  4.025384  0  0  0.118268  0.148519  0  3.993903  0
C  C46  1  0.44234237  0.84462256  0.86485627  1  0  -0.111817  0  3.660223  0  0  -0.130527  0  3.905655  0  0  -0.136854  0  3.923063  0  0  -0.066906  -0.126753  0  3.894883  0
C  C47  1  0.55768971  0.15534773  0.36483431  1  0  -0.111843  0  3.65938  0  0  -0.13051  0  3.904654  0  0  -0.136841  0  3.922082  0  0  -0.066983  -0.126743  0  3.893858  0
C  C48  1  0.31918986  0.78647559  0.79474586  1  0  0.014222  0  3.683829  0  0  -0.005078  0  3.932159  0  0  0.003099  0  3.945804  0  0  -0.060615  -0.011193  0  3.92395  0
C  C49  1  0.68087921  0.21351974  0.29473586  1  0  0.01399  0  3.684332  0  0  -0.005136  0  3.932663  0  0  0.003029  0  3.946322  0  0  -0.060622  -0.01125  0  3.92444  0
C  C50  1  0.20008468  0.60865532  0.79437751  1  0  -0.10575  0  3.689385  0  0  -0.117632  0  3.939028  0  0  -0.126545  0  3.959037  0  0  -0.076437  -0.112087  0  3.926448  0
C  C51  1  0.79994366  0.39132672  0.29435161  1  0  -0.105268  0  3.688948  0  0  -0.117167  0  3.938521  0  0  -0.126073  0  3.958515  0  0  -0.076254  -0.111624  0  3.925915  0
C  C52  1  0.20929512  0.49242448  0.86348770  1  0  0.130821  0  3.640358  0  0  0.097877  0  3.895839  0  0  0.109438  0  3.910877  0  0  0.05407  0.089914  0  3.88709  0
C  C53  1  0.79075312  0.50759929  0.36346841  1  0  0.130351  0  3.639365  0  0  0.097438  0  3.894808  0  0  0.109047  0  3.909858  0  0  0.053964  0.089476  0  3.886016  0
C  C54  1  0.15549295  0.02636070  0.98588623  1  0  0.638595  0  3.840024  0  0  0.594004  0  4.131688  0  0  0.631162  0  4.126862  0  0  0.222895  0.568827  0  4.134193  0
C  C55  1  0.84454447  0.97369023  0.48594658  1  0  0.638948  0  3.840115  0  0  0.594599  0  4.131404  0  0  0.631757  0  4.126546  0  0  0.223063  0.569428  0  4.133883  0
C  C56  1  0.01837468  0.89510635  0.92593599  1  0  -0.074531  0  3.77238  0  0  -0.047485  0  4.003642  0  0  -0.058138  0  4.028525  0  0  -0.018519  -0.040416  0  3.986357  0
C  C57  1  0.98165181  0.10497483  0.42601006  1  0  -0.075121  0  3.773351  0  0  -0.04802  0  4.0044  0  0  -0.05866  0  4.02926  0  0  -0.018561  -0.040953  0  3.987099  0
C  C58  1  0.95169646  0.71270342  0.94877384  1  0  -0.070659  0  3.741785  0  0  -0.110858  0  3.995101  0  0  -0.109324  0  4.01802  0  0  -0.082997  -0.111147  0  3.979092  0
C  C59  1  0.04833626  0.28737974  0.44884653  1  0  -0.070101  0  3.741024  0  0  -0.110511  0  3.994295  0  0  -0.10898  0  4.017263  0  0  -0.082803  -0.110795  0  3.978262  0
C  C60  1  0.82442772  0.58992427  0.89288772  1  0  -0.129174  0  3.751378  0  0  -0.100448  0  4.001455  0  0  -0.109974  0  4.026066  0  0  -0.020405  -0.094431  0  3.985028  0
C  C61  1  0.17554630  0.41013333  0.39291238  1  0  -0.129314  0  3.751713  0  0  -0.100073  0  4.001152  0  0  -0.109586  0  4.025747  0  0  -0.020282  -0.094064  0  3.984719  0
C  C62  1  0.76531608  0.64583466  0.81298745  1  0  -0.028004  0  3.710667  0  0  -0.058787  0  3.963719  0  0  -0.056518  0  3.983859  0  0  -0.072435  -0.060049  0  3.950077  0
C  C63  1  0.23467956  0.35422212  0.31302375  1  0  -0.027913  0  3.710783  0  0  -0.058888  0  3.963771  0  0  -0.056618  0  3.983893  0  0  -0.07255  -0.060143  0  3.950135  0
C  C64  1  0.82996873  0.82781063  0.79109772  1  0  -0.062493  0  3.728561  0  0  -0.072621  0  3.982839  0  0  -0.077805  0  4.004081  0  0  -0.084633  -0.069117  0  3.968429  0
C  C65  1  0.17000500  0.17224631  0.29114522  1  0  -0.062673  0  3.728789  0  0  -0.072738  0  3.982967  0  0  -0.077911  0  4.004204  0  0  -0.084521  -0.069255  0  3.968539  0
C  C66  1  0.95375727  0.95161424  0.84807834  1  0  -0.055923  0  3.713925  0  0  -0.085994  0  3.964931  0  0  -0.08281  0  3.983043  0  0  -0.077835  -0.087654  0  3.952094  0
C  C67  1  0.04625922  0.04845054  0.34813593  1  0  -0.055736  0  3.715158  0  0  -0.085695  0  3.966199  0  0  -0.082511  0  3.984298  0  0  -0.077922  -0.087354  0  3.953366  0
S  S68  1  0.73191610  0.35696792  0.92122527  1  0  1.275341  0  5.672018  0  0  1.179966  0  6.194981  0  0  1.227911  0  6.170691  0  0  0.501059  1.146887  0  6.210629  0
S  S69  1  0.26802839  0.64312763  0.42120315  1  0  1.274469  0  5.673033  0  0  1.178813  0  6.196258  0  0  1.226766  0  6.171969  0  0  0.500257  1.145736  0  6.211893  0
N  N70  1  0.52903600  0.61356686  0.06643005  1  0  -0.277564  0  3.371988  0  0  -0.230292  0  3.66939  0  0  -0.257797  0  3.681658  0  0  -0.33924  -0.215317  0  3.662636  0
N  N71  1  0.47096727  0.38643112  0.56641090  1  0  -0.277227  0  3.371571  0  0  -0.230043  0  3.669106  0  0  -0.257527  0  3.681353  0  0  -0.339264  -0.215052  0  3.662205  0
N  N72  1  0.32955627  0.54692191  0.93035469  1  0  -0.267641  0  3.361857  0  0  -0.219396  0  3.656105  0  0  -0.247758  0  3.670538  0  0  -0.334251  -0.203656  0  3.648121  0
N  N73  1  0.67045652  0.45308872  0.43033954  1  0  -0.267427  0  3.36166  0  0  -0.219299  0  3.656046  0  0  -0.247654  0  3.670453  0  0  -0.334257  -0.203555  0  3.64794  0
O  O74  1  0.19501065  0.19343124  0.96659842  1  0  -0.536064  0  2.156605  0  0  -0.49745  0  2.444975  0  0  -0.540157  0  2.435947  0  0  -0.296719  -0.469182  0  2.449809  0
O  O75  1  0.80503645  0.80661567  0.46663106  1  0  -0.536367  0  2.156181  0  0  -0.497654  0  2.444091  0  0  -0.54039  0  2.435147  0  0  -0.296728  -0.469399  0  2.44887  0
O  O76  1  0.22277756  0.96888628  0.04966445  1  0  -0.589293  0  1.94589  0  0  -0.539635  0  2.148921  0  0  -0.564571  0  2.138965  0  0  -0.314587  -0.522224  0  2.155301  0
O  O77  1  0.77723370  0.03106928  0.54976198  1  0  -0.58958  0  1.946672  0  0  -0.539941  0  2.149392  0  0  -0.564865  0  2.13942  0  0  -0.314629  -0.522544  0  2.155787  0
O  O78  1  0.74860008  0.35035917  0.02597639  1  0  -0.712667  0  1.990299  0  0  -0.643468  0  2.224272  0  0  -0.666003  0  2.209658  0  0  -0.344393  -0.627365  0  2.233496  0
O  O79  1  0.25139643  0.64988143  0.52594829  1  0  -0.712609  0  1.98962  0  0  -0.643491  0  2.223708  0  0  -0.665979  0  2.208976  0  0  -0.344371  -0.627422  0  2.232975  0
O  O80  1  0.82992319  0.27262326  0.87292503  1  0  -0.649391  0  1.925852  0  0  -0.600925  0  2.163722  0  0  -0.622767  0  2.150804  0  0  -0.342386  -0.584914  0  2.171736  0
O  O81  1  0.16994046  0.72729386  0.37287326  1  0  -0.64892  0  1.927507  0  0  -0.600355  0  2.16541  0  0  -0.622194  0  2.152482  0  0  -0.341889  -0.584341  0  2.173417  0
O  O82  1  0.55400759  0.28976638  0.89186742  1  0  -0.658072  0  1.94974  0  0  -0.620977  0  2.20475  0  0  -0.641539  0  2.18918  0  0  -0.343576  -0.606606  0  2.214868  0
O  O83  1  0.44594428  0.71038975  0.39178371  1  0  -0.658023  0  1.948239  0  0  -0.62097  0  2.203355  0  0  -0.64151  0  2.187749  0  0  -0.343661  -0.606598  0  2.213462  0
O  O84  1  0.44132979  0.26348174  0.10357007  1  0  -0.742099  0  2.026183  0  0  -0.700795  0  2.266736  0  0  -0.739316  0  2.235408  0  0  -0.549444  -0.674973  0  2.285008  0
O  O85  1  0.55872540  0.73656637  0.60355984  1  0  -0.742303  0  2.026398  0  0  -0.70094  0  2.266893  0  0  -0.739435  0  2.23556  0  0  -0.549839  -0.675143  0  2.285019  0
O  O86  1  0.05605409  0.43029465  0.12056657  1  0  -0.806604  0  1.767064  0  0  -0.773825  0  1.928123  0  0  -0.788998  0  1.900164  0  0  -0.591092  -0.763236  0  1.947706  0
O  O87  1  0.94363634  0.56921457  0.62068623  1  0  -0.806618  0  1.767243  0  0  -0.773781  0  1.928336  0  0  -0.788969  0  1.900353  0  0  -0.591239  -0.763184  0  1.947858  0
