# generated using pymatgen
data_NaH10C8O5F
_symmetry_space_group_name_H-M   'P 1'
_cell_length_a   5.38281884
_cell_length_b   5.86099897
_cell_length_c   30.54177488
_cell_angle_alpha   90.00112866
_cell_angle_beta   93.14403969
_cell_angle_gamma   90.00136338
_symmetry_Int_Tables_number   1
_chemical_formula_structural   NaH10C8O5F
_chemical_formula_sum   'Na4 H40 C32 O20 F4'
_cell_volume   962.10282761
_cell_formula_units_Z   4
loop_
 _symmetry_equiv_pos_site_id
 _symmetry_equiv_pos_as_xyz
  1  'x, y, z'
loop_
 _atom_site_type_symbol
 _atom_site_label
 _atom_site_symmetry_multiplicity
 _atom_site_fract_x
 _atom_site_fract_y
 _atom_site_fract_z
 _atom_site_occupancy
 _atom_site_hle17_bader_spin_density
 _atom_site_hle17_ddec_charge
 _atom_site_hle17_ddec_spin_density
 _atom_site_hle17_ddec_sum_bond_order
 _atom_site_hle17_magmom
 _atom_site_hse06_10hf_bader_spin_density
 _atom_site_hse06_10hf_ddec_charge
 _atom_site_hse06_10hf_ddec_spin_density
 _atom_site_hse06_10hf_ddec_sum_bond_order
 _atom_site_hse06_10hf_magmom
 _atom_site_hse06_bader_spin_density
 _atom_site_hse06_ddec_charge
 _atom_site_hse06_ddec_spin_density
 _atom_site_hse06_ddec_sum_bond_order
 _atom_site_hse06_magmom
 _atom_site_pbe_bader_spin_density
 _atom_site_pbe_cm5_charge
 _atom_site_pbe_ddec_charge
 _atom_site_pbe_ddec_spin_density
 _atom_site_pbe_ddec_sum_bond_order
 _atom_site_pbe_magmom
Na  Na0  1  0.58002287  0.59172978  0.55217168  1  0  0.896477  0  0.379278  0  0  0.84773  0  0.533421  0  0  0.858679  0  0.511644  0  0  0.665533  0.839538  0  0.549256  0
Na  Na1  1  0.91998886  0.09167803  0.94782963  1  0  0.896468  0  0.379368  0  0  0.847741  0  0.533494  0  0  0.858685  0  0.511724  0  0  0.665589  0.839563  0  0.549296  0
Na  Na2  1  0.41998174  0.40829172  0.44783064  1  0  0.89647  0  0.379358  0  0  0.847723  0  0.533482  0  0  0.858668  0  0.511713  0  0  0.665566  0.839534  0  0.549319  0
Na  Na3  1  0.08002318  0.90830594  0.05217080  1  0  0.896469  0  0.379326  0  0  0.84774  0  0.533437  0  0  0.858685  0  0.511668  0  0  0.665554  0.839542  0  0.549271  0
H  H4  1  0.43499207  0.06851061  0.69254283  1  0  0.107542  0  0.973527  0  0  0.113597  0  1.041472  0  0  0.117169  0  1.03912  0  0  0.100775  0.110967  0  1.04339  0
H  H5  1  0.06500394  0.56846159  0.80745233  1  0  0.107446  0  0.973479  0  0  0.113599  0  1.041331  0  0  0.117182  0  1.038982  0  0  0.100701  0.110964  0  1.043271  0
H  H6  1  0.56499395  0.93147165  0.30746161  1  0  0.107497  0  0.973526  0  0  0.113563  0  1.041475  0  0  0.117135  0  1.039124  0  0  0.100792  0.11094  0  1.043385  0
H  H7  1  0.93495783  0.43158892  0.19254108  1  0  0.107513  0  0.973215  0  0  0.113477  0  1.041318  0  0  0.117056  0  1.038968  0  0  0.100689  0.110847  0  1.043248  0
H  H8  1  0.11863427  0.13223139  0.74683267  1  0  0.122885  0  0.9604  0  0  0.128656  0  1.026018  0  0  0.131416  0  1.025615  0  0  0.102575  0.126656  0  1.026463  0
H  H9  1  0.38134129  0.63224468  0.75316515  1  0  0.122768  0  0.960754  0  0  0.128555  0  1.026322  0  0  0.131319  0  1.025916  0  0  0.102553  0.12653  0  1.026795  0
H  H10  1  0.88133128  0.86775770  0.25317157  1  0  0.1228  0  0.960544  0  0  0.128607  0  1.026131  0  0  0.131366  0  1.025733  0  0  0.102515  0.126619  0  1.026561  0
H  H11  1  0.61861677  0.36780583  0.24683083  1  0  0.122813  0  0.960687  0  0  0.128512  0  1.02638  0  0  0.131267  0  1.025988  0  0  0.10252  0.126536  0  1.026797  0
H  H12  1  0.82771301  0.70572063  0.67253834  1  0  0.119914  0  0.938102  0  0  0.129781  0  0.999401  0  0  0.13345  0  0.996736  0  0  0.109354  0.127075  0  1.001616  0
H  H13  1  0.67224062  0.20571998  0.82745761  1  0  0.119964  0  0.938342  0  0  0.129791  0  0.999703  0  0  0.133457  0  0.997044  0  0  0.109313  0.127083  0  1.001924  0
H  H14  1  0.17226553  0.29425992  0.32746046  1  0  0.11994  0  0.938179  0  0  0.129786  0  0.999493  0  0  0.133457  0  0.996823  0  0  0.109325  0.127078  0  1.00171  0
H  H15  1  0.32777328  0.79428958  0.17254251  1  0  0.119905  0  0.938526  0  0  0.129754  0  0.999853  0  0  0.133418  0  0.997196  0  0  0.109297  0.127045  0  1.00207  0
H  H16  1  0.13896573  0.64107684  0.61663988  1  0  0.11867  0  0.964632  0  0  0.126754  0  1.029161  0  0  0.131559  0  1.025146  0  0  0.112908  0.12325  0  1.032238  0
H  H17  1  0.36103805  0.14107710  0.88336676  1  0  0.118593  0  0.964501  0  0  0.126682  0  1.029079  0  0  0.131491  0  1.025055  0  0  0.11284  0.123174  0  1.032163  0
H  H18  1  0.86102214  0.35890883  0.38336327  1  0  0.118728  0  0.964561  0  0  0.126801  0  1.029124  0  0  0.131618  0  1.025099  0  0  0.112901  0.123297  0  1.032198  0
H  H19  1  0.63896098  0.85892393  0.11663485  1  0  0.118631  0  0.964487  0  0  0.126734  0  1.029036  0  0  0.131551  0  1.025  0  0  0.112883  0.123229  0  1.032116  0
H  H20  1  0.69871641  0.82612577  0.47658786  1  0  0.415574  0  0.891193  0  0  0.388871  0  0.949594  0  0  0.398997  0  0.934731  0  0  0.286576  0.381519  0  0.96037  0
H  H21  1  0.80127881  0.32610895  0.02341581  1  0  0.415602  0  0.891147  0  0  0.388887  0  0.949569  0  0  0.399014  0  0.934703  0  0  0.286621  0.381535  0  0.960345  0
H  H22  1  0.30128821  0.17389232  0.52341610  1  0  0.415632  0  0.891093  0  0  0.388922  0  0.949508  0  0  0.399045  0  0.934651  0  0  0.286636  0.381569  0  0.960285  0
H  H23  1  0.19873882  0.67387330  0.97658499  1  0  0.415564  0  0.891212  0  0  0.388917  0  0.949528  0  0  0.399043  0  0.934661  0  0  0.286635  0.381563  0  0.960308  0
H  H24  1  0.89629747  0.64634234  0.46919629  1  0  0.421979  0  0.876403  0  0  0.397724  0  0.929981  0  0  0.407291  0  0.915683  0  0  0.299545  0.390934  0  0.940167  0
H  H25  1  0.60370550  0.14632399  0.03080382  1  0  0.421935  0  0.87646  0  0  0.39768  0  0.930048  0  0  0.407247  0  0.915748  0  0  0.299557  0.39089  0  0.940228  0
H  H26  1  0.10370899  0.35367404  0.53080474  1  0  0.421914  0  0.876501  0  0  0.397655  0  0.930093  0  0  0.407224  0  0.915792  0  0  0.299538  0.390864  0  0.940276  0
H  H27  1  0.39631213  0.85365656  0.96919830  1  0  0.422145  0  0.876181  0  0  0.397855  0  0.929822  0  0  0.407422  0  0.915522  0  0  0.299617  0.391063  0  0.940007  0
H  H28  1  0.11520733  0.87979175  0.54659210  1  0  0.413788  0  0.896857  0  0  0.381618  0  0.96364  0  0  0.393135  0  0.946774  0  0  0.287442  0.373507  0  0.975514  0
H  H29  1  0.38480896  0.37973985  0.95340739  1  0  0.413656  0  0.897035  0  0  0.381534  0  0.963741  0  0  0.393044  0  0.946888  0  0  0.287431  0.373425  0  0.97561  0
H  H30  1  0.88480473  0.12022633  0.45341062  1  0  0.413703  0  0.896998  0  0  0.381542  0  0.963766  0  0  0.393059  0  0.946901  0  0  0.28739  0.373431  0  0.97564  0
H  H31  1  0.61521424  0.62023388  0.04659183  1  0  0.41377  0  0.896874  0  0  0.381582  0  0.963693  0  0  0.393101  0  0.946824  0  0  0.287413  0.373471  0  0.975566  0
H  H32  1  0.23265721  0.82843591  0.50104331  1  0  0.410092  0  0.897018  0  0  0.382046  0  0.957552  0  0  0.392197  0  0.942687  0  0  0.296564  0.374837  0  0.968137  0
H  H33  1  0.26735200  0.32843572  0.99895624  1  0  0.409936  0  0.897111  0  0  0.381932  0  0.957688  0  0  0.392078  0  0.942823  0  0  0.296514  0.374726  0  0.968277  0
H  H34  1  0.76734926  0.17158047  0.49895804  1  0  0.410071  0  0.897082  0  0  0.382012  0  0.957604  0  0  0.392171  0  0.942736  0  0  0.296512  0.374804  0  0.968189  0
H  H35  1  0.73267492  0.67153460  0.00104335  1  0  0.410222  0  0.896952  0  0  0.382149  0  0.95742  0  0  0.392315  0  0.942549  0  0  0.296595  0.374938  0  0.968009  0
H  H36  1  0.49635170  0.97406663  0.62242534  1  0  0.081777  0  0.926676  0  0  0.09372  0  0.99108  0  0  0.095432  0  0.989166  0  0  0.114102  0.092484  0  0.992543  0
H  H37  1  0.00364497  0.47400109  0.87756549  1  0  0.081792  0  0.926838  0  0  0.093778  0  0.991211  0  0  0.095486  0  0.989299  0  0  0.114077  0.092544  0  0.992674  0
H  H38  1  0.50365847  0.02593781  0.37757213  1  0  0.081806  0  0.926596  0  0  0.093702  0  0.991035  0  0  0.095415  0  0.98913  0  0  0.114084  0.092467  0  0.992496  0
H  H39  1  0.99637820  0.52600335  0.12242882  1  0  0.081784  0  0.927043  0  0  0.093777  0  0.991356  0  0  0.095486  0  0.989448  0  0  0.114106  0.092544  0  0.992817  0
H  H40  1  0.75064715  0.12014449  0.65015941  1  0  0.082671  0  0.943699  0  0  0.092316  0  1.012674  0  0  0.09238  0  1.014096  0  0  0.10757  0.092276  0  1.011784  0
H  H41  1  0.74934121  0.62007104  0.84983883  1  0  0.082626  0  0.943725  0  0  0.092366  0  1.012606  0  0  0.092416  0  1.014055  0  0  0.107598  0.092335  0  1.011703  0
H  H42  1  0.24935560  0.87984118  0.34984289  1  0  0.082698  0  0.943761  0  0  0.092362  0  1.012699  0  0  0.092429  0  1.014115  0  0  0.107565  0.092323  0  1.011808  0
H  H43  1  0.25065781  0.37992145  0.15016049  1  0  0.082639  0  0.943761  0  0  0.092343  0  1.012668  0  0  0.092396  0  1.014113  0  0  0.107571  0.09231  0  1.011758  0
C  C44  1  0.31079510  0.35230359  0.65090863  1  0  0.252917  0  3.802498  0  0  0.245303  0  4.060909  0  0  0.254255  0  4.078732  0  0  0.07601  0.239079  0  4.048725  0
C  C45  1  0.18920736  0.85227492  0.84909096  1  0  0.252539  0  3.803054  0  0  0.24513  0  4.06131  0  0  0.254066  0  4.079131  0  0  0.075914  0.23891  0  4.049119  0
C  C46  1  0.68920392  0.64768379  0.34909070  1  0  0.252522  0  3.803192  0  0  0.244935  0  4.061613  0  0  0.253865  0  4.079445  0  0  0.075875  0.238715  0  4.04942  0
C  C47  1  0.81078234  0.14774487  0.15090729  1  0  0.252582  0  3.803329  0  0  0.245147  0  4.061578  0  0  0.25405  0  4.079405  0  0  0.075927  0.238925  0  4.049384  0
C  C48  1  0.30313569  0.20743585  0.68730049  1  0  -0.174471  0  3.765266  0  0  -0.196868  0  4.023969  0  0  -0.201022  0  4.044051  0  0  -0.10943  -0.194009  0  4.010675  0
C  C49  1  0.19685321  0.70739684  0.81269416  1  0  -0.1742  0  3.764793  0  0  -0.196702  0  4.023365  0  0  -0.200879  0  4.043472  0  0  -0.109219  -0.193842  0  4.010064  0
C  C50  1  0.69684287  0.79253788  0.31270126  1  0  -0.174355  0  3.765303  0  0  -0.196775  0  4.024023  0  0  -0.200928  0  4.044106  0  0  -0.109409  -0.193943  0  4.010776  0
C  C51  1  0.80312530  0.29263661  0.18729810  1  0  -0.174096  0  3.764305  0  0  -0.196423  0  4.022947  0  0  -0.200587  0  4.043039  0  0  -0.109141  -0.193593  0  4.009712  0
C  C52  1  0.12588230  0.24298759  0.71834536  1  0  -0.165911  0  3.779586  0  0  -0.191923  0  4.041036  0  0  -0.194242  0  4.059743  0  0  -0.104742  -0.190302  0  4.028666  0
C  C53  1  0.37408717  0.74297290  0.78164891  1  0  -0.165729  0  3.779544  0  0  -0.191741  0  4.041085  0  0  -0.194062  0  4.059788  0  0  -0.104719  -0.190099  0  4.028731  0
C  C54  1  0.87409625  0.75700320  0.28165410  1  0  -0.165732  0  3.779329  0  0  -0.191738  0  4.040824  0  0  -0.194061  0  4.059532  0  0  -0.10462  -0.190124  0  4.028447  0
C  C55  1  0.62588021  0.25705884  0.21834979  1  0  -0.165952  0  3.779103  0  0  -0.19194  0  4.040698  0  0  -0.194258  0  4.059404  0  0  -0.104823  -0.190337  0  4.028312  0
C  C56  1  0.95942894  0.42214433  0.71235371  1  0  0.278893  0  3.800138  0  0  0.262548  0  4.088402  0  0  0.27113  0  4.099703  0  0  0.081017  0.25646  0  4.080767  0
C  C57  1  0.54057194  0.92215423  0.78764287  1  0  0.27883  0  3.799477  0  0  0.262402  0  4.087875  0  0  0.270983  0  4.099175  0  0  0.080981  0.256314  0  4.080237  0
C  C58  1  0.04057193  0.57784134  0.28764596  1  0  0.278912  0  3.799931  0  0  0.2625  0  4.088297  0  0  0.271082  0  4.099604  0  0  0.081023  0.256413  0  4.080658  0
C  C59  1  0.45941962  0.07786727  0.21235540  1  0  0.278931  0  3.799736  0  0  0.262547  0  4.088084  0  0  0.271127  0  4.099381  0  0  0.081104  0.256459  0  4.080446  0
C  C60  1  0.96298897  0.56814838  0.67647531  1  0  -0.155904  0  3.772665  0  0  -0.182979  0  4.03558  0  0  -0.184616  0  4.052984  0  0  -0.098046  -0.181863  0  4.02417  0
C  C61  1  0.53701093  0.06816678  0.82352907  1  0  -0.155832  0  3.772434  0  0  -0.182891  0  4.035353  0  0  -0.184528  0  4.052752  0  0  -0.097915  -0.181784  0  4.023964  0
C  C62  1  0.03702122  0.43182364  0.32352641  1  0  -0.155851  0  3.772261  0  0  -0.182917  0  4.035226  0  0  -0.184544  0  4.052603  0  0  -0.098002  -0.181806  0  4.023825  0
C  C63  1  0.46298438  0.93185813  0.17647349  1  0  -0.155778  0  3.772445  0  0  -0.182864  0  4.035351  0  0  -0.184503  0  4.052751  0  0  -0.097901  -0.181758  0  4.023967  0
C  C64  1  0.13985963  0.53217878  0.64554662  1  0  -0.161854  0  3.742829  0  0  -0.185167  0  4.003008  0  0  -0.188181  0  4.020056  0  0  -0.097425  -0.18312  0  3.991873  0
C  C65  1  0.36010186  0.03214710  0.85445298  1  0  -0.161809  0  3.743273  0  0  -0.185157  0  4.003381  0  0  -0.188173  0  4.020442  0  0  -0.097473  -0.183107  0  3.992234  0
C  C66  1  0.86010589  0.46781371  0.35445239  1  0  -0.161825  0  3.742884  0  0  -0.185123  0  4.003049  0  0  -0.18815  0  4.0201  0  0  -0.097377  -0.183071  0  3.991903  0
C  C67  1  0.63991389  0.96786416  0.14554519  1  0  -0.16195  0  3.743189  0  0  -0.185282  0  4.003297  0  0  -0.188305  0  4.020358  0  0  -0.097567  -0.18323  0  3.992143  0
C  C68  1  0.62191468  0.12191615  0.62075826  1  0  -0.068444  0  3.642973  0  0  -0.127678  0  3.912917  0  0  -0.124367  0  3.9141  0  0  -0.065103  -0.130009  0  3.911948  0
C  C69  1  0.87809977  0.62183632  0.87923828  1  0  -0.068572  0  3.642434  0  0  -0.128018  0  3.91269  0  0  -0.124712  0  3.913857  0  0  -0.065191  -0.130364  0  3.91176  0
C  C70  1  0.37808435  0.87807805  0.37924467  1  0  -0.068637  0  3.643228  0  0  -0.127759  0  3.913158  0  0  -0.124475  0  3.914345  0  0  -0.065064  -0.130088  0  3.912187  0
C  C71  1  0.12190482  0.37816470  0.12075979  1  0  -0.06878  0  3.642933  0  0  -0.128039  0  3.91302  0  0  -0.124774  0  3.914188  0  0  -0.065196  -0.130365  0  3.912053  0
C  C72  1  0.77823540  0.09278246  0.58108104  1  0  0.698553  0  3.875359  0  0  0.645595  0  4.184409  0  0  0.677767  0  4.176864  0  0  0.216367  0.623788  0  4.18879  0
C  C73  1  0.72181169  0.59270179  0.91891799  1  0  0.698502  0  3.874788  0  0  0.645733  0  4.183551  0  0  0.677903  0  4.176009  0  0  0.216434  0.623926  0  4.187933  0
C  C74  1  0.22178782  0.90721856  0.41892244  1  0  0.698586  0  3.875045  0  0  0.645484  0  4.184311  0  0  0.67766  0  4.176763  0  0  0.216303  0.623674  0  4.188689  0
C  C75  1  0.27821522  0.40727194  0.08108062  1  0  0.698552  0  3.875157  0  0  0.64563  0  4.184147  0  0  0.677795  0  4.176609  0  0  0.216373  0.623819  0  4.188525  0
O  O76  1  0.73088857  0.65995329  0.48112674  1  0  -0.919649  0  1.804301  0  0  -0.882716  0  1.980093  0  0  -0.898271  0  1.948421  0  0  -0.701797  -0.871652  0  2.002812  0
O  O77  1  0.76911107  0.15994219  0.01887110  1  0  -0.919626  0  1.804383  0  0  -0.882696  0  1.980159  0  0  -0.898254  0  1.948487  0  0  -0.701841  -0.871628  0  2.00288  0
O  O78  1  0.26911415  0.34006139  0.51887098  1  0  -0.919665  0  1.804298  0  0  -0.882739  0  1.980125  0  0  -0.898294  0  1.948452  0  0  -0.701868  -0.87167  0  2.00285  0
O  O79  1  0.23090468  0.84004689  0.98112674  1  0  -0.919778  0  1.804162  0  0  -0.882861  0  1.979887  0  0  -0.898418  0  1.948214  0  0  -0.701898  -0.871795  0  2.002602  0
O  O80  1  0.27708631  0.87707295  0.53157825  1  0  -0.866891  0  1.816849  0  0  -0.80801  0  1.977915  0  0  -0.827863  0  1.946677  0  0  -0.631675  -0.793785  0  1.999992  0
O  O81  1  0.22292802  0.37704148  0.96841827  1  0  -0.866582  0  1.817089  0  0  -0.807814  0  1.978159  0  0  -0.82766  0  1.946954  0  0  -0.631593  -0.793603  0  2.000206  0
O  O82  1  0.72292202  0.12294855  0.46842280  1  0  -0.866816  0  1.817049  0  0  -0.807919  0  1.978104  0  0  -0.827787  0  1.946842  0  0  -0.631551  -0.793695  0  2.000179  0
O  O83  1  0.77709517  0.62293566  0.03157932  1  0  -0.866987  0  1.816843  0  0  -0.808058  0  1.977899  0  0  -0.827941  0  1.946604  0  0  -0.631673  -0.793831  0  1.999977  0
O  O84  1  0.48006554  0.32837261  0.61890496  1  0  -0.302237  0  2.364129  0  0  -0.23459  0  2.604333  0  0  -0.250437  0  2.605666  0  0  -0.203581  -0.223361  0  2.602995  0
O  O85  1  0.01993994  0.82832499  0.88109522  1  0  -0.301885  0  2.363781  0  0  -0.234426  0  2.60408  0  0  -0.250232  0  2.605394  0  0  -0.203484  -0.22319  0  2.602743  0
O  O86  1  0.51993163  0.67162160  0.38109762  1  0  -0.302025  0  2.364179  0  0  -0.234446  0  2.604384  0  0  -0.250252  0  2.605705  0  0  -0.203594  -0.223216  0  2.603042  0
O  O87  1  0.98005906  0.17168968  0.11890214  1  0  -0.301765  0  2.363831  0  0  -0.234361  0  2.604132  0  0  -0.250089  0  2.605413  0  0  -0.203447  -0.223124  0  2.602785  0
O  O88  1  0.81074712  0.26049524  0.55580264  1  0  -0.696422  0  2.012335  0  0  -0.6323  0  2.237598  0  0  -0.656555  0  2.225848  0  0  -0.380114  -0.615307  0  2.245276  0
O  O89  1  0.68929932  0.76043012  0.94420160  1  0  -0.696604  0  2.011908  0  0  -0.63244  0  2.236944  0  0  -0.656674  0  2.22514  0  0  -0.380261  -0.615446  0  2.244611  0
O  O90  1  0.18926495  0.73952626  0.44420237  1  0  -0.696474  0  2.012367  0  0  -0.632257  0  2.237602  0  0  -0.656505  0  2.225833  0  0  -0.380183  -0.615266  0  2.24528  0
O  O91  1  0.31072388  0.23955214  0.05579959  1  0  -0.696435  0  2.012201  0  0  -0.632275  0  2.237315  0  0  -0.65653  0  2.225555  0  0  -0.380206  -0.615276  0  2.244989  0
O  O92  1  0.86786087  0.89375755  0.57731357  1  0  -0.683871  0  1.957909  0  0  -0.629491  0  2.191544  0  0  -0.654882  0  2.180495  0  0  -0.362836  -0.611632  0  2.198594  0
O  O93  1  0.63219129  0.39366674  0.92268502  1  0  -0.683794  0  1.957898  0  0  -0.629498  0  2.191447  0  0  -0.654888  0  2.180397  0  0  -0.362822  -0.611641  0  2.198493  0
O  O94  1  0.13215490  0.10627419  0.42268787  1  0  -0.683842  0  1.957579  0  0  -0.629419  0  2.191279  0  0  -0.654818  0  2.180232  0  0  -0.362727  -0.611557  0  2.198328  0
O  O95  1  0.36783377  0.60630698  0.07731455  1  0  -0.68389  0  1.957999  0  0  -0.629533  0  2.191658  0  0  -0.654925  0  2.180602  0  0  -0.362818  -0.611669  0  2.198706  0
F  F96  1  0.78650100  0.45628166  0.74305327  1  0  -0.226037  0  1.228223  0  0  -0.164511  0  1.391349  0  0  -0.174385  0  1.382981  0  0  -0.101602  -0.1573  0  1.396982  0
F  F97  1  0.71345062  0.95631754  0.75693838  1  0  -0.226088  0  1.228351  0  0  -0.164501  0  1.391481  0  0  -0.174374  0  1.383112  0  0  -0.101613  -0.157291  0  1.397121  0
F  F98  1  0.21346637  0.54370230  0.25694378  1  0  -0.226079  0  1.228377  0  0  -0.164479  0  1.391487  0  0  -0.174355  0  1.383119  0  0  -0.101595  -0.157264  0  1.397125  0
F  F99  1  0.28654465  0.04369201  0.24305697  1  0  -0.226058  0  1.228419  0  0  -0.164506  0  1.391561  0  0  -0.174379  0  1.383191  0  0  -0.101628  -0.157293  0  1.397199  0
