# generated using pymatgen
data_Ag2PH14C6S(NO2)3
_symmetry_space_group_name_H-M   'P 1'
_cell_length_a   7.00315766
_cell_length_b   10.17326311
_cell_length_c   16.65970000
_cell_angle_alpha   90.00000000
_cell_angle_beta   90.00000000
_cell_angle_gamma   90.00000000
_symmetry_Int_Tables_number   1
_chemical_formula_structural   Ag2PH14C6S(NO2)3
_chemical_formula_sum   'Ag8 P4 H56 C24 S4 N12 O24'
_cell_volume   1186.91975213
_cell_formula_units_Z   4
loop_
 _symmetry_equiv_pos_site_id
 _symmetry_equiv_pos_as_xyz
  1  'x, y, z'
loop_
 _atom_site_type_symbol
 _atom_site_label
 _atom_site_symmetry_multiplicity
 _atom_site_fract_x
 _atom_site_fract_y
 _atom_site_fract_z
 _atom_site_occupancy
 _atom_site_hle17_bader_spin_density
 _atom_site_hle17_ddec_charge
 _atom_site_hle17_ddec_spin_density
 _atom_site_hle17_ddec_sum_bond_order
 _atom_site_hle17_magmom
 _atom_site_hse06_10hf_bader_spin_density
 _atom_site_hse06_10hf_ddec_charge
 _atom_site_hse06_10hf_ddec_spin_density
 _atom_site_hse06_10hf_ddec_sum_bond_order
 _atom_site_hse06_10hf_magmom
 _atom_site_hse06_bader_spin_density
 _atom_site_hse06_ddec_charge
 _atom_site_hse06_ddec_spin_density
 _atom_site_hse06_ddec_sum_bond_order
 _atom_site_hse06_magmom
 _atom_site_pbe_bader_charge
 _atom_site_pbe_bader_spin_density
 _atom_site_pbe_cm5_charge
 _atom_site_pbe_ddec_charge
 _atom_site_pbe_ddec_spin_density
 _atom_site_pbe_ddec_sum_bond_order
 _atom_site_pbe_magmom
Ag  Ag0  1  0.60113455  0.01475043  0.27981716  1  0  0.616765  0  1.189881  0  0  0.491708  0  1.561562  0  0  0.522644  0  1.520373  0  0.621542  0  0.473469  0.470573  0  1.59019  0
Ag  Ag1  1  0.10113581  0.98525025  0.72018344  1  0  0.616793  0  1.189873  0  0  0.491694  0  1.561598  0  0  0.522626  0  1.520413  0  0.62153  0  0.473474  0.470576  0  1.590219  0
Ag  Ag2  1  0.10113295  0.51474929  0.22018284  1  0  0.616726  0  1.189903  0  0  0.491691  0  1.561551  0  0  0.522627  0  1.520363  0  0.621539  0  0.473486  0.470571  0  1.590164  0
Ag  Ag3  1  0.60113597  0.48525040  0.77981716  1  0  0.616729  0  1.189893  0  0  0.491666  0  1.561573  0  0  0.522599  0  1.520387  0  0.621536  0  0.473457  0.470543  0  1.590196  0
Ag  Ag4  1  0.39429785  0.23827261  0.93483136  1  0  0.65448  0  1.183731  0  0  0.532966  0  1.579713  0  0  0.564801  0  1.532029  0  0.635802  0  0.454041  0.509445  0  1.613611  0
Ag  Ag5  1  0.89429659  0.76172610  0.06516804  1  0  0.654483  0  1.183761  0  0  0.532996  0  1.579727  0  0  0.564832  0  1.532042  0  0.635795  0  0.454044  0.509472  0  1.613621  0
Ag  Ag6  1  0.89430087  0.73826951  0.56516684  1  0  0.654463  0  1.183795  0  0  0.532984  0  1.579726  0  0  0.564821  0  1.532041  0  0.635809  0  0.454046  0.509464  0  1.613627  0
Ag  Ag7  1  0.39429642  0.26172625  0.43483316  1  0  0.654478  0  1.1838  0  0  0.532976  0  1.579765  0  0  0.564812  0  1.532084  0  0.635789  0  0.454043  0.509454  0  1.613658  0
P  P8  1  0.00323997  0.05858592  0.14855069  1  0  0.996606  0  4.287396  0  0  0.906936  0  4.724998  0  0  0.936684  0  4.714139  0  2.590922  0  0.216667  0.885722  0  4.733309  0
P  P9  1  0.50324156  0.94141377  0.85144871  1  0  0.996611  0  4.287327  0  0  0.906927  0  4.724937  0  0  0.936674  0  4.714077  0  2.590937  0  0.216675  0.885709  0  4.733256  0
P  P10  1  0.50324156  0.55858774  0.35144931  1  0  0.996663  0  4.287285  0  0  0.906929  0  4.724996  0  0  0.936683  0  4.714128  0  2.590902  0  0.216672  0.885703  0  4.733332  0
P  P11  1  0.00324139  0.44141294  0.64855129  1  0  0.996627  0  4.28728  0  0  0.906912  0  4.724974  0  0  0.936658  0  4.714107  0  2.590887  0  0.216664  0.885696  0  4.733286  0
H  H12  1  0.16931791  0.00409112  0.27209013  1  0  0.136904  0  0.954036  0  0  0.149007  0  1.014508  0  0  0.151296  0  1.013573  0  0.134895  0  0.117279  0.147114  0  1.015587  0
H  H13  1  0.66931950  0.99590956  0.72790927  1  0  0.136854  0  0.954047  0  0  0.148965  0  1.014519  0  0  0.151254  0  1.013585  0  0.134884  0  0.117268  0.147073  0  1.015598  0
H  H14  1  0.66931807  0.50409293  0.22790927  1  0  0.136872  0  0.954045  0  0  0.148986  0  1.0145  0  0  0.151276  0  1.013566  0  0.134885  0  0.117256  0.147095  0  1.015577  0
H  H15  1  0.16931791  0.49590873  0.77209013  1  0  0.136905  0  0.954034  0  0  0.149008  0  1.014507  0  0  0.151297  0  1.013573  0  0.134897  0  0.11727  0.147115  0  1.015584  0
H  H16  1  0.25961575  0.91458954  0.18744395  1  0  0.14112  0  0.979122  0  0  0.148269  0  1.046428  0  0  0.150974  0  1.045402  0  0.151133  0  0.116043  0.14631  0  1.047285  0
H  H17  1  0.75961734  0.08541114  0.81255545  1  0  0.141082  0  0.979123  0  0  0.148241  0  1.04643  0  0  0.150947  0  1.045403  0  0.151122  0  0.116035  0.1463  0  1.04727  0
H  H18  1  0.75961591  0.41459067  0.31255545  1  0  0.141096  0  0.979103  0  0  0.148242  0  1.046411  0  0  0.150947  0  1.045387  0  0.151162  0  0.116019  0.146275  0  1.047281  0
H  H19  1  0.25961717  0.58541000  0.68744455  1  0  0.141079  0  0.979127  0  0  0.148224  0  1.046438  0  0  0.150931  0  1.045411  0  0.151131  0  0.116007  0.146257  0  1.04731  0
H  H20  1  0.86136858  0.27669195  0.14305780  1  0  0.134006  0  0.932308  0  0  0.148441  0  0.990035  0  0  0.150516  0  0.989267  0  0.103176  0  0.119234  0.146619  0  0.991168  0
H  H21  1  0.36137270  0.72330676  0.85694040  1  0  0.133996  0  0.932375  0  0  0.148424  0  0.990087  0  0  0.150498  0  0.989321  0  0.103186  0  0.119229  0.146602  0  0.991217  0
H  H22  1  0.36137127  0.77669475  0.35694220  1  0  0.133995  0  0.932301  0  0  0.148431  0  0.99001  0  0  0.150507  0  0.98924  0  0.103176  0  0.119235  0.146609  0  0.991142  0
H  H23  1  0.86137287  0.22330593  0.64306020  1  0  0.13401  0  0.932343  0  0  0.148439  0  0.990058  0  0  0.150512  0  0.989292  0  0.103193  0  0.119244  0.146618  0  0.991188  0
H  H24  1  0.91694780  0.22844784  0.24390715  1  0  0.131352  0  0.964155  0  0  0.137864  0  1.037057  0  0  0.140673  0  1.034982  0  0.139996  0  0.116122  0.135591  0  1.039  0
H  H25  1  0.41695477  0.77155284  0.75609105  1  0  0.131334  0  0.964128  0  0  0.137822  0  1.03706  0  0  0.140631  0  1.034983  0  0.140052  0  0.11609  0.13555  0  1.038998  0
H  H26  1  0.41695049  0.72844867  0.25609285  1  0  0.13132  0  0.964196  0  0  0.137841  0  1.037071  0  0  0.14065  0  1.034996  0  0.140007  0  0.11613  0.135568  0  1.039013  0
H  H27  1  0.91695494  0.27155299  0.74390955  1  0  0.131313  0  0.964168  0  0  0.13781  0  1.037088  0  0  0.140618  0  1.035012  0  0.140079  0  0.116088  0.135537  0  1.03903  0
H  H28  1  0.17292914  0.98665688  0.02997413  1  0  0.12594  0  0.923788  0  0  0.138332  0  0.988815  0  0  0.140804  0  0.98649  0  0.081073  0  0.117913  0.13635  0  0.990845  0
H  H29  1  0.67292930  0.01334184  0.97002647  1  0  0.125873  0  0.923897  0  0  0.138332  0  0.988833  0  0  0.140805  0  0.986508  0  0.080852  0  0.117907  0.136346  0  0.990874  0
H  H30  1  0.67293073  0.48665801  0.47002587  1  0  0.125959  0  0.923775  0  0  0.138359  0  0.988788  0  0  0.14083  0  0.986464  0  0.080847  0  0.117921  0.136377  0  0.99082  0
H  H31  1  0.17292914  0.51334070  0.52997293  1  0  0.125855  0  0.923903  0  0  0.138337  0  0.988825  0  0  0.140808  0  0.986499  0  0.080764  0  0.117921  0.136353  0  0.990859  0
H  H32  1  0.01836457  0.12129736  0.00713518  1  0  0.142154  0  0.972909  0  0  0.151347  0  1.035275  0  0  0.153976  0  1.034415  0  0.15561  0  0.117938  0.149301  0  1.036115  0
H  H33  1  0.51836331  0.87870036  0.99286362  1  0  0.14218  0  0.972897  0  0  0.151372  0  1.035268  0  0  0.153999  0  1.034409  0  0.155514  0  0.117942  0.149326  0  1.036106  0
H  H34  1  0.51836617  0.62129819  0.49286542  1  0  0.142149  0  0.972963  0  0  0.151352  0  1.035312  0  0  0.15398  0  1.034451  0  0.155542  0  0.117941  0.149314  0  1.036142  0
H  H35  1  0.01836457  0.37869855  0.50713578  1  0  0.142165  0  0.972881  0  0  0.151373  0  1.035235  0  0  0.153999  0  1.034375  0  0.15552  0  0.117945  0.149328  0  1.036074  0
H  H36  1  0.55252504  0.18661171  0.11291260  1  0  0.079034  0  0.917923  0  0  0.092519  0  0.985271  0  0  0.09287  0  0.984176  0  0.092737  0  0.120745  0.092247  0  0.986105  0
H  H37  1  0.05252631  0.81338897  0.88708740  1  0  0.079027  0  0.917946  0  0  0.092486  0  0.985317  0  0  0.092836  0  0.984227  0  0.092738  0  0.120736  0.092217  0  0.986145  0
H  H38  1  0.05252631  0.68661155  0.38708740  1  0  0.079021  0  0.917946  0  0  0.092505  0  0.985295  0  0  0.09285  0  0.984197  0  0.092721  0  0.12073  0.092235  0  0.986126  0
H  H39  1  0.55252647  0.31338814  0.61291260  1  0  0.07902  0  0.917941  0  0  0.092509  0  0.985283  0  0  0.09285  0  0.984183  0  0.092724  0  0.120734  0.092237  0  0.986117  0
H  H40  1  0.47161154  0.02236451  0.09457073  1  0  0.100902  0  0.945048  0  0  0.113799  0  1.008812  0  0  0.114313  0  1.009034  0  0.14735  0  0.12402  0.113401  0  1.008642  0
H  H41  1  0.97161028  0.97763617  0.90542927  1  0  0.100937  0  0.945006  0  0  0.113817  0  1.008776  0  0  0.114331  0  1.008999  0  0.147344  0  0.124019  0.11342  0  1.008605  0
H  H42  1  0.97161171  0.52236435  0.40542807  1  0  0.100949  0  0.945031  0  0  0.113854  0  1.00877  0  0  0.114363  0  1.008989  0  0.147358  0  0.124031  0.113456  0  1.008598  0
H  H43  1  0.47161012  0.47763534  0.59457013  1  0  0.100962  0  0.945011  0  0  0.113842  0  1.008778  0  0  0.114347  0  1.008996  0  0.147341  0  0.124023  0.113445  0  1.008607  0
H  H44  1  0.10202541  0.34085425  0.05364322  1  0  0.094295  0  0.936002  0  0  0.108037  0  0.997798  0  0  0.108766  0  0.997083  0  0.114419  0  0.123532  0.107156  0  0.998609  0
H  H45  1  0.60202843  0.65914446  0.94635618  1  0  0.094293  0  0.936038  0  0  0.108037  0  0.997844  0  0  0.108768  0  0.997129  0  0.114454  0  0.123533  0.107159  0  0.998656  0
H  H46  1  0.60202986  0.84085607  0.44635738  1  0  0.094279  0  0.936047  0  0  0.10802  0  0.997862  0  0  0.10875  0  0.997146  0  0.114445  0  0.123527  0.107142  0  0.998672  0
H  H47  1  0.10202826  0.15914265  0.55364562  1  0  0.094289  0  0.936041  0  0  0.108064  0  0.997817  0  0  0.108795  0  0.997101  0  0.11448  0  0.123542  0.107182  0  0.998627  0
H  H48  1  0.33929409  0.37282728  0.08886655  1  0  0.09163  0  0.961062  0  0  0.099939  0  1.031462  0  0  0.10158  0  1.029179  0  0.143332  0  0.118804  0.098127  0  1.034022  0
H  H49  1  0.83929711  0.62717242  0.91113345  1  0  0.09163  0  0.961069  0  0  0.099934  0  1.031491  0  0  0.101577  0  1.029207  0  0.143217  0  0.118801  0.098125  0  1.034051  0
H  H50  1  0.83929711  0.87282713  0.41113345  1  0  0.091627  0  0.961071  0  0  0.099936  0  1.03149  0  0  0.101577  0  1.029206  0  0.143216  0  0.118803  0.098126  0  1.03405  0
H  H51  1  0.33929837  0.12717060  0.58886775  1  0  0.091617  0  0.961058  0  0  0.099922  0  1.031495  0  0  0.101565  0  1.029207  0  0.14314  0  0.118795  0.098109  0  1.034054  0
H  H52  1  0.24539645  0.23365463  0.28843437  1  0  0.090793  0  0.935876  0  0  0.10314  0  1.004308  0  0  0.104198  0  1.002518  0  0.118067  0  0.120211  0.102055  0  1.006032  0
H  H53  1  0.74539947  0.76634507  0.71156443  1  0  0.090848  0  0.935828  0  0  0.103132  0  1.004313  0  0  0.104189  0  1.002535  0  0.118031  0  0.120209  0.102053  0  1.006039  0
H  H54  1  0.74539947  0.73365644  0.21156503  1  0  0.090809  0  0.935911  0  0  0.103152  0  1.004342  0  0  0.104213  0  1.002553  0  0.118057  0  0.120205  0.102068  0  1.006067  0
H  H55  1  0.24540216  0.26634719  0.78843557  1  0  0.090777  0  0.935936  0  0  0.103138  0  1.004367  0  0  0.104198  0  1.002581  0  0.11805  0  0.120198  0.102052  0  1.00609  0
H  H56  1  0.42480409  0.30662237  0.22655330  1  0  0.087314  0  0.909636  0  0  0.103655  0  0.968928  0  0  0.103668  0  0.968921  0  0.086754  0  0.124707  0.103257  0  0.969451  0
H  H57  1  0.92480854  0.69337831  0.77344610  1  0  0.08732  0  0.909548  0  0  0.103664  0  0.968853  0  0  0.103682  0  0.968842  0  0.086723  0  0.124706  0.103267  0  0.969375  0
H  H58  1  0.92480711  0.80662320  0.27344730  1  0  0.087299  0  0.909597  0  0  0.103647  0  0.968891  0  0  0.103664  0  0.968882  0  0.08672  0  0.124696  0.103249  0  0.969415  0
H  H59  1  0.42480837  0.19337945  0.72655450  1  0  0.087298  0  0.909632  0  0  0.103644  0  0.968951  0  0  0.10366  0  0.968946  0  0.08673  0  0.124704  0.103247  0  0.969472  0
H  H60  1  0.15812724  0.45735276  0.89809480  1  0  0.406683  0  0.909372  0  0  0.377828  0  0.971247  0  0  0.388156  0  0.956195  0  0.618137  0  0.276436  0.370563  0  0.981826  0
H  H61  1  0.65812598  0.54264693  0.10190520  1  0  0.406691  0  0.909355  0  0  0.377834  0  0.971235  0  0  0.388163  0  0.956181  0  0.618133  0  0.276447  0.37057  0  0.981813  0
H  H62  1  0.65812741  0.95735064  0.60190520  1  0  0.406687  0  0.909393  0  0  0.377824  0  0.971281  0  0  0.388154  0  0.956226  0  0.618138  0  0.27645  0.370559  0  0.981859  0
H  H63  1  0.15812439  0.04264807  0.39809480  1  0  0.406701  0  0.909369  0  0  0.377813  0  0.971293  0  0  0.388141  0  0.95624  0  0.618066  0  0.276455  0.370547  0  0.981873  0
H  H64  1  0.30634324  0.53384346  0.95187849  1  0  0.422399  0  0.879564  0  0  0.397097  0  0.934667  0  0  0.406818  0  0.920589  0  0.642909  0  0.282289  0.390186  0  0.944692  0
H  H65  1  0.80634198  0.46615623  0.04812151  1  0  0.422392  0  0.879575  0  0  0.397086  0  0.934683  0  0  0.406808  0  0.920604  0  0.642908  0  0.282284  0.390176  0  0.944707  0
H  H66  1  0.80634341  0.03384263  0.54812212  1  0  0.422394  0  0.879563  0  0  0.397095  0  0.934663  0  0  0.406816  0  0.920585  0  0.64292  0  0.282288  0.390185  0  0.944687  0
H  H67  1  0.30634038  0.96615805  0.45187849  1  0  0.422406  0  0.879557  0  0  0.397103  0  0.93466  0  0  0.406823  0  0.920584  0  0.642904  0  0.282304  0.390193  0  0.944684  0
C  C68  1  0.20851594  0.01053349  0.20851576  1  0  -0.315565  0  3.585411  0  0  -0.350769  0  3.82324  0  0  -0.354265  0  3.832375  0  -0.352548  0  -0.091353  -0.348182  0  3.817325  0
C  C69  1  0.70851753  0.98946718  0.79148364  1  0  -0.315434  0  3.585298  0  0  -0.350663  0  3.823164  0  0  -0.354159  0  3.832299  0  -0.352546  0  -0.091339  -0.348091  0  3.817236  0
C  C70  1  0.70851611  0.51053531  0.29148364  1  0  -0.315586  0  3.585485  0  0  -0.350772  0  3.823305  0  0  -0.354272  0  3.832447  0  -0.352544  0  -0.091299  -0.348179  0  3.817399  0
C  C71  1  0.20851737  0.48946635  0.70851576  1  0  -0.315591  0  3.585455  0  0  -0.350783  0  3.823286  0  0  -0.354284  0  3.832427  0  -0.35255  0  -0.091317  -0.34819  0  3.817381  0
C  C72  1  0.96714087  0.22762018  0.18147266  1  0  -0.298377  0  3.584078  0  0  -0.336587  0  3.828582  0  0  -0.339478  0  3.837483  0  -0.281856  0  -0.081651  -0.334612  0  3.823726  0
C  C73  1  0.46714356  0.77237853  0.81852614  1  0  -0.298368  0  3.584074  0  0  -0.336513  0  3.828492  0  0  -0.339402  0  3.837387  0  -0.281968  0  -0.081619  -0.334526  0  3.823617  0
C  C74  1  0.46714356  0.72762101  0.31852734  1  0  -0.298356  0  3.584067  0  0  -0.336537  0  3.828514  0  0  -0.339432  0  3.83742  0  -0.281899  0  -0.081656  -0.334558  0  3.82365  0
C  C75  1  0.96714373  0.27237868  0.68147446  1  0  -0.298358  0  3.584059  0  0  -0.336516  0  3.828475  0  0  -0.339406  0  3.837374  0  -0.282012  0  -0.081621  -0.334538  0  3.823616  0
C  C76  1  0.11861078  0.08174663  0.05168400  1  0  -0.304807  0  3.593238  0  0  -0.342163  0  3.836417  0  0  -0.345159  0  3.845827  0  -0.325584  0  -0.084671  -0.339823  0  3.830248  0
C  C77  1  0.61860952  0.91825306  0.94831540  1  0  -0.304797  0  3.593291  0  0  -0.342191  0  3.836518  0  0  -0.345185  0  3.845923  0  -0.325241  0  -0.084669  -0.339853  0  3.830345  0
C  C78  1  0.61861238  0.58174746  0.44831600  1  0  -0.304824  0  3.593185  0  0  -0.342205  0  3.836462  0  0  -0.345198  0  3.845868  0  -0.325245  0  -0.084696  -0.339871  0  3.830285  0
C  C79  1  0.11860935  0.41825125  0.55168340  1  0  -0.304684  0  3.593133  0  0  -0.342139  0  3.836389  0  0  -0.345123  0  3.84578  0  -0.325102  0  -0.084674  -0.339798  0  3.830217  0
C  C80  1  0.42893223  0.12042056  0.11476077  1  0  0.050003  0  3.609603  0  0  -0.026708  0  3.871618  0  0  -0.018235  0  3.882223  0  0.489571  0  0.014027  -0.032285  0  3.863914  0
C  C81  1  0.92893239  0.87958012  0.88523863  1  0  0.049968  0  3.609625  0  0  -0.026692  0  3.87166  0  0  -0.018212  0  3.882246  0  0.489571  0  0.014035  -0.03227  0  3.863955  0
C  C82  1  0.92893382  0.62042139  0.38523863  1  0  0.04993  0  3.609667  0  0  -0.02675  0  3.871681  0  0  -0.018245  0  3.882236  0  0.489555  0  0.014034  -0.032327  0  3.863976  0
C  C83  1  0.42893365  0.37957929  0.61476077  1  0  0.049965  0  3.609667  0  0  -0.026713  0  3.871672  0  0  -0.018185  0  3.882195  0  0.489565  0  0.01405  -0.032292  0  3.863969  0
C  C84  1  0.21852857  0.30454240  0.09150945  1  0  0.029728  0  3.616226  0  0  -0.044352  0  3.873499  0  0  -0.036265  0  3.883588  0  0.490518  0  0.00262  -0.04954  0  3.866479  0
C  C85  1  0.71853159  0.69545729  0.90848995  1  0  0.029765  0  3.616198  0  0  -0.044305  0  3.873489  0  0  -0.036228  0  3.88359  0  0.490597  0  0.002629  -0.049509  0  3.866491  0
C  C86  1  0.71853159  0.80454323  0.40848995  1  0  0.029778  0  3.616225  0  0  -0.044315  0  3.873561  0  0  -0.036232  0  3.883655  0  0.490599  0  0.002631  -0.049511  0  3.866551  0
C  C87  1  0.21853142  0.19545646  0.59151125  1  0  0.029796  0  3.616204  0  0  -0.044316  0  3.873489  0  0  -0.036232  0  3.883586  0  0.490529  0  0.002634  -0.049499  0  3.866462  0
C  C88  1  0.30080431  0.24094039  0.22701729  1  0  0.063653  0  3.594646  0  0  -0.010484  0  3.850234  0  0  -0.001777  0  3.860794  0  0.53237  0  0.01699  -0.016074  0  3.842955  0
C  C89  1  0.80080733  0.75905930  0.77298211  1  0  0.063565  0  3.594563  0  0  -0.010523  0  3.850139  0  0  -0.00183  0  3.860714  0  0.53222  0  0.016964  -0.016123  0  3.842872  0
C  C90  1  0.80080733  0.74094122  0.27298271  1  0  0.063612  0  3.594596  0  0  -0.010523  0  3.850174  0  0  -0.00183  0  3.860754  0  0.532387  0  0.016988  -0.016111  0  3.842894  0
C  C91  1  0.30080859  0.25905946  0.72701789  1  0  0.063656  0  3.594618  0  0  -0.010533  0  3.85026  0  0  -0.001847  0  3.860856  0  0.532186  0  0.016963  -0.016126  0  3.842991  0
S  S92  1  0.84615259  0.18883911  0.40413453  1  0  1.519804  0  5.886318  0  0  1.402963  0  6.409117  0  0  1.457322  0  6.377712  0  3.756261  0  0.533963  1.365151  0  6.42885  0
S  S93  1  0.34615385  0.81116058  0.59586547  1  0  1.519795  0  5.886275  0  0  1.402952  0  6.409067  0  0  1.457313  0  6.377662  0  3.756333  0  0.533968  1.365139  0  6.428793  0
S  S94  1  0.34615385  0.68883700  0.09586547  1  0  1.519776  0  5.886306  0  0  1.402945  0  6.409095  0  0  1.457304  0  6.37769  0  3.756268  0  0.53401  1.365133  0  6.42883  0
S  S95  1  0.84615545  0.31116172  0.90413453  1  0  1.519828  0  5.886211  0  0  1.402986  0  6.409005  0  0  1.457346  0  6.377599  0  3.756267  0  0.533994  1.365174  0  6.428733  0
N  N96  1  0.36334467  0.11032252  0.19891535  1  0  -0.201371  0  3.253685  0  0  -0.102889  0  3.494976  0  0  -0.122324  0  3.516081  0  -0.964553  0  -0.338651  -0.08936  0  3.480185  0
N  N97  1  0.86334626  0.88967816  0.80108405  1  0  -0.201426  0  3.253713  0  0  -0.102927  0  3.494975  0  0  -0.122358  0  3.516082  0  -0.964367  0  -0.338669  -0.089399  0  3.480187  0
N  N98  1  0.86334626  0.61032236  0.30108465  1  0  -0.201308  0  3.253732  0  0  -0.102842  0  3.49502  0  0  -0.12228  0  3.516124  0  -0.964577  0  -0.338674  -0.089314  0  3.480227  0
N  N99  1  0.36334752  0.38967831  0.69891535  1  0  -0.20137  0  3.253683  0  0  -0.102875  0  3.494972  0  0  -0.12232  0  3.516072  0  -0.964341  0  -0.338679  -0.089346  0  3.480176  0
N  N100  1  0.28159297  0.17499203  0.06043266  1  0  -0.209304  0  3.273392  0  0  -0.108384  0  3.518102  0  0  -0.128609  0  3.539596  0  -0.956282  0  -0.339595  -0.093982  0  3.502292  0
N  N101  1  0.78159457  0.82500766  0.93956674  1  0  -0.209295  0  3.273358  0  0  -0.108445  0  3.518151  0  0  -0.128669  0  3.539647  0  -0.956251  0  -0.339582  -0.094037  0  3.502343  0
N  N102  1  0.78159600  0.67499286  0.43956674  1  0  -0.209285  0  3.273402  0  0  -0.108419  0  3.518154  0  0  -0.128651  0  3.539643  0  -0.956285  0  -0.339566  -0.094011  0  3.502345  0
N  N103  1  0.28159440  0.32500585  0.56043326  1  0  -0.20932  0  3.273409  0  0  -0.108413  0  3.51816  0  0  -0.128654  0  3.539646  0  -0.956248  0  -0.339575  -0.09401  0  3.502348  0
N  N104  1  0.15138314  0.30029696  0.17563041  1  0  -0.197737  0  3.256788  0  0  -0.096384  0  3.494841  0  0  -0.116129  0  3.51636  0  -0.948106  0  -0.338725  -0.083287  0  3.479813  0
N  N105  1  0.65138759  0.69970273  0.82436899  1  0  -0.197746  0  3.256792  0  0  -0.096395  0  3.494833  0  0  -0.116136  0  3.516358  0  -0.948101  0  -0.338725  -0.083296  0  3.47981  0
N  N106  1  0.65138616  0.80029877  0.32436959  1  0  -0.197741  0  3.256748  0  0  -0.096385  0  3.494805  0  0  -0.116128  0  3.516329  0  -0.948065  0  -0.338734  -0.083284  0  3.479781  0
N  N107  1  0.15138742  0.19970190  0.67563221  1  0  -0.197795  0  3.256797  0  0  -0.09642  0  3.494872  0  0  -0.116164  0  3.516398  0  -0.947999  0  -0.338741  -0.083324  0  3.479846  0
O  O108  1  0.82875615  0.97114956  0.14974639  1  0  -0.731605  0  1.958923  0  0  -0.654858  0  2.233915  0  0  -0.680086  0  2.217658  0  -1.41356  0  -0.34892  -0.63733  0  2.245379  0
O  O109  1  0.32875741  0.02884817  0.85025301  1  0  -0.731566  0  1.958873  0  0  -0.654804  0  2.233852  0  0  -0.68003  0  2.217591  0  -1.413541  0  -0.348907  -0.637279  0  2.245315  0
O  O110  1  0.32875599  0.47115070  0.35025301  1  0  -0.731579  0  1.958812  0  0  -0.654818  0  2.233809  0  0  -0.680044  0  2.217549  0  -1.41351  0  -0.348913  -0.637292  0  2.245273  0
O  O111  1  0.82875758  0.52884801  0.64974699  1  0  -0.731564  0  1.958849  0  0  -0.654803  0  2.233829  0  0  -0.68003  0  2.21757  0  -1.413523  0  -0.348893  -0.637277  0  2.245293  0
O  O112  1  0.29791561  0.46642557  0.90875826  1  0  -0.856207  0  1.857847  0  0  -0.79609  0  2.06016  0  0  -0.818304  0  2.025507  0  -1.252982  0  -0.601703  -0.779736  0  2.084283  0
O  O113  1  0.79791578  0.53357413  0.09124174  1  0  -0.856208  0  1.857826  0  0  -0.796097  0  2.060148  0  0  -0.818313  0  2.02549  0  -1.25298  0  -0.60171  -0.779745  0  2.084269  0
O  O114  1  0.79791578  0.96642345  0.59124174  1  0  -0.856204  0  1.857856  0  0  -0.796078  0  2.060149  0  0  -0.818293  0  2.025489  0  -1.252986  0  -0.601705  -0.779724  0  2.084271  0
O  O115  1  0.29791276  0.03357526  0.40875826  1  0  -0.856246  0  1.857842  0  0  -0.796102  0  2.060193  0  0  -0.81832  0  2.025548  0  -1.252958  0  -0.601742  -0.779747  0  2.084318  0
O  O116  1  0.66310516  0.21487796  0.35764269  1  0  -0.772701  0  2.090816  0  0  -0.688459  0  2.384541  0  0  -0.716681  0  2.364818  0  -1.297644  0  -0.383831  -0.6678  0  2.396948  0
O  O117  1  0.16310642  0.78512174  0.64235911  1  0  -0.772678  0  2.090683  0  0  -0.688409  0  2.384387  0  0  -0.716626  0  2.364649  0  -1.297722  0  -0.383816  -0.667778  0  2.396861  0
O  O118  1  0.16310928  0.71487584  0.14235851  1  0  -0.772636  0  2.090774  0  0  -0.688407  0  2.384508  0  0  -0.716624  0  2.364772  0  -1.297695  0  -0.383812  -0.667753  0  2.39692  0
O  O119  1  0.66311087  0.28512189  0.85764089  1  0  -0.772638  0  2.090677  0  0  -0.688393  0  2.384406  0  0  -0.71661  0  2.364669  0  -1.297694  0  -0.38378  -0.667753  0  2.396859  0
O  O120  1  0.92865537  0.06325109  0.37209374  1  0  -0.754289  0  1.987649  0  0  -0.685313  0  2.233432  0  0  -0.708703  0  2.216504  0  -1.352324  0  -0.366872  -0.668289  0  2.244663  0
O  O121  1  0.42865664  0.93674860  0.62790687  1  0  -0.754281  0  1.987609  0  0  -0.685322  0  2.233407  0  0  -0.70871  0  2.216469  0  -1.352383  0  -0.366893  -0.668297  0  2.244638  0
O  O122  1  0.42865949  0.56324897  0.12790506  1  0  -0.754269  0  1.987632  0  0  -0.685295  0  2.233377  0  0  -0.708699  0  2.216481  0  -1.35243  0  -0.366907  -0.668274  0  2.24461  0
O  O123  1  0.92865823  0.43675170  0.87209494  1  0  -0.754321  0  1.987639  0  0  -0.685344  0  2.233403  0  0  -0.708739  0  2.216483  0  -1.352425  0  -0.366908  -0.668322  0  2.244636  0
O  O124  1  0.80024330  0.17654021  0.49115410  1  0  -0.751792  0  1.943695  0  0  -0.696008  0  2.194936  0  0  -0.717568  0  2.176447  0  -1.358199  0  -0.371325  -0.680578  0  2.207336  0
O  O125  1  0.30024171  0.82346047  0.50884650  1  0  -0.751778  0  1.943702  0  0  -0.69599  0  2.194942  0  0  -0.71755  0  2.176454  0  -1.35818  0  -0.371313  -0.680556  0  2.207342  0
O  O126  1  0.30024171  0.67654104  0.00884590  1  0  -0.751803  0  1.943705  0  0  -0.696019  0  2.194934  0  0  -0.717576  0  2.176444  0  -1.358193  0  -0.371339  -0.680588  0  2.207335  0
O  O127  1  0.80024044  0.32345865  0.99115350  1  0  -0.751777  0  1.943672  0  0  -0.695986  0  2.194912  0  0  -0.717543  0  2.176416  0  -1.358185  0  -0.371341  -0.680555  0  2.207311  0
O  O128  1  0.98109743  0.29851386  0.38969669  1  0  -0.721809  0  1.94543  0  0  -0.664408  0  2.206061  0  0  -0.686485  0  2.189274  0  -1.342901  0  -0.359751  -0.648298  0  2.217089  0
O  O129  1  0.48109869  0.70148584  0.61030211  1  0  -0.721827  0  1.94546  0  0  -0.664419  0  2.206076  0  0  -0.686497  0  2.18929  0  -1.342867  0  -0.359772  -0.648308  0  2.217108  0
O  O130  1  0.48110012  0.79851370  0.11030211  1  0  -0.721824  0  1.945401  0  0  -0.664429  0  2.206034  0  0  -0.686506  0  2.18925  0  -1.342787  0  -0.359783  -0.648316  0  2.217061  0
O  O131  1  0.98110314  0.20148796  0.88969789  1  0  -0.721836  0  1.945441  0  0  -0.664441  0  2.206094  0  0  -0.68652  0  2.189308  0  -1.342809  0  -0.359764  -0.648326  0  2.217119  0
