# generated using pymatgen
data_ZnH9C13N3O4
_symmetry_space_group_name_H-M   'P 1'
_cell_length_a   8.55560144
_cell_length_b   8.94101893
_cell_length_c   9.06574467
_cell_angle_alpha   113.85756976
_cell_angle_beta   100.08130150
_cell_angle_gamma   98.43951948
_symmetry_Int_Tables_number   1
_chemical_formula_structural   ZnH9C13N3O4
_chemical_formula_sum   'Zn2 H18 C26 N6 O8'
_cell_volume   605.94069061
_cell_formula_units_Z   2
loop_
 _symmetry_equiv_pos_site_id
 _symmetry_equiv_pos_as_xyz
  1  'x, y, z'
loop_
 _atom_site_type_symbol
 _atom_site_label
 _atom_site_symmetry_multiplicity
 _atom_site_fract_x
 _atom_site_fract_y
 _atom_site_fract_z
 _atom_site_occupancy
 _atom_site_hle17_bader_spin_density
 _atom_site_hle17_ddec_charge
 _atom_site_hle17_ddec_spin_density
 _atom_site_hle17_ddec_sum_bond_order
 _atom_site_hle17_magmom
 _atom_site_hse06_10hf_bader_spin_density
 _atom_site_hse06_10hf_ddec_charge
 _atom_site_hse06_10hf_ddec_spin_density
 _atom_site_hse06_10hf_ddec_sum_bond_order
 _atom_site_hse06_10hf_magmom
 _atom_site_hse06_bader_spin_density
 _atom_site_hse06_ddec_charge
 _atom_site_hse06_ddec_spin_density
 _atom_site_hse06_ddec_sum_bond_order
 _atom_site_hse06_magmom
 _atom_site_pbe_bader_spin_density
 _atom_site_pbe_cm5_charge
 _atom_site_pbe_ddec_charge
 _atom_site_pbe_ddec_spin_density
 _atom_site_pbe_ddec_sum_bond_order
 _atom_site_pbe_magmom
Zn  Zn0  1  0.22975581  0.75321838  0.76654553  1  0  0.997789  0  1.868498  0  0  0.813318  0  2.334496  0  0  0.859054  0  2.28194  0  0  0.69906  0.781243  0  2.370984  0
Zn  Zn1  1  0.77024451  0.24678175  0.23345666  1  0  0.997786  0  1.868534  0  0  0.813311  0  2.334534  0  0  0.85905  0  2.281974  0  0  0.699051  0.781238  0  2.371019  0
H  H2  1  0.21341005  0.15321271  0.23295858  1  0  0.298661  0  0.935276  0  0  0.27862  0  1.001741  0  0  0.287493  0  0.994822  0  0  0.302491  0.272221  0  1.006841  0
H  H3  1  0.78659029  0.84678745  0.76704031  1  0  0.298687  0  0.935208  0  0  0.278636  0  1.001698  0  0  0.287512  0  0.994772  0  0  0.302484  0.272236  0  1.006797  0
H  H4  1  0.39629853  0.58898154  0.93949729  1  0  0.072277  0  0.94576  0  0  0.083263  0  1.008556  0  0  0.085336  0  1.006805  0  0  0.115722  0.081584  0  1.010057  0
H  H5  1  0.60370003  0.41101607  0.06050247  1  0  0.072281  0  0.945744  0  0  0.08331  0  1.008497  0  0  0.085382  0  1.006743  0  0  0.115722  0.081629  0  1.010001  0
H  H6  1  0.45792894  0.59149214  0.22106853  1  0  0.097516  0  0.974435  0  0  0.105542  0  1.040174  0  0  0.107524  0  1.041651  0  0  0.100767  0.104221  0  1.039097  0
H  H7  1  0.54206991  0.40850672  0.77893289  1  0  0.097484  0  0.974477  0  0  0.105544  0  1.040169  0  0  0.107526  0  1.041647  0  0  0.100765  0.104224  0  1.039092  0
H  H8  1  0.39337960  0.82310213  0.45769433  1  0  0.098037  0  0.95001  0  0  0.108719  0  1.010285  0  0  0.110603  0  1.009062  0  0  0.107697  0.10707  0  1.011585  0
H  H9  1  0.60662102  0.17689928  0.54230622  1  0  0.098031  0  0.950013  0  0  0.108708  0  1.010289  0  0  0.110593  0  1.009064  0  0  0.107687  0.107057  0  1.011584  0
H  H10  1  0.28064670  0.04447285  0.40378254  1  0  0.120482  0  0.95663  0  0  0.12991  0  1.016672  0  0  0.133154  0  1.016562  0  0  0.111787  0.127299  0  1.017778  0
H  H11  1  0.71935364  0.95552730  0.59621745  1  0  0.120474  0  0.956659  0  0  0.129896  0  1.016704  0  0  0.133141  0  1.016593  0  0  0.111783  0.127285  0  1.01781  0
H  H12  1  0.13878747  0.33269781  0.14332389  1  0  0.129297  0  0.963082  0  0  0.136837  0  1.024654  0  0  0.14031  0  1.024169  0  0  0.110157  0.134071  0  1.025925  0
H  H13  1  0.86121168  0.66730234  0.85667480  1  0  0.129286  0  0.963089  0  0  0.13683  0  1.024656  0  0  0.140303  0  1.024173  0  0  0.110154  0.134063  0  1.025929  0
H  H14  1  0.08393089  0.41649612  0.91087148  1  0  0.101359  0  0.948166  0  0  0.113256  0  1.005234  0  0  0.116093  0  1.002631  0  0  0.108249  0.11121  0  1.006988  0
H  H15  1  0.91606945  0.58350404  0.08912741  1  0  0.101331  0  0.948171  0  0  0.113234  0  1.005241  0  0  0.116075  0  1.002627  0  0  0.108238  0.111188  0  1.006994  0
H  H16  1  0.10774065  0.22440593  0.62821453  1  0  0.118711  0  0.966079  0  0  0.123803  0  1.033622  0  0  0.127081  0  1.033074  0  0  0.105846  0.121238  0  1.03472  0
H  H17  1  0.89225969  0.77559422  0.37178546  1  0  0.118738  0  0.966056  0  0  0.123832  0  1.033595  0  0  0.127104  0  1.033063  0  0  0.105852  0.121266  0  1.034694  0
H  H18  1  0.17223393  0.94780851  0.58790696  1  0  0.082701  0  0.976063  0  0  0.09192  0  1.040494  0  0  0.094173  0  1.038502  0  0  0.116054  0.090553  0  1.041626  0
H  H19  1  0.82776402  0.05219161  0.41209372  1  0  0.082681  0  0.976012  0  0  0.091901  0  1.040428  0  0  0.094153  0  1.038434  0  0  0.116041  0.090533  0  1.04156  0
C  C20  1  0.37373676  0.68751249  0.04723291  1  0  0.144724  0  3.736978  0  0  0.111991  0  3.988001  0  0  0.120728  0  4.006282  0  0  0.042629  0.106713  0  3.974905  0
C  C21  1  0.62626356  0.31248764  0.95276928  1  0  0.144734  0  3.736937  0  0  0.111962  0  3.987963  0  0  0.120703  0  4.006241  0  0  0.042611  0.106684  0  3.974866  0
C  C22  1  0.40769352  0.68943456  0.20268152  1  0  -0.156603  0  3.770794  0  0  -0.171181  0  4.027316  0  0  -0.181347  0  4.051885  0  0  -0.100077  -0.164355  0  4.0102  0
C  C23  1  0.59230414  0.31056429  0.79731970  1  0  -0.156563  0  3.770712  0  0  -0.171175  0  4.027238  0  0  -0.18134  0  4.051804  0  0  -0.100032  -0.164348  0  4.010121  0
C  C24  1  0.37215186  0.81895605  0.33408272  1  0  0.025671  0  3.740362  0  0  0.004918  0  3.991998  0  0  0.01216  0  4.008956  0  0  -0.06594  0.000725  0  3.980194  0
C  C25  1  0.62784728  0.18104409  0.66591707  1  0  0.025678  0  3.740258  0  0  0.004932  0  3.991895  0  0  0.012175  0  4.008852  0  0  -0.065954  0.000744  0  3.980086  0
C  C26  1  0.30854793  0.94078950  0.30508678  1  0  -0.214925  0  3.686911  0  0  -0.230021  0  3.939039  0  0  -0.24121  0  3.958839  0  0  -0.088069  -0.223298  0  3.926508  0
C  C27  1  0.69145240  0.05921065  0.69491321  1  0  -0.214942  0  3.686877  0  0  -0.230048  0  3.938969  0  0  -0.241238  0  3.958769  0  0  -0.088064  -0.223323  0  3.92644  0
C  C28  1  0.27794874  0.93110874  0.14273492  1  0  0.435908  0  3.775068  0  0  0.403954  0  4.034673  0  0  0.423387  0  4.048891  0  0  0.234512  0.391031  0  4.02494  0
C  C29  1  0.72205159  0.06889141  0.85726507  1  0  0.435972  0  3.774928  0  0  0.40408  0  4.034435  0  0  0.423514  0  4.048652  0  0  0.234534  0.391149  0  4.024715  0
C  C30  1  0.18831793  0.09584507  0.98770591  1  0  0.437056  0  3.759934  0  0  0.403257  0  4.02468  0  0  0.423181  0  4.038269  0  0  0.232408  0.390485  0  4.014704  0
C  C31  1  0.81168122  0.90415507  0.01229387  1  0  0.436962  0  3.759922  0  0  0.403172  0  4.024664  0  0  0.423094  0  4.038255  0  0  0.232381  0.390401  0  4.014687  0
C  C32  1  0.14813152  0.25204404  0.01902780  1  0  -0.218025  0  3.673174  0  0  -0.234368  0  3.929463  0  0  -0.245697  0  3.949488  0  0  -0.093229  -0.227481  0  3.916747  0
C  C33  1  0.85186911  0.74795738  0.98097165  1  0  -0.217974  0  3.673198  0  0  -0.234329  0  3.929503  0  0  -0.245659  0  3.94953  0  0  -0.093205  -0.227442  0  3.916787  0
C  C34  1  0.11742454  0.29813965  0.89062959  1  0  0.019571  0  3.737712  0  0  -0.001157  0  3.988995  0  0  0.00543  0  4.006247  0  0  -0.0681  -0.004716  0  3.976849  0
C  C35  1  0.88257847  0.70186179  0.10937027  1  0  0.019613  0  3.737742  0  0  -0.00112  0  3.989025  0  0  0.005469  0  4.006276  0  0  -0.068093  -0.004679  0  3.976877  0
C  C36  1  0.12918422  0.19090166  0.73156216  1  0  -0.14884  0  3.75104  0  0  -0.164438  0  4.009854  0  0  -0.173908  0  4.032886  0  0  -0.098586  -0.158574  0  3.994638  0
C  C37  1  0.87081612  0.80909850  0.26843673  1  0  -0.148908  0  3.751116  0  0  -0.164508  0  4.009932  0  0  -0.173981  0  4.032963  0  0  -0.098596  -0.158643  0  3.994716  0
C  C38  1  0.16710534  0.03975564  0.70919710  1  0  0.128772  0  3.726974  0  0  0.098915  0  3.972957  0  0  0.106941  0  3.992004  0  0  0.036635  0.093975  0  3.959709  0
C  C39  1  0.83289471  0.96024326  0.29080124  1  0  0.12879  0  3.726965  0  0  0.098939  0  3.972942  0  0  0.106966  0  3.991986  0  0  0.036639  0.093997  0  3.959696  0
C  C40  1  0.47156298  0.59345147  0.59795211  1  0  0.189314  0  3.852498  0  0  0.168066  0  4.129402  0  0  0.181177  0  4.141418  0  0  0.093008  0.159274  0  4.121024  0
C  C41  1  0.52843526  0.40654991  0.40204913  1  0  0.189332  0  3.852421  0  0  0.168111  0  4.129291  0  0  0.18122  0  4.141307  0  0  0.093011  0.15932  0  4.120913  0
C  C42  1  0.38258709  0.42193383  0.46856635  1  0  0.174438  0  3.897317  0  0  0.155202  0  4.176863  0  0  0.16695  0  4.189951  0  0  0.08995  0.147432  0  4.16751  0
C  C43  1  0.61741353  0.57806758  0.53143419  1  0  0.174347  0  3.897358  0  0  0.155106  0  4.176907  0  0  0.166856  0  4.189994  0  0  0.089927  0.147337  0  4.167551  0
C  C44  1  0.02254268  0.53692720  0.44048649  1  0  0.541876  0  3.936605  0  0  0.490184  0  4.238409  0  0  0.52117  0  4.229498  0  0  0.203655  0.469059  0  4.243956  0
C  C45  1  0.97745855  0.46307169  0.55951424  1  0  0.541881  0  3.93665  0  0  0.490183  0  4.238462  0  0  0.521168  0  4.229551  0  0  0.203652  0.469058  0  4.244007  0
N  N46  1  0.30866567  0.80400595  0.01598127  1  0  -0.421355  0  3.226751  0  0  -0.341934  0  3.496445  0  0  -0.363068  0  3.507747  0  0  -0.340324  -0.327609  0  3.488333  0
N  N47  1  0.69133437  0.19599293  0.98401926  1  0  -0.421415  0  3.226762  0  0  -0.342007  0  3.496436  0  0  -0.363142  0  3.507737  0  0  -0.340322  -0.327679  0  3.488327  0
N  N48  1  0.21470889  0.05550853  0.11995623  1  0  -0.461512  0  3.358787  0  0  -0.404565  0  3.601317  0  0  -0.427563  0  3.609579  0  0  -0.391517  -0.388521  0  3.594542  0
N  N49  1  0.78529264  0.94449163  0.88004396  1  0  -0.461521  0  3.358652  0  0  -0.40461  0  3.601176  0  0  -0.427613  0  3.609441  0  0  -0.39153  -0.388563  0  3.594406  0
N  N50  1  0.19538857  0.99057876  0.83299010  1  0  -0.428302  0  3.225839  0  0  -0.346818  0  3.503785  0  0  -0.36825  0  3.513376  0  0  -0.343631  -0.332382  0  3.497064  0
N  N51  1  0.80461057  0.00942138  0.16701078  1  0  -0.428259  0  3.225839  0  0  -0.346765  0  3.503767  0  0  -0.36819  0  3.513352  0  0  -0.343617  -0.332329  0  3.497045  0
O  O52  1  0.44575261  0.71174131  0.72060726  1  0  -0.504858  0  2.180469  0  0  -0.441193  0  2.451216  0  0  -0.463926  0  2.442995  0  0  -0.308807  -0.425452  0  2.457071  0
O  O53  1  0.55424653  0.28825882  0.27939363  1  0  -0.504905  0  2.180402  0  0  -0.441265  0  2.451166  0  0  -0.464003  0  2.44295  0  0  -0.308845  -0.425524  0  2.457017  0
O  O54  1  0.24378411  0.32546987  0.42876770  1  0  -0.488911  0  2.055005  0  0  -0.4408  0  2.27194  0  0  -0.461201  0  2.2711  0  0  -0.301472  -0.426662  0  2.272975  0
O  O55  1  0.75621651  0.67453153  0.57123395  1  0  -0.488883  0  2.055077  0  0  -0.440748  0  2.271984  0  0  -0.461149  0  2.271144  0  0  -0.301439  -0.42661  0  2.273018  0
O  O56  1  0.13198930  0.67249402  0.50326084  1  0  -0.583476  0  2.0875  0  0  -0.522382  0  2.344027  0  0  -0.547651  0  2.334071  0  0  -0.302649  -0.504995  0  2.350618  0
O  O57  1  0.86801194  0.32750488  0.49673880  1  0  -0.583469  0  2.087546  0  0  -0.522367  0  2.344071  0  0  -0.547637  0  2.334112  0  0  -0.30264  -0.504979  0  2.350658  0
O  O58  1  0.94582262  0.45613159  0.28669117  1  0  -0.58729  0  2.085188  0  0  -0.522769  0  2.352356  0  0  -0.548078  0  2.339251  0  0  -0.308205  -0.505314  0  2.360931  0
O  O59  1  0.05417742  0.54386729  0.71330936  1  0  -0.587313  0  2.085206  0  0  -0.522791  0  2.352381  0  0  -0.548098  0  2.339275  0  0  -0.308217  -0.505336  0  2.360956  0
