# generated using pymatgen
data_SmH28C24N3O11
_symmetry_space_group_name_H-M   'P 1'
_cell_length_a   9.76348557
_cell_length_b   10.83126190
_cell_length_c   13.07390000
_cell_angle_alpha   101.39221635
_cell_angle_beta   93.09027536
_cell_angle_gamma   104.58290121
_symmetry_Int_Tables_number   1
_chemical_formula_structural   SmH28C24N3O11
_chemical_formula_sum   'Sm2 H56 C48 N6 O22'
_cell_volume   1303.82326421
_cell_formula_units_Z   2
loop_
 _symmetry_equiv_pos_site_id
 _symmetry_equiv_pos_as_xyz
  1  'x, y, z'
loop_
 _atom_site_type_symbol
 _atom_site_label
 _atom_site_symmetry_multiplicity
 _atom_site_fract_x
 _atom_site_fract_y
 _atom_site_fract_z
 _atom_site_occupancy
 _atom_site_hle17_bader_spin_density
 _atom_site_hle17_ddec_charge
 _atom_site_hle17_ddec_spin_density
 _atom_site_hle17_ddec_sum_bond_order
 _atom_site_hle17_magmom
 _atom_site_hse06_10hf_bader_spin_density
 _atom_site_hse06_10hf_ddec_charge
 _atom_site_hse06_10hf_ddec_spin_density
 _atom_site_hse06_10hf_ddec_sum_bond_order
 _atom_site_hse06_10hf_magmom
 _atom_site_hse06_bader_spin_density
 _atom_site_hse06_ddec_charge
 _atom_site_hse06_ddec_spin_density
 _atom_site_hse06_ddec_sum_bond_order
 _atom_site_hse06_magmom
 _atom_site_pbe_bader_charge
 _atom_site_pbe_bader_spin_density
 _atom_site_pbe_cm5_charge
 _atom_site_pbe_ddec_charge
 _atom_site_pbe_ddec_spin_density
 _atom_site_pbe_ddec_sum_bond_order
 _atom_site_pbe_magmom
Sm  Sm0  1  0.23851003  0.01472748  0.99796286  1  0  2.345535  0  1.634737  0  0  2.256806  0  1.994543  0  0  2.299769  0  1.947914  0  2.252379  0  1.5054  2.224866  0  2.028473  0
Sm  Sm1  1  0.76149251  0.98527481  0.00203602  1  0  2.345571  0  1.63457  0  0  2.256841  0  1.994359  0  0  2.299805  0  1.947724  0  2.252438  0  1.505465  2.224901  0  2.028289  0
H  H2  1  0.72421343  0.00750207  0.73309991  1  0  0.118877  0  0.95061  0  0  0.125104  0  1.014819  0  0  0.129141  0  1.011002  0  0.144734  0  0.115482  0.12253  0  1.017061  0
H  H3  1  0.27579686  0.99250218  0.26690036  1  0  0.118871  0  0.950689  0  0  0.125125  0  1.01486  0  0  0.129161  0  1.011044  0  0.144859  0  0.115497  0.122549  0  1.017108  0
H  H4  1  0.79318894  0.07256694  0.56299893  1  0  0.098967  0  0.970711  0  0  0.113491  0  1.025701  0  0  0.116386  0  1.025963  0  0.069804  0  0.101732  0.110801  0  1.026863  0
H  H5  1  0.20682044  0.92744122  0.43700194  1  0  0.099034  0  0.970743  0  0  0.113577  0  1.025694  0  0  0.116465  0  1.025965  0  0.069735  0  0.101771  0.110886  0  1.026856  0
H  H6  1  0.64097440  0.18716658  0.47741327  1  0  0.060106  0  0.943723  0  0  0.072057  0  1.005688  0  0  0.073924  0  1.004128  0  0.058819  0  0.108262  0.07091  0  1.006515  0
H  H7  1  0.35903088  0.81284158  0.52258897  1  0  0.060059  0  0.943594  0  0  0.071981  0  1.005612  0  0  0.073848  0  1.00405  0  0.058893  0  0.108233  0.070834  0  1.006442  0
H  H8  1  0.86491330  0.26822003  0.78720662  1  0  0.095081  0  0.95929  0  0  0.10674  0  1.021408  0  0  0.108805  0  1.020335  0  0.092878  0  0.108223  0.105017  0  1.022604  0
H  H9  1  0.13508542  0.73178324  0.21279149  1  0  0.09503  0  0.959248  0  0  0.106695  0  1.021371  0  0  0.108757  0  1.020302  0  0.09289  0  0.108226  0.104973  0  1.022566  0
H  H10  1  0.10146614  0.66655610  0.79895977  1  0  0.077469  0  0.969705  0  0  0.085476  0  1.035776  0  0  0.087622  0  1.034206  0  0.11023  0  0.114585  0.083879  0  1.036945  0
H  H11  1  0.89852848  0.33344717  0.20104353  1  0  0.077412  0  0.969692  0  0  0.085416  0  1.035781  0  0  0.087557  0  1.034215  0  0.11016  0  0.11456  0.083821  0  1.036947  0
H  H12  1  0.30001662  0.66020661  0.08871044  1  0  0.056096  0  0.935192  0  0  0.069666  0  1.001731  0  0  0.069271  0  1.001895  0  0.060217  0  0.10537  0.069775  0  1.001787  0
H  H13  1  0.69999134  0.33979666  0.91129340  1  0  0.056141  0  0.935204  0  0  0.069748  0  1.001708  0  0  0.069351  0  1.001877  0  0.060187  0  0.105409  0.069853  0  1.001774  0
H  H14  1  0.42878077  0.61985244  0.00698800  1  0  0.062414  0  0.940497  0  0  0.077318  0  1.002584  0  0  0.077599  0  1.00202  0  0.073362  0  0.105953  0.076941  0  1.003248  0
H  H15  1  0.57121687  0.38014008  0.99301061  1  0  0.062457  0  0.940504  0  0  0.077406  0  1.002553  0  0  0.077686  0  1.001992  0  0.073269  0  0.105946  0.077029  0  1.003217  0
H  H16  1  0.89404839  0.47382015  0.71670917  1  0  0.102039  0  0.951874  0  0  0.114489  0  1.007895  0  0  0.117208  0  1.008372  0  0.069512  0  0.102886  0.112515  0  1.007713  0
H  H17  1  0.10595033  0.52618312  0.28329124  1  0  0.102019  0  0.951873  0  0  0.114387  0  1.00799  0  0  0.117162  0  1.008411  0  0.069781  0  0.102852  0.112415  0  1.007803  0
H  H18  1  0.37636411  0.54165846  0.21927812  1  0  0.103294  0  0.945119  0  0  0.125788  0  1.003767  0  0  0.126914  0  1.004202  0  0.023698  0  0.08806  0.124993  0  1.003324  0
H  H19  1  0.62364185  0.45833797  0.78072299  1  0  0.103209  0  0.945081  0  0  0.125719  0  1.003722  0  0  0.126845  0  1.004153  0  0.02369  0  0.088024  0.124921  0  1.003281  0
H  H20  1  0.52452874  0.66117737  0.19218356  1  0  0.119931  0  0.96988  0  0  0.138679  0  1.032471  0  0  0.139765  0  1.033246  0  0.078858  0  0.096765  0.137841  0  1.031957  0
H  H21  1  0.47547533  0.33881613  0.80781546  1  0  0.1199  0  0.969935  0  0  0.138664  0  1.032501  0  0  0.139739  0  1.033289  0  0.078829  0  0.096757  0.137813  0  1.032002  0
H  H22  1  0.49998442  0.49311594  0.13551376  1  0  0.10734  0  0.972169  0  0  0.125847  0  1.037937  0  0  0.127562  0  1.037447  0  0.046596  0  0.089198  0.124477  0  1.038469  0
H  H23  1  0.50001658  0.50687756  0.86448591  1  0  0.107282  0  0.972244  0  0  0.125755  0  1.038047  0  0  0.127472  0  1.037553  0  0.046684  0  0.089137  0.124389  0  1.038574  0
H  H24  1  0.87042932  0.31839513  0.49748892  1  0  0.097344  0  0.969066  0  0  0.105701  0  1.034109  0  0  0.108957  0  1.033498  0  0.061481  0  0.101262  0.103224  0  1.035126  0
H  H25  1  0.12956712  0.68160032  0.50251165  1  0  0.097328  0  0.969123  0  0  0.105708  0  1.034151  0  0  0.108966  0  1.033537  0  0.061501  0  0.101257  0.103228  0  1.035172  0
H  H26  1  0.84829381  0.17180660  0.31604286  1  0  0.114932  0  0.927442  0  0  0.127092  0  0.982373  0  0  0.130718  0  0.979001  0  0.114171  0  0.118786  0.124534  0  0.984253  0
H  H27  1  0.15170439  0.82818788  0.68395685  1  0  0.114934  0  0.927358  0  0  0.127088  0  0.98231  0  0  0.130714  0  0.978934  0  0.114228  0  0.118767  0.12453  0  0.984191  0
H  H28  1  0.45781283  0.33392717  0.45639422  1  0  0.055288  0  0.947917  0  0  0.063132  0  1.024017  0  0  0.064087  0  1.02198  0  0.086215  0  0.100131  0.062335  0  1.025598  0
H  H29  1  0.54218663  0.66607512  0.54360759  1  0  0.055299  0  0.947952  0  0  0.063173  0  1.024008  0  0  0.064125  0  1.021978  0  0.086039  0  0.100132  0.062377  0  1.025591  0
H  H30  1  0.46925717  0.47215433  0.39957505  1  0  0.052121  0  0.931306  0  0  0.064432  0  0.999561  0  0  0.064789  0  0.998489  0  0.080929  0  0.10138  0.064119  0  1.000316  0
H  H31  1  0.53074799  0.52784992  0.60042807  1  0  0.052153  0  0.931263  0  0  0.064476  0  0.999523  0  0  0.064835  0  0.998442  0  0.080844  0  0.101403  0.064163  0  1.00028  0
H  H32  1  0.11440062  0.44765871  0.58015291  1  0  0.058865  0  0.95379  0  0  0.065187  0  1.023356  0  0  0.067454  0  1.021891  0  0.075468  0  0.105209  0.063472  0  1.02458  0
H  H33  1  0.88559417  0.55234163  0.41984686  1  0  0.058851  0  0.953942  0  0  0.065118  0  1.023555  0  0  0.067395  0  1.022058  0  0.075474  0  0.105195  0.063407  0  1.024775  0
H  H34  1  0.56847800  0.22956198  0.30212389  1  0  0.113116  0  0.946872  0  0  0.132662  0  1.008027  0  0  0.133626  0  1.008921  0  0.071325  0  0.092033  0.131916  0  1.00721  0
H  H35  1  0.43150630  0.77043054  0.69787800  1  0  0.113111  0  0.946914  0  0  0.132689  0  1.008018  0  0  0.133653  0  1.008913  0  0.071277  0  0.09204  0.131949  0  1.007195  0
H  H36  1  0.68143098  0.38298880  0.37239511  1  0  0.100328  0  0.965726  0  0  0.121562  0  1.031862  0  0  0.121516  0  1.033274  0  0.037671  0  0.089217  0.121373  0  1.030709  0
H  H37  1  0.31856814  0.61700177  0.62760170  1  0  0.100399  0  0.965733  0  0  0.121608  0  1.031906  0  0  0.121568  0  1.033314  0  0.037621  0  0.089245  0.121418  0  1.030742  0
H  H38  1  0.58643747  0.37129088  0.24959655  1  0  0.109913  0  0.956342  0  0  0.129877  0  1.017212  0  0  0.131603  0  1.017221  0  0.059472  0  0.089409  0.128443  0  1.017491  0
H  H39  1  0.41355708  0.62870163  0.75040269  1  0  0.109932  0  0.95633  0  0  0.129892  0  1.017196  0  0  0.131621  0  1.017199  0  0.059439  0  0.089418  0.128457  0  1.017476  0
H  H40  1  0.25803948  0.29681666  0.68074083  1  0  0.048648  0  0.908952  0  0  0.067671  0  0.965764  0  0  0.067022  0  0.966346  0  0.040777  0  0.100091  0.068085  0  0.96521  0
H  H41  1  0.74196106  0.70317879  0.31925914  1  0  0.048647  0  0.908957  0  0  0.067637  0  0.965793  0  0  0.066988  0  0.966377  0  0.040743  0  0.100071  0.068054  0  0.965239  0
H  H42  1  0.26528093  0.18881285  0.56097276  1  0  0.052988  0  0.962646  0  0  0.061025  0  1.035918  0  0  0.061955  0  1.034765  0  0.082208  0  0.098702  0.06045  0  1.036542  0
H  H43  1  0.73471534  0.81118553  0.43902522  1  0  0.053011  0  0.962677  0  0  0.061041  0  1.035933  0  0  0.06197  0  1.03478  0  0.082256  0  0.098718  0.060462  0  1.036562  0
H  H44  1  0.05602513  0.02110434  0.59517893  1  0  0.096184  0  0.963132  0  0  0.117671  0  1.025732  0  0  0.118176  0  1.026995  0  0.03579  0  0.084713  0.117249  0  1.025009  0
H  H45  1  0.94397393  0.97889307  0.40482130  1  0  0.096193  0  0.96312  0  0  0.117675  0  1.025726  0  0  0.11818  0  1.02699  0  0.035816  0  0.084732  0.117254  0  1.025003  0
H  H46  1  0.01225149  0.17331112  0.61141943  1  0  0.090827  0  0.991489  0  0  0.110218  0  1.060771  0  0  0.109722  0  1.06363  0  0.01305  0  0.083786  0.10958  0  1.060635  0
H  H47  1  0.98774860  0.82668629  0.38858236  1  0  0.090808  0  0.991489  0  0  0.110185  0  1.060787  0  0  0.109682  0  1.063652  0  0.013011  0  0.08376  0.109552  0  1.060648  0
H  H48  1  0.05825531  0.11548535  0.72338597  1  0  0.121566  0  0.942984  0  0  0.142857  0  0.998438  0  0  0.143797  0  0.999592  0  0.062214  0  0.096402  0.142301  0  0.997396  0
H  H49  1  0.94174682  0.88451206  0.27661438  1  0  0.12154  0  0.942978  0  0  0.142856  0  0.998403  0  0  0.143798  0  0.999553  0  0.062215  0  0.09637  0.1423  0  0.997361  0
H  H50  1  0.42718244  0.83971569  0.91946798  1  0  0.438423  0  0.851823  0  0  0.408717  0  0.917686  0  0  0.418502  0  0.903103  0  0.651886  0  0.311137  0.401386  0  0.928694  0
H  H51  1  0.57281981  0.16028563  0.08052842  1  0  0.438464  0  0.851791  0  0  0.408755  0  0.917643  0  0  0.418539  0  0.903062  0  0.651931  0  0.311165  0.401423  0  0.928653  0
H  H52  1  0.28485372  0.73152125  0.93060247  1  0  0.409552  0  0.907783  0  0  0.371105  0  0.986161  0  0  0.382007  0  0.970392  0  0.653793  0  0.291658  0.363383  0  0.997369  0
H  H53  1  0.71514620  0.26847909  0.06939827  1  0  0.409524  0  0.90782  0  0  0.3711  0  0.986158  0  0  0.381999  0  0.970395  0  0.653822  0  0.291663  0.363378  0  0.997364  0
H  H54  1  0.34993701  0.25333124  0.15474058  1  0  0.43286  0  0.847475  0  0  0.401003  0  0.924994  0  0  0.410858  0  0.910446  0  0.638758  0  0.310718  0.393887  0  0.935517  0
H  H55  1  0.65006045  0.74666421  0.84525773  1  0  0.432939  0  0.84739  0  0  0.401063  0  0.924932  0  0  0.410914  0  0.910392  0  0.638729  0  0.310749  0.393945  0  0.935461  0
H  H56  1  0.32265482  0.29491035  0.04931496  1  0  0.434133  0  0.846298  0  0  0.401705  0  0.923149  0  0  0.412141  0  0.907663  0  0.633052  0  0.309647  0.394074  0  0.93451  0
H  H57  1  0.67734173  0.70508901  0.95068548  1  0  0.43414  0  0.846296  0  0  0.4017  0  0.92316  0  0  0.412139  0  0.907669  0  0.633135  0  0.309643  0.39407  0  0.93452  0
C  C58  1  0.50308055  0.04300151  0.83454607  1  0  0.740032  0  3.857944  0  0  0.691419  0  4.151825  0  0  0.727771  0  4.139885  0  1.600093  0  0.236365  0.666447  0  4.159757  0
C  C59  1  0.49693345  0.95699785  0.16545278  1  0  0.740058  0  3.858032  0  0  0.691434  0  4.15191  0  0  0.727786  0  4.139965  0  1.600296  0  0.236311  0.666464  0  4.159839  0
C  C60  1  0.53612117  0.07464042  0.73027268  1  0  -0.231749  0  3.684849  0  0  -0.212477  0  3.926646  0  0  -0.22845  0  3.947502  0  0.021565  0  -0.022972  -0.20198  0  3.912818  0
C  C61  1  0.46388502  0.92536383  0.26972513  1  0  -0.23171  0  3.684836  0  0  -0.212427  0  3.926673  0  0  -0.2284  0  3.947527  0  0.021627  0  -0.02296  -0.20193  0  3.912846  0
C  C62  1  0.45106271  0.12869853  0.66908466  1  0  0.425041  0  3.815162  0  0  0.38793  0  4.091615  0  0  0.409489  0  4.10116  0  1.10544  0  0.2203  0.372685  0  4.085066  0
C  C63  1  0.54894279  0.87129985  0.33091369  1  0  0.425063  0  3.814944  0  0  0.387898  0  4.091479  0  0  0.409455  0  4.101031  0  1.105295  0  0.220355  0.372651  0  4.084931  0
C  C64  1  0.65988767  0.05326920  0.68971258  1  0  0.010179  0  3.703219  0  0  -0.017631  0  3.954958  0  0  -0.009316  0  3.969622  0  -0.040171  0  -0.06281  -0.022637  0  3.94417  0
C  C65  1  0.34012160  0.94673505  0.31028688  1  0  0.010119  0  3.703505  0  0  -0.017711  0  3.95525  0  0  -0.009394  0  3.969909  0  -0.040511  0  -0.062873  -0.02272  0  3.944466  0
C  C66  1  0.69875834  0.09040904  0.59678221  1  0  -0.167622  0  3.787493  0  0  -0.185485  0  4.047779  0  0  -0.195179  0  4.069274  0  -0.067269  0  -0.108221  -0.179137  0  4.034249  0
C  C67  1  0.30125047  0.90959717  0.40321756  1  0  -0.167726  0  3.787672  0  0  -0.185611  0  4.047963  0  0  -0.195299  0  4.069459  0  -0.066719  0  -0.108266  -0.179259  0  4.034435  0
C  C68  1  0.61335952  0.15238959  0.54861864  1  0  0.147669  0  3.777479  0  0  0.119733  0  4.040364  0  0  0.129146  0  4.056704  0  0.497532  0  0.041936  0.11362  0  4.02887  0
C  C69  1  0.38664666  0.84761466  0.45138146  1  0  0.147811  0  3.777265  0  0  0.119909  0  4.040129  0  0  0.129325  0  4.056466  0  0.496928  0  0.041993  0.113793  0  4.028639  0
C  C70  1  0.16440721  0.46199124  0.93715994  1  0  0.433679  0  3.778803  0  0  0.391902  0  4.055574  0  0  0.41332  0  4.064993  0  1.082142  0  0.224681  0.377497  0  4.048978  0
C  C71  1  0.83558638  0.53801203  0.06284256  1  0  0.433663  0  3.778863  0  0  0.39193  0  4.055583  0  0  0.413351  0  4.064998  0  1.082966  0  0.224677  0.377525  0  4.048984  0
C  C72  1  0.02945928  0.22345689  0.93564563  1  0  0.748581  0  3.868141  0  0  0.698607  0  4.168763  0  0  0.735477  0  4.154638  0  1.62701  0  0.236187  0.673435  0  4.177816  0
C  C73  1  0.97052832  0.77654345  0.06435308  1  0  0.748379  0  3.868349  0  0  0.69836  0  4.169043  0  0  0.735232  0  4.154913  0  1.627051  0  0.236034  0.673185  0  4.178091  0
C  C74  1  0.05152792  0.34803584  0.89700868  1  0  -0.20294  0  3.674766  0  0  -0.183789  0  3.915862  0  0  -0.198084  0  3.934905  0  0.039281  0  -0.017688  -0.175051  0  3.903502  0
C  C75  1  0.94847052  0.65196646  0.10299156  1  0  -0.202832  0  3.674936  0  0  -0.183665  0  3.916002  0  0  -0.197964  0  3.935044  0  0.038936  0  -0.017615  -0.174923  0  3.903636  0
C  C76  1  0.95374845  0.35418980  0.81768143  1  0  0.001258  0  3.732664  0  0  -0.02748  0  3.982117  0  0  -0.019984  0  3.998882  0  -0.017731  0  -0.066127  -0.032067  0  3.970874  0
C  C77  1  0.04624691  0.64581249  0.18231792  1  0  0.001274  0  3.732752  0  0  -0.027477  0  3.982207  0  0  -0.019984  0  3.998994  0  -0.017734  0  -0.066195  -0.032063  0  3.970961  0
C  C78  1  0.08354563  0.57367179  0.82331804  1  0  0.148286  0  3.726217  0  0  0.117574  0  3.980297  0  0  0.12644  0  3.996997  0  0.488269  0  0.047387  0.111868  0  3.968751  0
C  C79  1  0.91644973  0.42633051  0.17668513  1  0  0.148407  0  3.726054  0  0  0.11771  0  3.980105  0  0  0.126574  0  3.996826  0  0.48837  0  0.047437  0.112002  0  3.968566  0
C  C80  1  0.35982587  0.58751846  0.06558333  1  0  0.147285  0  3.583163  0  0  0.090119  0  3.854294  0  0  0.099596  0  3.859843  0  0.368428  0  -0.065586  0.083776  0  3.850431  0
C  C81  1  0.64017524  0.41247895  0.93441927  1  0  0.147171  0  3.583196  0  0  0.0899  0  3.854468  0  0  0.099374  0  3.860021  0  0.368427  0  -0.065644  0.083556  0  3.850601  0
C  C82  1  0.96945934  0.46748729  0.77870622  1  0  -0.160698  0  3.779374  0  0  -0.176464  0  4.04053  0  0  -0.185329  0  4.061669  0  -0.079131  0  -0.102933  -0.170674  0  4.026068  0
C  C83  1  0.03053836  0.53251598  0.22129338  1  0  -0.16065  0  3.779246  0  0  -0.176336  0  4.04041  0  0  -0.185256  0  4.061533  0  -0.07932  0  -0.102854  -0.170549  0  4.025951  0
C  C84  1  0.44441483  0.56879847  0.15865446  1  0  -0.329341  0  3.693606  0  0  -0.406356  0  3.937816  0  0  -0.409726  0  3.947298  0  -0.071611  0  -0.25368  -0.40379  0  3.931222  0
C  C85  1  0.55558747  0.43119600  0.84134694  1  0  -0.329118  0  3.693625  0  0  -0.406113  0  3.937834  0  0  -0.409472  0  3.947325  0  -0.071547  0  -0.253549  -0.403537  0  3.931248  0
C  C86  1  0.05179874  0.13509592  0.19864868  1  0  0.737921  0  3.874731  0  0  0.688652  0  4.175234  0  0  0.724842  0  4.16277  0  1.622495  0  0.231814  0.664031  0  4.183199  0
C  C87  1  0.94818756  0.86490344  0.80134982  1  0  0.737894  0  3.874843  0  0  0.688631  0  4.175355  0  0  0.724819  0  4.162889  0  1.622602  0  0.23181  0.664005  0  4.183319  0
C  C88  1  0.07208644  0.22259074  0.30635395  1  0  -0.216839  0  3.672581  0  0  -0.196767  0  3.910556  0  0  -0.211872  0  3.930895  0  -0.012182  0  -0.020923  -0.187393  0  3.897145  0
C  C89  1  0.92791245  0.77740960  0.69364752  1  0  -0.216795  0  3.672462  0  0  -0.19676  0  3.910508  0  0  -0.211868  0  3.930852  0  -0.012213  0  -0.020871  -0.187381  0  3.897094  0
C  C90  1  0.20549157  0.30042985  0.36116381  1  0  0.426274  0  3.778682  0  0  0.390743  0  4.051167  0  0  0.412351  0  4.05983  0  1.083379  0  0.219173  0.376177  0  4.045078  0
C  C91  1  0.79450658  0.69957146  0.63883549  1  0  0.426314  0  3.778575  0  0  0.390778  0  4.0511  0  0  0.412384  0  4.059767  0  1.083125  0  0.21919  0.376212  0  4.045006  0
C  C92  1  0.96322796  0.31106023  0.45655327  1  0  -0.178952  0  3.809997  0  0  -0.194312  0  4.070739  0  0  -0.203835  0  4.092646  0  0.021282  0  -0.108733  -0.188239  0  4.056014  0
C  C93  1  0.03676774  0.68893620  0.54344361  1  0  -0.178967  0  3.810019  0  0  -0.194346  0  4.070743  0  0  -0.203871  0  4.092652  0  0.020807  0  -0.108725  -0.188273  0  4.05602  0
C  C94  1  0.95125702  0.23066959  0.35725838  1  0  -0.006714  0  3.74458  0  0  -0.034925  0  3.995425  0  0  -0.027604  0  4.011665  0  -0.030999  0  -0.068123  -0.03905  0  3.9835  0
C  C95  1  0.04873896  0.76932781  0.64274249  1  0  -0.006733  0  3.744482  0  0  -0.034931  0  3.995344  0  0  -0.027607  0  4.011584  0  -0.030785  0  -0.068128  -0.039058  0  3.983421  0
C  C96  1  0.46090441  0.36692494  0.38205480  1  0  0.144865  0  3.599459  0  0  0.084251  0  3.876724  0  0  0.094002  0  3.881143  0  0.337156  0  -0.067619  0.077295  0  3.87396  0
C  C97  1  0.53909460  0.63307931  0.61794731  1  0  0.144692  0  3.599431  0  0  0.084005  0  3.876807  0  0  0.09376  0  3.881216  0  0.337503  0  -0.067724  0.077043  0  3.874052  0
C  C98  1  0.09906224  0.38322049  0.50233797  1  0  0.142148  0  3.788728  0  0  0.117392  0  4.049004  0  0  0.12655  0  4.064886  0  0.424738  0  0.043313  0.111706  0  4.037728  0
C  C99  1  0.90093449  0.61677594  0.49765818  1  0  0.142306  0  3.788656  0  0  0.1176  0  4.048919  0  0  0.126763  0  4.064803  0  0.425002  0  0.043386  0.111914  0  4.037642  0
C  C100  1  0.58055101  0.33530069  0.32241514  1  0  -0.316824  0  3.688816  0  0  -0.393054  0  3.932654  0  0  -0.395807  0  3.942364  0  -0.106902  0  -0.247656  -0.390562  0  3.925532  0
C  C101  1  0.41944600  0.66469671  0.67758577  1  0  -0.31688  0  3.688835  0  0  -0.393109  0  3.932669  0  0  -0.395867  0  3.942367  0  -0.106849  0  -0.24768  -0.390611  0  3.925551  0
C  C102  1  0.23502632  0.19307028  0.64080771  1  0  0.150583  0  3.607424  0  0  0.090498  0  3.886076  0  0  0.100006  0  3.890487  0  0.401208  0  -0.067888  0.083652  0  3.883347  0
C  C103  1  0.76497303  0.80692810  0.35919192  1  0  0.150526  0  3.607549  0  0  0.090486  0  3.886121  0  0  0.099997  0  3.890531  0  0.401143  0  -0.067889  0.08364  0  3.883402  0
C  C104  1  0.08139527  0.12105275  0.64302973  1  0  -0.324194  0  3.709424  0  0  -0.40169  0  3.956358  0  0  -0.404529  0  3.96712  0  -0.073373  0  -0.251435  -0.399495  0  3.950147  0
C  C105  1  0.91860408  0.87894563  0.35697143  1  0  -0.32416  0  3.709374  0  0  -0.401654  0  3.95628  0  0  -0.404488  0  3.967048  0  -0.073323  0  -0.251381  -0.399463  0  3.950064  0
N  N106  1  0.49218153  0.17148301  0.58358663  1  0  -0.429603  0  3.112343  0  0  -0.390862  0  3.384159  0  0  -0.407416  0  3.396996  0  -1.25573  0  -0.336562  -0.378658  0  3.374396  0
N  N107  1  0.50782294  0.82851537  0.41641244  1  0  -0.429645  0  3.112258  0  0  -0.39089  0  3.384086  0  0  -0.407441  0  3.396918  0  -1.255497  0  -0.336574  -0.378685  0  3.374324  0
N  N108  1  0.17843085  0.57107334  0.90091485  1  0  -0.423807  0  3.171351  0  0  -0.366892  0  3.42667  0  0  -0.384629  0  3.440085  0  -1.249371  0  -0.322545  -0.354732  0  3.417516  0
N  N109  1  0.82156537  0.42893189  0.09908883  1  0  -0.423846  0  3.171341  0  0  -0.366973  0  3.42667  0  0  -0.384712  0  3.44008  0  -1.249389  0  -0.32255  -0.354814  0  3.417522  0
N  N110  1  0.21735062  0.37895132  0.45594223  1  0  -0.424345  0  3.092142  0  0  -0.386511  0  3.363287  0  0  -0.402073  0  3.375044  0  -1.236966  0  -0.334116  -0.375641  0  3.354745  0
N  N111  1  0.78264650  0.62104999  0.54405703  1  0  -0.424477  0  3.0921  0  0  -0.386634  0  3.363236  0  0  -0.402197  0  3.374991  0  -1.236966  0  -0.334164  -0.375764  0  3.354696  0
O  O112  1  0.92623656  0.09799029  0.15170700  1  0  -0.749528  0  2.043211  0  0  -0.713326  0  2.310363  0  0  -0.736746  0  2.295394  0  -1.208116  0  -0.39832  -0.696894  0  2.320761  0
O  O113  1  0.07376438  0.90201005  0.84829532  1  0  -0.749578  0  2.042882  0  0  -0.71337  0  2.310017  0  0  -0.736792  0  2.295052  0  -1.208022  0  -0.398375  -0.696929  0  2.320416  0
O  O114  1  0.57877820  0.97845804  0.87219225  1  0  -0.763426  0  2.077197  0  0  -0.711919  0  2.334518  0  0  -0.736887  0  2.320253  0  -1.205488  0  -0.403729  -0.694117  0  2.344436  0
O  O115  1  0.42122217  0.02154035  0.12780284  1  0  -0.763475  0  2.076821  0  0  -0.711979  0  2.334214  0  0  -0.736952  0  2.319954  0  -1.205428  0  -0.403716  -0.694175  0  2.34413  0
O  O116  1  0.90120004  0.16482558  0.94136288  1  0  -0.728357  0  2.029546  0  0  -0.688974  0  2.292613  0  0  -0.714189  0  2.280305  0  -1.203678  0  -0.393377  -0.67106  0  2.300925  0
O  O117  1  0.09880131  0.83517964  0.05863490  1  0  -0.728392  0  2.02921  0  0  -0.688988  0  2.292287  0  0  -0.714201  0  2.279977  0  -1.203597  0  -0.393346  -0.671103  0  2.300664  0
O  O118  1  0.40533218  0.08122746  0.88041936  1  0  -0.714891  0  2.013909  0  0  -0.677116  0  2.27107  0  0  -0.699587  0  2.256561  0  -1.186419  0  -0.393291  -0.661294  0  2.281297  0
O  O119  1  0.59467646  0.91878168  0.11958470  1  0  -0.714841  0  2.014364  0  0  -0.677094  0  2.271597  0  0  -0.699563  0  2.257081  0  -1.186581  0  -0.393257  -0.661275  0  2.281826  0
O  O120  1  0.32606316  0.82558258  0.92890891  1  0  -0.926808  0  1.926089  0  0  -0.887249  0  2.134958  0  0  -0.904443  0  2.102523  0  -1.311137  0  -0.650155  -0.87499  0  2.158484  0
O  O121  1  0.67393716  0.17442264  0.07108577  1  0  -0.926811  0  1.926105  0  0  -0.887291  0  2.135015  0  0  -0.904451  0  2.10251  0  -1.311171  0  -0.65018  -0.875035  0  2.15854  0
O  O122  1  0.38205344  0.25108375  0.08448426  1  0  -0.867429  0  1.875636  0  0  -0.82289  0  2.081501  0  0  -0.840996  0  2.050345  0  -1.243427  0  -0.610209  -0.809522  0  2.104003  0
O  O123  1  0.61794225  0.74891268  0.91551338  1  0  -0.867528  0  1.875554  0  0  -0.822956  0  2.081353  0  0  -0.841076  0  2.050214  0  -1.243487  0  -0.610203  -0.809585  0  2.103853  0
O  O124  1  0.13793632  0.18485750  0.95676750  1  0  -0.753038  0  2.053167  0  0  -0.711664  0  2.311045  0  0  -0.734646  0  2.294408  0  -1.205731  0  -0.382078  -0.695456  0  2.322575  0
O  O125  1  0.86206786  0.81513991  0.04322987  1  0  -0.752819  0  2.05349  0  0  -0.71142  0  2.311354  0  0  -0.734399  0  2.294716  0  -1.20588  0  -0.381979  -0.695216  0  2.322902  0
O  O126  1  0.15917211  0.10438670  0.16222227  1  0  -0.743413  0  2.108202  0  0  -0.7026  0  2.369151  0  0  -0.725686  0  2.354831  0  -1.200522  0  -0.383086  -0.686296  0  2.378861  0
O  O127  1  0.84083282  0.89560973  0.83777650  1  0  -0.743353  0  2.10873  0  0  -0.702528  0  2.369652  0  0  -0.725601  0  2.355323  0  -1.200752  0  -0.383044  -0.68626  0  2.379444  0
O  O128  1  0.32217264  0.13383580  0.69843860  1  0  -0.291961  0  2.314317  0  0  -0.216398  0  2.551306  0  0  -0.236219  0  2.551863  0  -1.064053  0  -0.159148  -0.201621  0  2.55078  0
O  O129  1  0.67782967  0.86615868  0.30155745  1  0  -0.291953  0  2.3143  0  0  -0.216363  0  2.551267  0  0  -0.236188  0  2.55183  0  -1.064019  0  -0.159188  -0.201586  0  2.550742  0
O  O130  1  0.25803368  0.46236762  0.01745081  1  0  -0.318815  0  2.29012  0  0  -0.238783  0  2.522985  0  0  -0.259723  0  2.524176  0  -1.071326  0  -0.16696  -0.224152  0  2.521699  0
O  O131  1  0.74195729  0.53763370  0.98255355  1  0  -0.31888  0  2.290197  0  0  -0.238847  0  2.523075  0  0  -0.259792  0  2.52427  0  -1.071844  0  -0.167003  -0.224215  0  2.521789  0
O  O132  1  0.32692809  0.29765446  0.31650533  1  0  -0.306774  0  2.296805  0  0  -0.226302  0  2.526726  0  0  -0.24696  0  2.527284  0  -1.058083  0  -0.161422  -0.21202  0  2.526091  0
O  O133  1  0.67306887  0.70234979  0.68349670  1  0  -0.306733  0  2.296685  0  0  -0.226236  0  2.526611  0  0  -0.246892  0  2.527164  0  -1.057892  0  -0.161427  -0.211949  0  2.525976  0
