# generated using pymatgen
data_ZnH10C13(N2Cl)2
_symmetry_space_group_name_H-M   'P 1'
_cell_length_a   5.18443988
_cell_length_b   12.26407836
_cell_length_c   21.64792522
_cell_angle_alpha   89.99979166
_cell_angle_beta   89.99991524
_cell_angle_gamma   100.64546886
_symmetry_Int_Tables_number   1
_chemical_formula_structural   ZnH10C13(N2Cl)2
_chemical_formula_sum   'Zn4 H40 C52 N16 Cl8'
_cell_volume   1352.73694486
_cell_formula_units_Z   4
loop_
 _symmetry_equiv_pos_site_id
 _symmetry_equiv_pos_as_xyz
  1  'x, y, z'
loop_
 _atom_site_type_symbol
 _atom_site_label
 _atom_site_symmetry_multiplicity
 _atom_site_fract_x
 _atom_site_fract_y
 _atom_site_fract_z
 _atom_site_occupancy
 _atom_site_hle17_bader_spin_density
 _atom_site_hle17_ddec_charge
 _atom_site_hle17_ddec_spin_density
 _atom_site_hle17_ddec_sum_bond_order
 _atom_site_hle17_magmom
 _atom_site_hse06_10hf_bader_spin_density
 _atom_site_hse06_10hf_ddec_charge
 _atom_site_hse06_10hf_ddec_spin_density
 _atom_site_hse06_10hf_ddec_sum_bond_order
 _atom_site_hse06_10hf_magmom
 _atom_site_hse06_bader_spin_density
 _atom_site_hse06_ddec_charge
 _atom_site_hse06_ddec_spin_density
 _atom_site_hse06_ddec_sum_bond_order
 _atom_site_hse06_magmom
 _atom_site_pbe_bader_spin_density
 _atom_site_pbe_cm5_charge
 _atom_site_pbe_ddec_charge
 _atom_site_pbe_ddec_spin_density
 _atom_site_pbe_ddec_sum_bond_order
 _atom_site_pbe_magmom
Zn  Zn0  1  0.91229383  0.36586763  0.64743979  1  0  0.853684  0  2.085309  0  0  0.674168  0  2.5748  0  0  0.712884  0  2.531596  0  0  0.569323  0.647524  0  2.604235  0
Zn  Zn1  1  0.58771671  0.13412777  0.14743882  1  0  0.8537  0  2.085305  0  0  0.674207  0  2.574781  0  0  0.712917  0  2.531576  0  0  0.569354  0.647557  0  2.604212  0
Zn  Zn2  1  0.08771190  0.63413752  0.35256106  1  0  0.853696  0  2.085298  0  0  0.674208  0  2.574752  0  0  0.712935  0  2.531548  0  0  0.569348  0.647565  0  2.604182  0
Zn  Zn3  1  0.41228994  0.86587073  0.85256064  1  0  0.853633  0  2.085319  0  0  0.674135  0  2.574774  0  0  0.712867  0  2.531584  0  0  0.569311  0.647494  0  2.604202  0
H  H4  1  0.35979139  0.53608365  0.69441466  1  0  0.077705  0  0.943798  0  0  0.086656  0  1.008286  0  0  0.089228  0  1.005635  0  0  0.110477  0.08475  0  1.010233  0
H  H5  1  0.14022892  0.96392073  0.19441715  1  0  0.07767  0  0.943786  0  0  0.086561  0  1.008332  0  0  0.089133  0  1.005679  0  0  0.110458  0.084653  0  1.01028  0
H  H6  1  0.64022949  0.46391650  0.30558388  1  0  0.077705  0  0.943758  0  0  0.086602  0  1.008303  0  0  0.089168  0  1.005665  0  0  0.110437  0.084695  0  1.01025  0
H  H7  1  0.85976982  0.03608608  0.80557908  1  0  0.07767  0  0.943798  0  0  0.086557  0  1.008352  0  0  0.089128  0  1.005704  0  0  0.11043  0.08465  0  1.010301  0
H  H8  1  0.94614755  0.55480829  0.86252763  1  0  0.277764  0  0.931827  0  0  0.257976  0  1.000653  0  0  0.265279  0  0.995031  0  0  0.299302  0.252786  0  1.004763  0
H  H9  1  0.55385886  0.94519709  0.36252142  1  0  0.277687  0  0.931753  0  0  0.25795  0  1.000593  0  0  0.265244  0  0.994969  0  0  0.299337  0.252764  0  1.004707  0
H  H10  1  0.05384414  0.44518691  0.13747506  1  0  0.277795  0  0.931797  0  0  0.257978  0  1.000641  0  0  0.265277  0  0.995018  0  0  0.299366  0.252792  0  1.004746  0
H  H11  1  0.44614301  0.05480806  0.63747804  1  0  0.277606  0  0.931817  0  0  0.257862  0  1.000675  0  0  0.265158  0  0.995048  0  0  0.299284  0.252676  0  1.004785  0
H  H12  1  0.69969157  0.54797568  0.77566255  1  0  0.113011  0  0.956243  0  0  0.122684  0  1.017579  0  0  0.125942  0  1.016825  0  0  0.102896  0.120328  0  1.018322  0
H  H13  1  0.80031165  0.95203447  0.27565900  1  0  0.11305  0  0.956153  0  0  0.122724  0  1.017504  0  0  0.12598  0  1.016754  0  0  0.102929  0.120359  0  1.018258  0
H  H14  1  0.30032353  0.45202448  0.22433876  1  0  0.113028  0  0.956173  0  0  0.122683  0  1.017549  0  0  0.125942  0  1.016792  0  0  0.102909  0.120323  0  1.018298  0
H  H15  1  0.19969398  0.04797483  0.72433630  1  0  0.112971  0  0.956254  0  0  0.122667  0  1.017567  0  0  0.125926  0  1.016813  0  0  0.1029  0.120295  0  1.01833  0
H  H16  1  0.27581729  0.23441842  0.84646743  1  0  0.113341  0  0.965447  0  0  0.124317  0  1.024949  0  0  0.127282  0  1.024254  0  0  0.101034  0.122175  0  1.02561  0
H  H17  1  0.22418729  0.26559248  0.34646199  1  0  0.113302  0  0.965419  0  0  0.124322  0  1.02487  0  0  0.127298  0  1.024171  0  0  0.101008  0.122178  0  1.025528  0
H  H18  1  0.72417045  0.76558093  0.15353388  1  0  0.113386  0  0.965413  0  0  0.124306  0  1.024982  0  0  0.12727  0  1.024288  0  0  0.101025  0.122166  0  1.025644  0
H  H19  1  0.77581661  0.73440852  0.65353748  1  0  0.113342  0  0.965389  0  0  0.124344  0  1.024872  0  0  0.127313  0  1.024175  0  0  0.101017  0.122201  0  1.025531  0
H  H20  1  0.95278021  0.23727694  0.76153630  1  0  0.075552  0  0.955971  0  0  0.084536  0  1.021297  0  0  0.086803  0  1.019341  0  0  0.107092  0.082856  0  1.02275  0
H  H21  1  0.54723987  0.26272843  0.26153370  1  0  0.075479  0  0.95608  0  0  0.084439  0  1.02143  0  0  0.086704  0  1.019469  0  0  0.107039  0.082757  0  1.022887  0
H  H22  1  0.04721128  0.76272656  0.23846409  1  0  0.075567  0  0.956082  0  0  0.084535  0  1.021417  0  0  0.0868  0  1.019458  0  0  0.107104  0.082855  0  1.022872  0
H  H23  1  0.45276522  0.73727091  0.73846623  1  0  0.075406  0  0.956132  0  0  0.084393  0  1.021471  0  0  0.086658  0  1.019511  0  0  0.107023  0.082714  0  1.022921  0
H  H24  1  0.64053347  0.21813107  0.90576082  1  0  0.138018  0  0.991975  0  0  0.145692  0  1.055771  0  0  0.149084  0  1.054467  0  0  0.096293  0.143277  0  1.056736  0
H  H25  1  0.85945476  0.28187828  0.40576083  1  0  0.137931  0  0.991921  0  0  0.145598  0  1.055735  0  0  0.148991  0  1.054446  0  0  0.096261  0.143183  0  1.056695  0
H  H26  1  0.35944463  0.78186828  0.09424049  1  0  0.137941  0  0.991996  0  0  0.145617  0  1.055797  0  0  0.149011  0  1.054494  0  0  0.096257  0.143201  0  1.05676  0
H  H27  1  0.14055409  0.71812520  0.59424001  1  0  0.137964  0  0.992071  0  0  0.145636  0  1.055865  0  0  0.14903  0  1.054562  0  0  0.096261  0.143219  0  1.056833  0
H  H28  1  0.65999233  0.34377008  0.07811463  1  0  0.073685  0  0.987126  0  0  0.074347  0  1.065694  0  0  0.077966  0  1.061756  0  0  0.102555  0.071701  0  1.068541  0
H  H29  1  0.83999670  0.15621504  0.57811975  1  0  0.073613  0  0.987181  0  0  0.074219  0  1.06581  0  0  0.077834  0  1.061878  0  0  0.102472  0.071576  0  1.068657  0
H  H30  1  0.33998935  0.65622429  0.92188252  1  0  0.073652  0  0.987069  0  0  0.074287  0  1.065685  0  0  0.077907  0  1.061746  0  0  0.1025  0.071641  0  1.068532  0
H  H31  1  0.16001656  0.84378097  0.42188664  1  0  0.073631  0  0.987208  0  0  0.074302  0  1.065779  0  0  0.07792  0  1.061841  0  0  0.102498  0.071656  0  1.068625  0
H  H32  1  0.43022466  0.43173598  0.99672917  1  0  0.107824  0  0.990064  0  0  0.116123  0  1.053777  0  0  0.119985  0  1.051186  0  0  0.107106  0.113369  0  1.055785  0
H  H33  1  0.06975235  0.06825810  0.49672558  1  0  0.107798  0  0.990097  0  0  0.116113  0  1.053778  0  0  0.119974  0  1.051191  0  0  0.10713  0.113361  0  1.055785  0
H  H34  1  0.56974958  0.56826338  0.00327260  1  0  0.107869  0  0.9901  0  0  0.116184  0  1.053782  0  0  0.120046  0  1.051192  0  0  0.107121  0.113431  0  1.055791  0
H  H35  1  0.93025935  0.93173874  0.50327758  1  0  0.107799  0  0.990072  0  0  0.116124  0  1.053767  0  0  0.119988  0  1.051173  0  0  0.107095  0.11337  0  1.055776  0
H  H36  1  0.85033077  0.13067602  0.98859560  1  0  0.114507  0  0.939829  0  0  0.125209  0  0.998816  0  0  0.128328  0  0.998239  0  0  0.108155  0.122971  0  0.999409  0
H  H37  1  0.64966484  0.36931614  0.48859967  1  0  0.114545  0  0.939859  0  0  0.125299  0  0.998773  0  0  0.128416  0  0.998195  0  0  0.108211  0.12306  0  0.999363  0
H  H38  1  0.14966378  0.86931253  0.01140340  1  0  0.114561  0  0.939739  0  0  0.125286  0  0.998687  0  0  0.128405  0  0.998114  0  0  0.108204  0.123049  0  0.999279  0
H  H39  1  0.35033162  0.63068985  0.51139841  1  0  0.114487  0  0.939778  0  0  0.12519  0  0.998761  0  0  0.128306  0  0.998187  0  0  0.108187  0.122953  0  0.999351  0
H  H40  1  0.10967703  0.05171927  0.06705670  1  0  0.074081  0  0.968445  0  0  0.080777  0  1.037993  0  0  0.083106  0  1.035787  0  0  0.103427  0.079013  0  1.039704  0
H  H41  1  0.39032673  0.44826872  0.56706027  1  0  0.074172  0  0.968529  0  0  0.080849  0  1.038072  0  0  0.083185  0  1.035845  0  0  0.103461  0.079086  0  1.039783  0
H  H42  1  0.89032560  0.94827011  0.93294276  1  0  0.074193  0  0.968522  0  0  0.080901  0  1.038028  0  0  0.083244  0  1.035779  0  0  0.10349  0.079139  0  1.03974  0
H  H43  1  0.60967753  0.55173311  0.43293919  1  0  0.074209  0  0.968499  0  0  0.080908  0  1.038019  0  0  0.083239  0  1.035804  0  0  0.103488  0.079142  0  1.039732  0
C  C44  1  0.34800111  0.47173346  0.72956867  1  0  0.131843  0  3.721016  0  0  0.097989  0  3.97561  0  0  0.10603  0  3.992531  0  0  0.041916  0.092747  0  3.964122  0
C  C45  1  0.15201267  0.02827494  0.22957021  1  0  0.132015  0  3.721111  0  0  0.098214  0  3.975721  0  0  0.106256  0  3.992642  0  0  0.041978  0.092971  0  3.964231  0
C  C46  1  0.65201738  0.52827001  0.27042802  1  0  0.131852  0  3.721155  0  0  0.098065  0  3.975755  0  0  0.106106  0  3.992674  0  0  0.041928  0.092822  0  3.964262  0
C  C47  1  0.84798645  0.97173270  0.77042463  1  0  0.131855  0  3.720921  0  0  0.098086  0  3.975522  0  0  0.106127  0  3.992445  0  0  0.041996  0.092843  0  3.964029  0
C  C48  1  0.53673868  0.47764995  0.77551668  1  0  -0.154491  0  3.686219  0  0  -0.17593  0  3.939825  0  0  -0.183435  0  3.959075  0  0  -0.085058  -0.171108  0  3.927058  0
C  C49  1  0.96326576  0.02235948  0.27551349  1  0  -0.154567  0  3.686212  0  0  -0.176014  0  3.939778  0  0  -0.18352  0  3.959034  0  0  -0.085087  -0.171182  0  3.927015  0
C  C50  1  0.46327835  0.52235020  0.22448232  1  0  -0.154563  0  3.686178  0  0  -0.175987  0  3.939799  0  0  -0.183492  0  3.95905  0  0  -0.085077  -0.171163  0  3.927037  0
C  C51  1  0.03673105  0.97764733  0.72448227  1  0  -0.154464  0  3.686367  0  0  -0.17593  0  3.939953  0  0  -0.183438  0  3.959209  0  0  -0.085097  -0.171094  0  3.927191  0
C  C52  1  0.51771210  0.39144754  0.81906506  1  0  0.098014  0  3.772505  0  0  0.107585  0  4.01204  0  0  0.114149  0  4.030549  0  0  0.017187  0.103246  0  3.999501  0
C  C53  1  0.98229498  0.10856407  0.31906307  1  0  0.098014  0  3.772416  0  0  0.107611  0  4.011973  0  0  0.114164  0  4.03048  0  0  0.017178  0.10327  0  3.999429  0
C  C54  1  0.48228913  0.60855180  0.18093486  1  0  0.098281  0  3.772491  0  0  0.107794  0  4.012089  0  0  0.114362  0  4.030596  0  0  0.017281  0.103448  0  3.999551  0
C  C55  1  0.01771524  0.89144688  0.68093454  1  0  0.098102  0  3.772432  0  0  0.1077  0  4.011991  0  0  0.114255  0  4.030498  0  0  0.017277  0.103361  0  3.999447  0
C  C56  1  0.30169628  0.30372637  0.81424302  1  0  -0.138699  0  3.686034  0  0  -0.157669  0  3.932465  0  0  -0.164917  0  3.952318  0  0  -0.080891  -0.153128  0  3.919355  0
C  C57  1  0.19831556  0.19628309  0.31424004  1  0  -0.138571  0  3.685931  0  0  -0.157597  0  3.932332  0  0  -0.164861  0  3.952201  0  0  -0.080785  -0.15305  0  3.919213  0
C  C58  1  0.69828906  0.69627630  0.18575829  1  0  -0.138825  0  3.686143  0  0  -0.157778  0  3.932681  0  0  -0.165027  0  3.952531  0  0  -0.08091  -0.153242  0  3.919575  0
C  C59  1  0.80169026  0.80371791  0.68575989  1  0  -0.138709  0  3.685813  0  0  -0.15777  0  3.932349  0  0  -0.165026  0  3.952209  0  0  -0.080889  -0.153226  0  3.919235  0
C  C60  1  0.12214150  0.30405837  0.76705793  1  0  0.135164  0  3.709744  0  0  0.101486  0  3.961492  0  0  0.109559  0  3.978477  0  0  0.040262  0.096242  0  3.949946  0
C  C61  1  0.37787976  0.19594561  0.26705673  1  0  0.135112  0  3.709893  0  0  0.10149  0  3.961615  0  0  0.10957  0  3.978597  0  0  0.040232  0.096245  0  3.950067  0
C  C62  1  0.87786194  0.69594594  0.23294014  1  0  0.135201  0  3.709596  0  0  0.101561  0  3.961293  0  0  0.109638  0  3.978272  0  0  0.040267  0.096316  0  3.949749  0
C  C63  1  0.62212294  0.80405705  0.73294135  1  0  0.135166  0  3.709928  0  0  0.10153  0  3.961713  0  0  0.10961  0  3.978697  0  0  0.040268  0.096287  0  3.950162  0
C  C64  1  0.71416445  0.38843587  0.86658782  1  0  0.14456  0  3.758266  0  0  0.128328  0  4.014585  0  0  0.13234  0  4.035518  0  0  0.094904  0.125817  0  4.000132  0
C  C65  1  0.78583367  0.11157790  0.36658544  1  0  0.144576  0  3.758298  0  0  0.12834  0  4.014717  0  0  0.132394  0  4.035591  0  0  0.094942  0.125828  0  4.000263  0
C  C66  1  0.28582402  0.61156514  0.13341256  1  0  0.144407  0  3.758412  0  0  0.128154  0  4.014699  0  0  0.132164  0  4.035631  0  0  0.094889  0.12566  0  4.000227  0
C  C67  1  0.21417664  0.88842890  0.63341587  1  0  0.144441  0  3.758321  0  0  0.12826  0  4.01467  0  0  0.132309  0  4.03555  0  0  0.094896  0.125749  0  4.000218  0
C  C68  1  0.75486226  0.30170798  0.90497172  1  0  -0.252747  0  3.676071  0  0  -0.277567  0  3.927037  0  0  -0.285105  0  3.948393  0  0  -0.101952  -0.272368  0  3.91239  0
C  C69  1  0.74512873  0.19829889  0.40496918  1  0  -0.2526  0  3.675985  0  0  -0.27737  0  3.926927  0  0  -0.284931  0  3.948268  0  0  -0.101852  -0.27218  0  3.912293  0
C  C70  1  0.24511437  0.69828806  0.09503236  1  0  -0.252627  0  3.676243  0  0  -0.277452  0  3.92715  0  0  -0.285005  0  3.948528  0  0  -0.101885  -0.272259  0  3.912498  0
C  C71  1  0.25487562  0.80169879  0.59503213  1  0  -0.252746  0  3.675947  0  0  -0.277562  0  3.926853  0  0  -0.285119  0  3.948188  0  0  -0.101913  -0.272372  0  3.912222  0
C  C72  1  0.97993862  0.34481457  0.94002488  1  0  0.124045  0  3.811715  0  0  0.121035  0  4.073158  0  0  0.123143  0  4.093682  0  0  0.089371  0.119731  0  4.059006  0
C  C73  1  0.52005915  0.15518623  0.44002251  1  0  0.124026  0  3.811723  0  0  0.121054  0  4.073163  0  0  0.123181  0  4.093659  0  0  0.089264  0.119744  0  4.059009  0
C  C74  1  0.02004655  0.65517897  0.05997828  1  0  0.124038  0  3.811677  0  0  0.121107  0  4.073035  0  0  0.123227  0  4.093535  0  0  0.089345  0.119798  0  4.058885  0
C  C75  1  0.47994933  0.84481643  0.55997787  1  0  0.124069  0  3.811741  0  0  0.12116  0  4.073086  0  0  0.123296  0  4.093563  0  0  0.089251  0.119851  0  4.058933  0
C  C76  1  0.48053173  0.29928860  0.05701661  1  0  0.125718  0  3.719364  0  0  0.094372  0  3.972049  0  0  0.101947  0  3.988629  0  0  0.037212  0.089541  0  3.960682  0
C  C77  1  0.01947175  0.20069862  0.55701760  1  0  0.125797  0  3.719427  0  0  0.094451  0  3.972138  0  0  0.102034  0  3.988717  0  0  0.037336  0.089618  0  3.960771  0
C  C78  1  0.51945610  0.70070659  0.94298516  1  0  0.12586  0  3.719418  0  0  0.094484  0  3.972114  0  0  0.102061  0  3.988699  0  0  0.037329  0.089652  0  3.960744  0
C  C79  1  0.98054179  0.79930237  0.44298648  1  0  0.125702  0  3.719264  0  0  0.094304  0  3.972001  0  0  0.101881  0  3.988585  0  0  0.037249  0.089475  0  3.960629  0
C  C80  1  0.35063610  0.34846209  0.01233655  1  0  -0.139813  0  3.702705  0  0  -0.163955  0  3.956084  0  0  -0.170959  0  3.975268  0  0  -0.082966  -0.159504  0  3.943275  0
C  C81  1  0.14935611  0.15152962  0.51233621  1  0  -0.139614  0  3.702676  0  0  -0.163738  0  3.956131  0  0  -0.170742  0  3.975318  0  0  -0.082894  -0.159294  0  3.943317  0
C  C82  1  0.64934715  0.65153146  0.98766337  1  0  -0.139772  0  3.702723  0  0  -0.16391  0  3.95613  0  0  -0.170916  0  3.975314  0  0  -0.082874  -0.159468  0  3.943322  0
C  C83  1  0.85065008  0.84847221  0.48766602  1  0  -0.13956  0  3.702452  0  0  -0.163702  0  3.955904  0  0  -0.170707  0  3.975092  0  0  -0.082796  -0.159259  0  3.943091  0
C  C84  1  0.11720243  0.29069746  0.98631868  1  0  0.10153  0  3.760211  0  0  0.113525  0  3.990406  0  0  0.119858  0  4.009843  0  0  0.018976  0.109404  0  3.977176  0
C  C85  1  0.38277394  0.20929504  0.48631560  1  0  0.101551  0  3.760033  0  0  0.113441  0  3.990433  0  0  0.119768  0  4.009862  0  0  0.018902  0.109338  0  3.977174  0
C  C86  1  0.88278275  0.70929608  0.01368401  1  0  0.101409  0  3.760301  0  0  0.113342  0  3.99058  0  0  0.119676  0  4.010013  0  0  0.018821  0.109234  0  3.977328  0
C  C87  1  0.61721958  0.79070431  0.51368340  1  0  0.101445  0  3.760116  0  0  0.113331  0  3.990474  0  0  0.119654  0  4.009908  0  0  0.018825  0.109228  0  3.977216  0
C  C88  1  0.03006190  0.18119678  0.00641336  1  0  -0.14955  0  3.682744  0  0  -0.167554  0  3.93044  0  0  -0.175926  0  3.951223  0  0  -0.082418  -0.162183  0  3.916524  0
C  C89  1  0.46993798  0.31879911  0.50641439  1  0  -0.1496  0  3.682543  0  0  -0.167618  0  3.930275  0  0  -0.176003  0  3.951089  0  0  -0.082431  -0.162251  0  3.916352  0
C  C90  1  0.96992879  0.81879178  0.99358795  1  0  -0.149529  0  3.682596  0  0  -0.167581  0  3.930405  0  0  -0.175951  0  3.951167  0  0  -0.082452  -0.162217  0  3.91649  0
C  C91  1  0.53007004  0.68120686  0.49358414  1  0  -0.149521  0  3.682656  0  0  -0.167517  0  3.930399  0  0  -0.175897  0  3.951201  0  0  -0.082435  -0.16215  0  3.916476  0
C  C92  1  0.17455279  0.13627183  0.05060144  1  0  0.130097  0  3.717149  0  0  0.096411  0  3.970017  0  0  0.104216  0  3.98775  0  0  0.041241  0.091365  0  3.958008  0
C  C93  1  0.32544587  0.36372623  0.55060614  1  0  0.129986  0  3.717044  0  0  0.096346  0  3.969888  0  0  0.10416  0  3.987599  0  0  0.041232  0.091297  0  3.957882  0
C  C94  1  0.82545360  0.86372169  0.94939663  1  0  0.129938  0  3.717031  0  0  0.096274  0  3.969833  0  0  0.104088  0  3.987568  0  0  0.041193  0.091223  0  3.957832  0
C  C95  1  0.67455095  0.63628058  0.44939332  1  0  0.129963  0  3.717263  0  0  0.096333  0  3.970045  0  0  0.104144  0  3.987762  0  0  0.041249  0.091285  0  3.958037  0
N  N96  1  0.14455505  0.38612039  0.72473646  1  0  -0.333922  0  3.338089  0  0  -0.246664  0  3.611971  0  0  -0.265911  0  3.627872  0  0  -0.34135  -0.233669  0  3.601014  0
N  N97  1  0.35546236  0.11388306  0.22473544  1  0  -0.334015  0  3.338238  0  0  -0.246784  0  3.612096  0  0  -0.266029  0  3.627989  0  0  -0.34141  -0.233787  0  3.601138  0
N  N98  1  0.85544655  0.61387978  0.27526392  1  0  -0.333992  0  3.337987  0  0  -0.246774  0  3.611894  0  0  -0.266022  0  3.627794  0  0  -0.341399  -0.233778  0  3.600933  0
N  N99  1  0.64453768  0.88611794  0.77526125  1  0  -0.333802  0  3.338006  0  0  -0.246583  0  3.611849  0  0  -0.265836  0  3.627757  0  0  -0.341362  -0.233589  0  3.600891  0
N  N100  1  0.91096126  0.47585156  0.88078028  1  0  -0.172153  0  3.495728  0  0  -0.110759  0  3.732184  0  0  -0.123507  0  3.752035  0  0  -0.263129  -0.102137  0  3.718616  0
N  N101  1  0.58904188  0.02415629  0.38077446  1  0  -0.171872  0  3.495604  0  0  -0.110645  0  3.73225  0  0  -0.123393  0  3.752092  0  0  -0.263122  -0.102025  0  3.718691  0
N  N102  1  0.08903465  0.52414446  0.11922288  1  0  -0.17215  0  3.495972  0  0  -0.11061  0  3.732266  0  0  -0.123349  0  3.752119  0  0  -0.263205  -0.101997  0  3.718706  0
N  N103  1  0.41096504  0.97584719  0.61922408  1  0  -0.171657  0  3.495798  0  0  -0.110438  0  3.732403  0  0  -0.123188  0  3.752251  0  0  -0.263022  -0.101818  0  3.71884  0
N  N104  1  0.07236161  0.45232922  0.92469506  1  0  -0.212523  0  2.878119  0  0  -0.206371  0  3.156356  0  0  -0.210789  0  3.172348  0  0  -0.210432  -0.202998  0  3.145275  0
N  N105  1  0.42763522  0.04766951  0.42469045  1  0  -0.212836  0  2.878278  0  0  -0.206638  0  3.156582  0  0  -0.211059  0  3.172566  0  0  -0.210513  -0.203271  0  3.145509  0
N  N106  1  0.92762549  0.54766432  0.07530855  1  0  -0.212557  0  2.878105  0  0  -0.206473  0  3.156273  0  0  -0.210895  0  3.17226  0  0  -0.210436  -0.203102  0  3.145201  0
N  N107  1  0.57236638  0.95233066  0.57530855  1  0  -0.212763  0  2.878441  0  0  -0.206573  0  3.156708  0  0  -0.210996  0  3.172688  0  0  -0.210433  -0.203202  0  3.145633  0
N  N108  1  0.39471610  0.19428340  0.07627308  1  0  -0.33264  0  3.349098  0  0  -0.243484  0  3.617199  0  0  -0.263286  0  3.634109  0  0  -0.341257  -0.230163  0  3.605464  0
N  N109  1  0.10527831  0.30570536  0.57627429  1  0  -0.332801  0  3.349159  0  0  -0.243608  0  3.617231  0  0  -0.263411  0  3.634134  0  0  -0.341387  -0.230292  0  3.605509  0
N  N110  1  0.60527835  0.80570930  0.92372730  1  0  -0.33272  0  3.349199  0  0  -0.243508  0  3.617248  0  0  -0.263319  0  3.634168  0  0  -0.341317  -0.230191  0  3.605523  0
N  N111  1  0.89472825  0.69429729  0.42372609  1  0  -0.33268  0  3.349081  0  0  -0.243525  0  3.61721  0  0  -0.263333  0  3.63412  0  0  -0.341336  -0.230207  0  3.605481  0
Cl  Cl112  1  0.85702308  0.53507109  0.61754992  1  0  -0.569259  0  0.934545  0  0  -0.507391  0  1.206552  0  0  -0.522495  0  1.184852  0  0  -0.308575  -0.496376  0  1.221354  0
Cl  Cl113  1  0.64298733  0.96492274  0.11755472  1  0  -0.56929  0  0.934601  0  0  -0.507389  0  1.206563  0  0  -0.522487  0  1.184859  0  0  -0.308579  -0.496374  0  1.221361  0
Cl  Cl114  1  0.14298926  0.46493156  0.38244631  1  0  -0.569302  0  0.934597  0  0  -0.507416  0  1.206563  0  0  -0.52252  0  1.184869  0  0  -0.308582  -0.496405  0  1.221364  0
Cl  Cl115  1  0.35700702  0.03507411  0.88244243  1  0  -0.569241  0  0.934596  0  0  -0.507369  0  1.206591  0  0  -0.522479  0  1.184889  0  0  -0.308556  -0.496357  0  1.221392  0
Cl  Cl116  1  0.58030490  0.22449676  0.67278838  1  0  -0.554292  0  0.986465  0  0  -0.495839  0  1.264723  0  0  -0.510775  0  1.246013  0  0  -0.290671  -0.485157  0  1.277677  0
Cl  Cl117  1  0.91970808  0.27550011  0.17278423  1  0  -0.554325  0  0.986481  0  0  -0.495873  0  1.264751  0  0  -0.510809  0  1.246039  0  0  -0.29067  -0.485189  0  1.277702  0
Cl  Cl118  1  0.41969807  0.77551087  0.32721062  1  0  -0.554314  0  0.986443  0  0  -0.495848  0  1.264679  0  0  -0.510785  0  1.24597  0  0  -0.290684  -0.48517  0  1.277634  0
Cl  Cl119  1  0.08029820  0.72449756  0.82721385  1  0  -0.554331  0  0.986442  0  0  -0.495872  0  1.264683  0  0  -0.510818  0  1.245981  0  0  -0.290679  -0.485195  0  1.277637  0
