# generated using pymatgen
data_AlH15(C10O3)2
_symmetry_space_group_name_H-M   'P 1'
_cell_length_a   6.63434772
_cell_length_b   24.19965675
_cell_length_c   27.78044700
_cell_angle_alpha   84.40269196
_cell_angle_beta   89.99702300
_cell_angle_gamma   90.00506307
_symmetry_Int_Tables_number   1
_chemical_formula_structural   AlH15(C10O3)2
_chemical_formula_sum   'Al4 H60 C80 O24'
_cell_volume   4438.85529749
_cell_formula_units_Z   4
loop_
 _symmetry_equiv_pos_site_id
 _symmetry_equiv_pos_as_xyz
  1  'x, y, z'
loop_
 _atom_site_type_symbol
 _atom_site_label
 _atom_site_symmetry_multiplicity
 _atom_site_fract_x
 _atom_site_fract_y
 _atom_site_fract_z
 _atom_site_occupancy
 _atom_site_pbe_bader_charge
 _atom_site_pbe_bader_spin_density
 _atom_site_pbe_cm5_charge
 _atom_site_pbe_ddec_charge
 _atom_site_pbe_ddec_spin_density
 _atom_site_pbe_ddec_sum_bond_order
 _atom_site_pbe_magmom
Al  Al0  1  0.77163738  0.24881469  0.75026426  1  2.503112  0  0.397583  1.647762  0  2.581825  0
Al  Al1  1  0.22842454  0.75115527  0.24982789  1  2.503324  0  0.397722  1.648076  0  2.582015  0
Al  Al2  1  0.27165494  0.25115450  0.74982943  1  2.503873  0  0.397503  1.647703  0  2.582726  0
Al  Al3  1  0.72842657  0.74882298  0.25027354  1  2.503228  0  0.397743  1.647899  0  2.581879  0
H  H4  1  0.28113360  0.67310133  0.12222701  1  0.0966  0  0.109504  0.116604  0  0.989567  0
H  H5  1  0.71888310  0.32689550  0.87785346  1  0.097365  0  0.109513  0.116845  0  0.989533  0
H  H6  1  0.78110843  0.82691772  0.37785376  1  0.097691  0  0.109549  0.116993  0  0.989682  0
H  H7  1  0.21891128  0.17308603  0.62224693  1  0.093159  0  0.109555  0.116792  0  0.989259  0
H  H8  1  0.27912854  0.60961607  0.05716762  1  0.07945  0  0.103639  0.106816  0  0.998474  0
H  H9  1  0.72090023  0.39040910  0.94289503  1  0.078104  0  0.103534  0.106547  0  0.998448  0
H  H10  1  0.77906488  0.89043613  0.44289244  1  0.078627  0  0.103558  0.106493  0  0.998426  0
H  H11  1  0.22089456  0.10961262  0.55717770  1  0.079841  0  0.103606  0.106809  0  0.998618  0
H  H12  1  0.68397175  0.61762952  0.16438794  1  0.087439  0  0.111562  0.128436  0  0.994208  0
H  H13  1  0.31596959  0.38238170  0.83565055  1  0.088733  0  0.111649  0.128467  0  0.993998  0
H  H14  1  0.18399044  0.88236236  0.33566370  1  0.088279  0  0.111669  0.128434  0  0.994031  0
H  H15  1  0.81618756  0.11766975  0.66433782  1  0.087213  0  0.111581  0.128511  0  0.993919  0
H  H16  1  0.67677678  0.54666458  0.01583951  1  0.082314  0  0.101033  0.102391  0  1.018992  0
H  H17  1  0.32325801  0.45336032  0.98420253  1  0.082318  0  0.101235  0.102939  0  1.018751  0
H  H18  1  0.17671979  0.95337569  0.48420226  1  0.083277  0  0.101278  0.103066  0  1.018594  0
H  H19  1  0.82325322  0.04668280  0.51581543  1  0.081462  0  0.101063  0.10265  0  1.018772  0
H  H20  1  0.69468818  0.48244770  0.95234624  1  0.102649  0  0.100117  0.099977  0  1.042244  0
H  H21  1  0.30534662  0.51758473  0.04769108  1  0.102224  0  0.100012  0.100005  0  1.042084  0
H  H22  1  0.19466288  0.01760472  0.54768800  1  0.101482  0  0.09998  0.099777  0  1.042135  0
H  H23  1  0.80529204  0.98245606  0.45233149  1  0.102812  0  0.100065  0.099913  0  1.042187  0
H  H24  1  0.31714962  0.45884225  0.57595893  1  0.04833  0  0.104721  0.106803  0  0.997495  0
H  H25  1  0.68329213  0.54101333  0.42406281  1  0.049299  0  0.104647  0.106645  0  0.997738  0
H  H26  1  0.81665649  0.04104687  0.92407165  1  0.049547  0  0.104602  0.106774  0  0.997421  0
H  H27  1  0.18293514  0.95889889  0.07604193  1  0.048392  0  0.104781  0.106881  0  0.996604  0
H  H28  1  0.32458612  0.38704333  0.64719422  1  0.091048  0  0.110946  0.116779  0  0.994749  0
H  H29  1  0.67564159  0.61290032  0.35290057  1  0.091608  0  0.110695  0.116628  0  0.994538  0
H  H30  1  0.82425840  0.11290389  0.85288232  1  0.092156  0  0.110655  0.116454  0  0.994562  0
H  H31  1  0.17560153  0.88707129  0.14726151  1  0.091428  0  0.110808  0.116764  0  0.994385  0
H  H32  1  0.70681111  0.34575320  0.62147464  1  0.108652  0  0.112315  0.119414  0  0.989626  0
H  H33  1  0.29342264  0.65420576  0.37860056  1  0.108407  0  0.112332  0.119312  0  0.98971  0
H  H34  1  0.20659052  0.15423673  0.87863309  1  0.108701  0  0.112317  0.119319  0  0.989945  0
H  H35  1  0.79331314  0.84580834  0.12145226  1  0.108886  0  0.112323  0.119612  0  0.989618  0
H  H36  1  0.69998646  0.41496003  0.54838848  1  0.075708  0  0.1044  0.106536  0  0.997081  0
H  H37  1  0.30047339  0.58489648  0.45160904  1  0.074324  0  0.104708  0.106684  0  0.997078  0
H  H38  1  0.19954945  0.08495921  0.95166358  1  0.073636  0  0.104642  0.106655  0  0.997269  0
H  H39  1  0.80004973  0.91504900  0.04839155  1  0.075898  0  0.104604  0.106644  0  0.997349  0
H  H40  1  0.71251679  0.49492725  0.16889693  1  0.044089  0  0.095276  0.050827  0  0.968902  0
H  H41  1  0.83657197  0.47249886  0.11711874  1  0.034893  0  0.095181  0.05356  0  0.986063  0
H  H42  1  0.50848120  0.44319516  0.08398290  1  0.061589  0  0.091804  0.126442  0  1.003774  0
H  H43  1  0.54255761  0.41074123  0.14365609  1  0.063702  0  0.095733  0.127443  0  0.99189  0
H  H44  1  0.37655561  0.46851997  0.13331760  1  0.052508  0  0.09312  0.127829  0  0.994436  0
H  H45  1  0.16347791  0.52753717  0.88288096  1  0.033467  0  0.095154  0.053447  0  0.986044  0
H  H46  1  0.28755871  0.50507973  0.83111554  1  0.04494  0  0.095172  0.050765  0  0.968872  0
H  H47  1  0.62351235  0.53148514  0.86670464  1  0.051772  0  0.09314  0.127739  0  0.99465  0
H  H48  1  0.45756462  0.58926810  0.85633830  1  0.063749  0  0.095724  0.127416  0  0.991887  0
H  H49  1  0.49156415  0.55683830  0.91602151  1  0.060952  0  0.091706  0.126426  0  1.003955  0
H  H50  1  0.21239544  0.00506353  0.33111305  1  0.044766  0  0.095112  0.050733  0  0.968832  0
H  H51  1  0.33652894  0.02752989  0.38286074  1  0.032865  0  0.095217  0.053471  0  0.986118  0
H  H52  1  0.00849943  0.05683324  0.41602242  1  0.061078  0  0.091798  0.12646  0  1.003961  0
H  H53  1  0.04246890  0.08925621  0.35633811  1  0.063924  0  0.095772  0.127527  0  0.991821  0
H  H54  1  0.87650040  0.03147474  0.36671977  1  0.051697  0  0.093182  0.127832  0  0.994545  0
H  H55  1  0.66348478  0.97253383  0.61710016  1  0.034906  0  0.095118  0.053387  0  0.986089  0
H  H56  1  0.78748111  0.99500032  0.66886991  1  0.044725  0  0.095132  0.050489  0  0.969065  0
H  H57  1  0.12348015  0.96858339  0.63331672  1  0.051605  0  0.093247  0.127808  0  0.994562  0
H  H58  1  0.95747094  0.91080227  0.64367198  1  0.064119  0  0.095813  0.127735  0  0.99172  0
H  H59  1  0.99161677  0.94322627  0.58399346  1  0.062606  0  0.091851  0.126514  0  1.003856  0
H  H60  1  0.52653026  0.31840163  0.76450874  1  0.599289  0  0.354703  0.430684  0  0.854638  0
H  H61  1  0.47357085  0.68159410  0.23553559  1  0.599651  0  0.35483  0.430893  0  0.85443  0
H  H62  1  0.02650287  0.18159077  0.73552695  1  0.599132  0  0.354641  0.430782  0  0.854603  0
H  H63  1  0.97358920  0.81840494  0.26452534  1  0.599078  0  0.354637  0.430661  0  0.854999  0
C  C64  1  0.51899778  0.17866086  0.81806139  1  1.563813  0  0.262337  0.632322  0  4.122322  0
C  C65  1  0.48096466  0.82134727  0.18204868  1  1.560968  0  0.261766  0.631789  0  4.122572  0
C  C66  1  0.01924716  0.32132004  0.68203371  1  1.561065  0  0.261306  0.630521  0  4.123755  0
C  C67  1  0.98092027  0.67864206  0.31804690  1  1.56243  0  0.261884  0.631562  0  4.122168  0
C  C68  1  0.52015520  0.18826893  0.68601964  1  1.579023  0  0.268752  0.643906  0  4.09129  0
C  C69  1  0.47996851  0.81169698  0.31407180  1  1.579876  0  0.268873  0.644275  0  4.089799  0
C  C70  1  0.01999647  0.31170354  0.81406175  1  1.579476  0  0.268453  0.643778  0  4.090275  0
C  C71  1  0.98000214  0.68828213  0.18601479  1  1.57745  0  0.268421  0.643198  0  4.091491  0
C  C72  1  0.15094585  0.64679681  0.11723935  1  -0.020717  0  -0.085007  -0.10024  0  3.992096  0
C  C73  1  0.84906634  0.35320762  0.88282410  1  -0.027125  0  -0.085334  -0.100982  0  3.992876  0
C  C74  1  0.65091038  0.85322017  0.38282449  1  -0.025301  0  -0.085459  -0.101315  0  3.992883  0
C  C75  1  0.34912140  0.14679561  0.61725265  1  -0.016488  0  -0.0853  -0.100708  0  3.991604  0
C  C76  1  0.14938850  0.61083350  0.08115231  1  -0.061368  0  -0.087788  -0.114114  0  3.992787  0
C  C77  1  0.85059957  0.38919061  0.91890094  1  -0.055433  0  -0.087424  -0.113895  0  3.992087  0
C  C78  1  0.64936871  0.88920658  0.41889989  1  -0.057411  0  -0.087317  -0.112942  0  3.992538  0
C  C79  1  0.35064499  0.11083858  0.58115364  1  -0.062141  0  -0.087603  -0.114496  0  3.991983  0
C  C80  1  0.98419735  0.57578223  0.07453838  1  -0.005204  0  -0.009939  -0.026118  0  3.974964  0
C  C81  1  0.01580881  0.42424525  0.92550654  1  -0.00642  0  -0.009445  -0.023973  0  3.973259  0
C  C82  1  0.48416299  0.92425706  0.42550418  1  -0.006434  0  -0.009464  -0.026149  0  3.976295  0
C  C83  1  0.51585675  0.07580503  0.57451458  1  -0.004615  0  -0.009928  -0.024393  0  3.973001  0
C  C84  1  0.81778824  0.57853560  0.10611950  1  0.453538  0  0.079095  0.198145  0  4.043565  0
C  C85  1  0.18217874  0.42149742  0.89390841  1  0.451849  0  0.079259  0.197434  0  4.042179  0
C  C86  1  0.31778279  0.92149678  0.39391525  1  0.451276  0  0.079374  0.198191  0  4.042574  0
C  C87  1  0.68228367  0.07856073  0.60608834  1  0.452534  0  0.079231  0.197305  0  4.042246  0
C  C88  1  0.81524610  0.61607560  0.14099278  1  0.009933  0  -0.091018  -0.203652  0  3.97702  0
C  C89  1  0.18472991  0.38393775  0.85905292  1  -0.04047  0  -0.091003  -0.203359  0  3.976457  0
C  C90  1  0.31522871  0.88392951  0.35906452  1  -0.040378  0  -0.091194  -0.203439  0  3.976067  0
C  C91  1  0.68488146  0.11610544  0.64095688  1  0.008261  0  -0.091065  -0.203395  0  3.976041  0
C  C92  1  0.98190716  0.65020499  0.14706194  1  -0.033623  0  -0.017582  -0.031803  0  4.010588  0
C  C93  1  0.01808241  0.34979852  0.85299464  1  0.018403  0  -0.017605  -0.032124  0  4.011493  0
C  C94  1  0.48189206  0.84980070  0.35300066  1  0.018681  0  -0.01756  -0.032202  0  4.010882  0
C  C95  1  0.51821057  0.15021578  0.64705443  1  -0.032265  0  -0.017607  -0.032317  0  4.010731  0
C  C96  1  0.81851883  0.52600788  0.00928988  1  -0.043796  0  -0.090921  -0.121374  0  3.98499  0
C  C97  1  0.18153556  0.47401885  0.99075432  1  -0.06716  0  -0.090969  -0.122123  0  3.985047  0
C  C98  1  0.31844797  0.97403587  0.49074698  1  -0.061135  0  -0.09107  -0.122611  0  3.984734  0
C  C99  1  0.68150545  0.02602586  0.50926744  1  -0.042614  0  -0.090915  -0.121835  0  3.985093  0
C  C100  1  0.82870100  0.48961226  0.97360188  1  -0.091812  0  -0.09541  -0.143879  0  3.991769  0
C  C101  1  0.17133078  0.51041609  0.02644268  1  -0.059613  0  -0.095554  -0.144159  0  3.991525  0
C  C102  1  0.32866887  0.01043569  0.52643408  1  -0.05912  0  -0.095554  -0.143621  0  3.991173  0
C  C103  1  0.67128455  0.98962711  0.47358576  1  -0.092718  0  -0.095362  -0.143704  0  3.991507  0
C  C104  1  0.01007093  0.46292985  0.96345266  1  -0.027859  0  -0.010117  0.07691  0  4.010044  0
C  C105  1  0.98996839  0.53710282  0.03659007  1  -0.022369  0  -0.009713  0.077461  0  4.010378  0
C  C106  1  0.51006071  0.03711555  0.53657396  1  -0.023842  0  -0.009693  0.076813  0  4.010143  0
C  C107  1  0.48991079  0.96294402  0.46344516  1  -0.033047  0  -0.010243  0.077593  0  4.010468  0
C  C108  1  0.18460408  0.43355883  0.58572319  1  0.016183  0  -0.084709  -0.13161  0  3.952788  0
C  C109  1  0.81579999  0.56630307  0.41429745  1  0.0126  0  -0.084402  -0.130955  0  3.952614  0
C  C110  1  0.68416166  0.06634459  0.91431067  1  0.014629  0  -0.08469  -0.131854  0  3.952021  0
C  C111  1  0.31551438  0.93361417  0.08579346  1  0.01541  0  -0.085032  -0.13187  0  3.952666  0
C  C112  1  0.18863552  0.39398090  0.62541076  1  -0.014813  0  -0.081135  -0.089343  0  3.989768  0
C  C113  1  0.81166606  0.60593646  0.37465160  1  -0.011856  0  -0.08114  -0.090021  0  3.990302  0
C  C114  1  0.68825913  0.10595622  0.87465293  1  -0.012528  0  -0.08089  -0.089057  0  3.99005  0
C  C115  1  0.31152996  0.89402668  0.12546123  1  -0.015037  0  -0.080788  -0.08905  0  3.989316  0
C  C116  1  0.01585709  0.36261518  0.63856311  1  -0.005034  0  -0.014249  -0.042708  0  3.9739  0
C  C117  1  0.98438268  0.63732940  0.36150745  1  -0.005405  0  -0.014298  -0.04212  0  3.973526  0
C  C118  1  0.51557481  0.13735190  0.86152125  1  -0.007464  0  -0.014613  -0.043151  0  3.974109  0
C  C119  1  0.48430020  0.86265844  0.13859135  1  -0.009489  0  -0.014006  -0.042641  0  3.973065  0
C  C120  1  0.83948935  0.37059995  0.61086179  1  -0.069487  0  -0.07929  -0.087647  0  3.984329  0
C  C121  1  0.16081374  0.62932466  0.38918679  1  -0.063998  0  -0.079531  -0.087804  0  3.983323  0
C  C122  1  0.33917725  0.12936501  0.88921487  1  -0.06644  0  -0.079026  -0.087215  0  3.983063  0
C  C123  1  0.66064049  0.87065051  0.11087241  1  -0.064442  0  -0.079577  -0.088314  0  3.983468  0
C  C124  1  0.83560860  0.40921588  0.57048535  1  0.015415  0  -0.083394  -0.129601  0  3.949153  0
C  C125  1  0.16482110  0.59065373  0.42952115  1  0.008925  0  -0.083443  -0.12975  0  3.949222  0
C  C126  1  0.33516724  0.09071144  0.92956367  1  0.012187  0  -0.083744  -0.129956  0  3.948627  0
C  C127  1  0.66449826  0.90929087  0.07050414  1  0.014442  0  -0.083448  -0.129742  0  3.94853  0
C  C128  1  0.00771909  0.44179573  0.55756351  1  0.00705  0  0.001605  0.143695  0  4.115031  0
C  C129  1  0.99276185  0.55803050  0.44243124  1  0.012743  0  0.001128  0.143009  0  4.11511  0
C  C130  1  0.50722739  0.05809608  0.94246520  1  0.009934  0  0.001528  0.143691  0  4.113222  0
C  C131  1  0.49233410  0.94186239  0.05760675  1  0.00689  0  0.001313  0.143653  0  4.115315  0
C  C132  1  0.00268249  0.48225705  0.51726145  1  -0.020035  0  -0.045647  -0.109474  0  4.124776  0
C  C133  1  0.99788587  0.51753154  0.48270272  1  -0.328787  0  -0.045222  -0.108582  0  4.124223  0
C  C134  1  0.50214242  0.01760893  0.98274863  1  -0.323319  0  -0.045651  -0.109189  0  4.123429  0
C  C135  1  0.49733466  0.98233880  0.01731940  1  -0.024837  0  -0.045063  -0.10885  0  4.124102  0
C  C136  1  0.69386226  0.48909742  0.13021016  1  0.400229  0  -0.0676  0.089958  0  3.927198  0
C  C137  1  0.51967338  0.45082523  0.12219871  1  -0.125217  0  -0.24294  -0.393386  0  3.976285  0
C  C138  1  0.30618761  0.51092208  0.86980117  1  0.400486  0  -0.067424  0.090056  0  3.926782  0
C  C139  1  0.48039308  0.54919147  0.87780793  1  -0.123662  0  -0.242905  -0.393424  0  3.97665  0
C  C140  1  0.19379988  0.01091687  0.36979561  1  0.401629  0  -0.067469  0.090085  0  3.926881  0
C  C141  1  0.01963500  0.04918314  0.37781125  1  -0.124196  0  -0.242981  -0.393599  0  3.976652  0
C  C142  1  0.80618971  0.98914875  0.63018626  1  0.400414  0  -0.067164  0.090476  0  3.92728  0
C  C143  1  0.98037720  0.95087544  0.62220174  1  -0.126553  0  -0.243142  -0.393826  0  3.97685  0
O  O144  1  0.35029411  0.20462317  0.70070691  1  -1.262939  0  -0.235319  -0.594872  0  2.340585  0
O  O145  1  0.64986274  0.79528574  0.29944622  1  -1.263886  0  -0.235133  -0.595129  0  2.340219  0
O  O146  1  0.85010480  0.29522255  0.79948688  1  -1.263574  0  -0.234919  -0.595032  0  2.340018  0
O  O147  1  0.14986365  0.70471720  0.20062890  1  -1.262369  0  -0.235012  -0.594603  0  2.340834  0
O  O148  1  0.69130550  0.19278036  0.80064748  1  -1.260371  0  -0.239474  -0.596065  0  2.350113  0
O  O149  1  0.30867502  0.80716836  0.19941909  1  -1.260162  0  -0.239346  -0.595802  0  2.350595  0
O  O150  1  0.19156562  0.30709219  0.69935207  1  -1.261344  0  -0.239038  -0.595221  0  2.351257  0
O  O151  1  0.80857618  0.69283915  0.30070697  1  -1.260566  0  -0.239431  -0.595729  0  2.350055  0
O  O152  1  0.69147536  0.20108287  0.70247280  1  -1.259644  0  -0.235781  -0.593186  0  2.342888  0
O  O153  1  0.30869208  0.79891959  0.29758198  1  -1.259917  0  -0.236125  -0.593294  0  2.342426  0
O  O154  1  0.19124959  0.29899476  0.79751401  1  -1.259542  0  -0.236025  -0.593092  0  2.342402  0
O  O155  1  0.80874602  0.70103442  0.20253814  1  -1.258941  0  -0.23595  -0.592835  0  2.342084  0
O  O156  1  0.84940084  0.30405542  0.69878334  1  -1.258561  0  -0.238605  -0.594558  0  2.353849  0
O  O157  1  0.15073644  0.69595863  0.30133322  1  -1.25969  0  -0.238644  -0.595196  0  2.353908  0
O  O158  1  0.34917879  0.19605333  0.80141591  1  -1.260166  0  -0.238932  -0.595417  0  2.35421  0
O  O159  1  0.65081078  0.80401645  0.19873983  1  -1.258258  0  -0.238864  -0.595342  0  2.35391  0
O  O160  1  0.52328955  0.28376454  0.74974723  1  -1.40313  0  -0.4477  -0.991592  0  2.216251  0
O  O161  1  0.47679950  0.71621435  0.25032319  1  -1.40328  0  -0.447972  -0.991945  0  2.21614  0
O  O162  1  0.02328024  0.21620304  0.75032655  1  -1.403167  0  -0.447725  -0.991548  0  2.215733  0
O  O163  1  0.97679072  0.78376945  0.24976126  1  -1.402889  0  -0.447669  -0.991615  0  2.216518  0
O  O164  1  0.65507857  0.54281469  0.10399192  1  -1.064287  0  -0.209455  -0.257457  0  2.499149  0
O  O165  1  0.34493965  0.45721435  0.89603456  1  -1.063055  0  -0.209735  -0.257218  0  2.498275  0
O  O166  1  0.15504976  0.95721325  0.39603604  1  -1.062878  0  -0.209691  -0.257112  0  2.498368  0
O  O167  1  0.84502122  0.04285007  0.60394800  1  -1.06375  0  -0.209821  -0.256982  0  2.498299  0
