# generated using pymatgen
data_Cu2PH14C17Br2N
_symmetry_space_group_name_H-M   'P 1'
_cell_length_a   7.10665848
_cell_length_b   10.36894306
_cell_length_c   13.03880792
_cell_angle_alpha   81.10603316
_cell_angle_beta   82.50704627
_cell_angle_gamma   83.95673123
_symmetry_Int_Tables_number   1
_chemical_formula_structural   Cu2PH14C17Br2N
_chemical_formula_sum   'Cu4 P2 H28 C34 Br4 N2'
_cell_volume   937.59221645
_cell_formula_units_Z   2
loop_
 _symmetry_equiv_pos_site_id
 _symmetry_equiv_pos_as_xyz
  1  'x, y, z'
loop_
 _atom_site_type_symbol
 _atom_site_label
 _atom_site_symmetry_multiplicity
 _atom_site_fract_x
 _atom_site_fract_y
 _atom_site_fract_z
 _atom_site_occupancy
 _atom_site_hle17_bader_spin_density
 _atom_site_hle17_ddec_charge
 _atom_site_hle17_ddec_spin_density
 _atom_site_hle17_ddec_sum_bond_order
 _atom_site_hle17_magmom
 _atom_site_hse06_10hf_bader_spin_density
 _atom_site_hse06_10hf_ddec_charge
 _atom_site_hse06_10hf_ddec_spin_density
 _atom_site_hse06_10hf_ddec_sum_bond_order
 _atom_site_hse06_10hf_magmom
 _atom_site_hse06_bader_spin_density
 _atom_site_hse06_ddec_charge
 _atom_site_hse06_ddec_spin_density
 _atom_site_hse06_ddec_sum_bond_order
 _atom_site_hse06_magmom
 _atom_site_pbe_bader_spin_density
 _atom_site_pbe_cm5_charge
 _atom_site_pbe_ddec_charge
 _atom_site_pbe_ddec_spin_density
 _atom_site_pbe_ddec_sum_bond_order
 _atom_site_pbe_magmom
Cu  Cu0  1  0.06719928  0.10218601  0.43150842  1  0  0.149016  0  2.370913  0  0  0.09098  0  2.84918  0  0  0.099504  0  2.793758  0  0  0.263651  0.086598  0  2.885028  0
Cu  Cu1  1  0.93280563  0.89780404  0.56848828  1  0  0.148978  0  2.370743  0  0  0.090926  0  2.849007  0  0  0.099441  0  2.793613  0  0  0.263612  0.08654  0  2.88486  0
Cu  Cu2  1  0.69442648  0.05013043  0.45406657  1  0  0.326992  0  2.051565  0  0  0.246483  0  2.511752  0  0  0.257362  0  2.457824  0  0  0.308265  0.241296  0  2.546391  0
Cu  Cu3  1  0.30558505  0.94985176  0.54593057  1  0  0.327042  0  2.051405  0  0  0.246519  0  2.511562  0  0  0.257405  0  2.457622  0  0  0.308279  0.241347  0  2.546195  0
P  P4  1  0.95885807  0.20737515  0.28787763  1  0  0.294253  0  3.800122  0  0  0.218534  0  4.271666  0  0  0.239129  0  4.249749  0  0  -0.04941  0.204759  0  4.285672  0
P  P5  1  0.04114539  0.79262539  0.71213411  1  0  0.294296  0  3.799951  0  0  0.21858  0  4.271478  0  0  0.239163  0  4.249567  0  0  -0.049402  0.204796  0  4.285471  0
H  H6  1  0.95194907  0.39851709  0.42150349  1  0  0.092068  0  0.948226  0  0  0.10283  0  1.009708  0  0  0.106429  0  1.007211  0  0  0.095341  0.100105  0  1.011722  0
H  H7  1  0.04807877  0.60148379  0.57848280  1  0  0.092088  0  0.948229  0  0  0.102877  0  1.009701  0  0  0.106477  0  1.007204  0  0  0.09535  0.100155  0  1.011717  0
H  H8  1  0.73183671  0.59513144  0.45650862  1  0  0.090231  0  0.982089  0  0  0.099255  0  1.046132  0  0  0.10239  0  1.045167  0  0  0.086969  0.096974  0  1.046749  0
H  H9  1  0.26819807  0.40487033  0.54348093  1  0  0.090152  0  0.982038  0  0  0.099189  0  1.046078  0  0  0.102321  0  1.045121  0  0  0.086961  0.09691  0  1.046695  0
H  H10  1  0.43908511  0.64753264  0.36834653  1  0  0.087289  0  0.976887  0  0  0.096433  0  1.042578  0  0  0.099518  0  1.040907  0  0  0.086356  0.094457  0  1.043253  0
H  H11  1  0.56093497  0.35247186  0.63165828  1  0  0.087297  0  0.977068  0  0  0.096451  0  1.042719  0  0  0.099534  0  1.041051  0  0  0.086345  0.094477  0  1.043393  0
H  H12  1  0.37067349  0.50957455  0.23927380  1  0  0.080529  0  0.956205  0  0  0.093315  0  1.013302  0  0  0.095766  0  1.012846  0  0  0.094086  0.091514  0  1.013905  0
H  H13  1  0.62932929  0.49041901  0.76074567  1  0  0.080476  0  0.956132  0  0  0.093305  0  1.013202  0  0  0.095764  0  1.012736  0  0  0.094143  0.091474  0  1.013836  0
H  H14  1  0.59317950  0.31880967  0.19968616  1  0  0.08082  0  0.981256  0  0  0.090109  0  1.049434  0  0  0.091099  0  1.051467  0  0  0.090831  0.08935  0  1.048188  0
H  H15  1  0.40679745  0.68117531  0.80032757  1  0  0.080872  0  0.98122  0  0  0.090134  0  1.049431  0  0  0.091124  0  1.051461  0  0  0.090837  0.089333  0  1.048223  0
H  H16  1  0.30574326  0.08532516  0.18911857  1  0  0.094093  0  0.949592  0  0  0.101783  0  1.017958  0  0  0.104842  0  1.016721  0  0  0.097365  0.099531  0  1.018916  0
H  H17  1  0.69425581  0.91466699  0.81087139  1  0  0.094088  0  0.949756  0  0  0.101765  0  1.018136  0  0  0.104833  0  1.016893  0  0  0.097341  0.099506  0  1.019095  0
H  H18  1  0.53036340  0.15726556  0.03314760  1  0  0.07773  0  0.978639  0  0  0.09096  0  1.035992  0  0  0.093129  0  1.035896  0  0  0.094309  0.089466  0  1.036033  0
H  H19  1  0.46962578  0.84275015  0.96683964  1  0  0.077768  0  0.97851  0  0  0.090951  0  1.035919  0  0  0.093123  0  1.035814  0  0  0.094298  0.089459  0  1.03596  0
H  H20  1  0.48518794  0.38303218  0.93587127  1  0  0.083212  0  0.970065  0  0  0.092519  0  1.034233  0  0  0.095152  0  1.033376  0  0  0.097914  0.090724  0  1.034703  0
H  H21  1  0.51478957  0.61698422  0.06413432  1  0  0.083301  0  0.969958  0  0  0.092653  0  1.034065  0  0  0.095299  0  1.033202  0  0  0.097943  0.090861  0  1.034539  0
H  H22  1  0.21513650  0.53620125  0.99551369  1  0  0.084969  0  0.957904  0  0  0.095541  0  1.018591  0  0  0.098162  0  1.018053  0  0  0.098995  0.09375  0  1.018914  0
H  H23  1  0.78485239  0.46381397  0.00450047  1  0  0.08499  0  0.95775  0  0  0.095527  0  1.018499  0  0  0.098149  0  1.01796  0  0  0.099014  0.093738  0  1.018817  0
H  H24  1  0.98480500  0.46299511  0.14869263  1  0  0.092354  0  0.968441  0  0  0.102492  0  1.028723  0  0  0.104841  0  1.029025  0  0  0.100377  0.100907  0  1.028406  0
H  H25  1  0.01518954  0.53700832  0.85132323  1  0  0.092334  0  0.968144  0  0  0.102455  0  1.02847  0  0  0.104801  0  1.028774  0  0  0.100379  0.10087  0  1.028153  0
H  H26  1  0.93327988  0.14336878  0.06960201  1  0  0.099289  0  0.961758  0  0  0.111082  0  1.019571  0  0  0.113661  0  1.019751  0  0  0.103783  0.109253  0  1.019495  0
H  H27  1  0.06668935  0.85664688  0.93039271  1  0  0.099208  0  0.961859  0  0  0.111071  0  1.019591  0  0  0.113653  0  1.01977  0  0  0.103779  0.109244  0  1.019516  0
H  H28  1  0.79405085  0.95265672  0.01824859  1  0  0.084579  0  0.967622  0  0  0.095804  0  1.029257  0  0  0.098309  0  1.027664  0  0  0.101296  0.093991  0  1.030467  0
H  H29  1  0.20593038  0.04735411  0.98173972  1  0  0.084556  0  0.967656  0  0  0.095846  0  1.029221  0  0  0.098348  0  1.027632  0  0  0.101334  0.094037  0  1.030429  0
H  H30  1  0.62175492  0.79906839  0.15933875  1  0  0.09887  0  0.964531  0  0  0.10814  0  1.025857  0  0  0.110893  0  1.025732  0  0  0.103757  0.105969  0  1.026463  0
H  H31  1  0.37824925  0.20092866  0.84064956  1  0  0.098847  0  0.964621  0  0  0.108149  0  1.025901  0  0  0.110901  0  1.025777  0  0  0.103776  0.105978  0  1.026507  0
H  H32  1  0.58256609  0.84895287  0.34331800  1  0  0.077617  0  0.988654  0  0  0.080953  0  1.063777  0  0  0.084393  0  1.060232  0  0  0.099264  0.078417  0  1.066273  0
H  H33  1  0.41745455  0.15102441  0.65667830  1  0  0.077702  0  0.988634  0  0  0.080995  0  1.063774  0  0  0.084432  0  1.060231  0  0  0.099281  0.078431  0  1.066289  0
C  C34  1  0.78909500  0.34776702  0.30672794  1  0  -0.096205  0  3.769554  0  0  -0.051758  0  4.004477  0  0  -0.059054  0  4.029052  0  0  -0.030715  -0.047153  0  3.9881  0
C  C35  1  0.21090593  0.65223170  0.69327650  1  0  -0.09647  0  3.769527  0  0  -0.051977  0  4.00438  0  0  -0.059267  0  4.028943  0  0  -0.030768  -0.047353  0  3.98796  0
C  C36  1  0.82704151  0.42567817  0.37954636  1  0  -0.069463  0  3.733876  0  0  -0.088957  0  3.973786  0  0  -0.089229  0  3.994292  0  0  -0.087632  -0.088715  0  3.960043  0
C  C37  1  0.17296992  0.57432850  0.62044882  1  0  -0.069472  0  3.733863  0  0  -0.089021  0  3.973806  0  0  -0.089291  0  3.994306  0  0  -0.087649  -0.088792  0  3.960064  0
C  C38  1  0.70372980  0.53478360  0.39965273  1  0  -0.06274  0  3.751497  0  0  -0.073144  0  3.994997  0  0  -0.076296  0  4.016689  0  0  -0.091489  -0.071013  0  3.980232  0
C  C39  1  0.29628642  0.46521805  0.60034806  1  0  -0.062501  0  3.751178  0  0  -0.072914  0  3.994684  0  0  -0.076057  0  4.016363  0  0  -0.091435  -0.070787  0  3.979925  0
C  C40  1  0.53955017  0.56522621  0.34908188  1  0  -0.057153  0  3.745443  0  0  -0.070875  0  3.991306  0  0  -0.071367  0  4.011799  0  0  -0.09002  -0.070556  0  3.977506  0
C  C41  1  0.46046126  0.43476754  0.65092471  1  0  -0.057215  0  3.745661  0  0  -0.070947  0  3.991542  0  0  -0.071437  0  4.012036  0  0  -0.08995  -0.070625  0  3.977725  0
C  C42  1  0.50123671  0.48807003  0.27676327  1  0  -0.076891  0  3.776658  0  0  -0.086923  0  4.023781  0  0  -0.090277  0  4.045713  0  0  -0.096853  -0.085011  0  4.009476  0
C  C43  1  0.49876490  0.51192277  0.72324409  1  0  -0.076886  0  3.776764  0  0  -0.086952  0  4.023911  0  0  -0.09031  0  4.045838  0  0  -0.097026  -0.085017  0  4.0096  0
C  C44  1  0.62625676  0.37995035  0.25468711  1  0  -0.068529  0  3.752087  0  0  -0.090957  0  3.997187  0  0  -0.091375  0  4.020699  0  0  -0.093176  -0.090677  0  3.981364  0
C  C45  1  0.37374660  0.62003948  0.74532199  1  0  -0.068451  0  3.751935  0  0  -0.090865  0  3.997035  0  0  -0.091284  0  4.020548  0  0  -0.093108  -0.090552  0  3.981211  0
C  C46  1  0.12700232  0.26844879  0.17705508  1  0  -0.082658  0  3.737934  0  0  -0.041243  0  3.974976  0  0  -0.047443  0  4.00008  0  0  -0.026357  -0.037464  0  3.958205  0
C  C47  1  0.87298112  0.73155394  0.82294856  1  0  -0.082518  0  3.73765  0  0  -0.041033  0  3.974586  0  0  -0.047234  0  3.999694  0  0  -0.026178  -0.037252  0  3.95781  0
C  C48  1  0.28389674  0.18339708  0.14534162  1  0  -0.074866  0  3.730866  0  0  -0.096115  0  3.978103  0  0  -0.096852  0  3.999246  0  0  -0.085225  -0.095477  0  3.963854  0
C  C49  1  0.71608827  0.81660472  0.85465895  1  0  -0.074992  0  3.730973  0  0  -0.096254  0  3.978217  0  0  -0.097002  0  3.999342  0  0  -0.085344  -0.095609  0  3.96396  0
C  C50  1  0.41079962  0.22430461  0.05828594  1  0  -0.080094  0  3.792391  0  0  -0.090178  0  4.037853  0  0  -0.093172  0  4.059661  0  0  -0.095362  -0.088045  0  4.022716  0
C  C51  1  0.58918507  0.77570019  0.94171125  1  0  -0.079927  0  3.792237  0  0  -0.089963  0  4.03769  0  0  -0.092957  0  4.059508  0  0  -0.095257  -0.087832  0  4.022549  0
C  C52  1  0.38604843  0.35095923  0.00386120  1  0  -0.07428  0  3.776156  0  0  -0.087452  0  4.022449  0  0  -0.088174  0  4.043161  0  0  -0.091647  -0.086684  0  4.00799  0
C  C53  1  0.61394053  0.64905612  0.99614603  1  0  -0.074534  0  3.776327  0  0  -0.087733  0  4.022595  0  0  -0.088473  0  4.043321  0  0  -0.091692  -0.086971  0  4.008146  0
C  C54  1  0.23421042  0.43710727  0.03733430  1  0  -0.071465  0  3.781808  0  0  -0.081399  0  4.027976  0  0  -0.084092  0  4.049374  0  0  -0.090916  -0.079664  0  4.013456  0
C  C55  1  0.76576991  0.56290909  0.96267263  1  0  -0.071465  0  3.781946  0  0  -0.081377  0  4.028147  0  0  -0.08407  0  4.049549  0  0  -0.090959  -0.079643  0  4.013631  0
C  C56  1  0.10469211  0.39610359  0.12334489  1  0  -0.083111  0  3.753682  0  0  -0.102108  0  3.991994  0  0  -0.103086  0  4.01413  0  0  -0.087539  -0.101379  0  3.977085  0
C  C57  1  0.89528609  0.60389520  0.87666185  1  0  -0.083173  0  3.753589  0  0  -0.102179  0  3.991932  0  0  -0.103157  0  4.014068  0  0  -0.087631  -0.101444  0  3.977013  0
C  C58  1  0.83687384  0.09195310  0.23294502  1  0  0.085421  0  3.666998  0  0  0.103182  0  3.91784  0  0  0.106269  0  3.937438  0  0  0.09788  0.100662  0  3.905234  0
C  C59  1  0.16314222  0.90803774  0.76705929  1  0  0.085765  0  3.667174  0  0  0.10348  0  3.918027  0  0  0.106571  0  3.937618  0  0  0.098024  0.100975  0  3.905407  0
C  C60  1  0.85683752  0.07471687  0.12785734  1  0  -0.132133  0  3.749514  0  0  -0.150644  0  3.99547  0  0  -0.15713  0  4.0174  0  0  -0.08665  -0.146152  0  3.980726  0
C  C61  1  0.14315244  0.92529192  0.87213368  1  0  -0.132247  0  3.749908  0  0  -0.150809  0  3.99588  0  0  -0.157299  0  4.017808  0  0  -0.086677  -0.146324  0  3.981139  0
C  C62  1  0.77924734  0.96889158  0.09964980  1  0  -0.02364  0  3.753154  0  0  -0.039569  0  3.999104  0  0  -0.035406  0  4.015852  0  0  -0.076925  -0.042511  0  3.987991  0
C  C63  1  0.22073805  0.03112024  0.90033736  1  0  -0.023561  0  3.752972  0  0  -0.039555  0  3.998948  0  0  -0.03539  0  4.015694  0  0  -0.076927  -0.042506  0  3.987843  0
C  C64  1  0.68077423  0.88475457  0.17716739  1  0  -0.113826  0  3.725842  0  0  -0.124267  0  3.96939  0  0  -0.129466  0  3.988007  0  0  -0.084695  -0.12117  0  3.957772  0
C  C65  1  0.31924190  0.11524929  0.82281935  1  0  -0.113824  0  3.725807  0  0  -0.124293  0  3.969344  0  0  -0.129492  0  3.987959  0  0  -0.084824  -0.1212  0  3.957718  0
C  C66  1  0.65996585  0.91066661  0.27990378  1  0  0.144354  0  3.656403  0  0  0.113185  0  3.90461  0  0  0.121259  0  3.918542  0  0  0.045981  0.107423  0  3.896226  0
C  C67  1  0.34004441  0.08932639  0.72009070  1  0  0.144365  0  3.656526  0  0  0.11325  0  3.904624  0  0  0.121323  0  3.918559  0  0  0.046099  0.10751  0  3.896259  0
Br  Br68  1  0.37455372  0.18583277  0.44823329  1  0  -0.408296  0  1.482365  0  0  -0.345673  0  1.871173  0  0  -0.366406  0  1.839964  0  0  -0.227995  -0.330559  0  1.891057  0
Br  Br69  1  0.62544895  0.81415242  0.55176257  1  0  -0.408209  0  1.482289  0  0  -0.345599  0  1.871136  0  0  -0.366341  0  1.839952  0  0  -0.227956  -0.330489  0  1.891029  0
Br  Br70  1  0.83081618  0.13929221  0.59110071  1  0  -0.37827  0  1.418003  0  0  -0.315869  0  1.762278  0  0  -0.334318  0  1.73177  0  0  -0.224335  -0.303414  0  1.782233  0
Br  Br71  1  0.16918959  0.86070277  0.40889309  1  0  -0.378285  0  1.418066  0  0  -0.315872  0  1.762338  0  0  -0.334338  0  1.731851  0  0  -0.224343  -0.303424  0  1.782317  0
N  N72  1  0.73747995  0.01100339  0.30778188  1  0  -0.270106  0  3.370765  0  0  -0.196505  0  3.637688  0  0  -0.209005  0  3.647808  0  0  -0.3495  -0.189538  0  3.632098  0
N  N73  1  0.26251295  0.98899149  0.69222123  1  0  -0.270354  0  3.370739  0  0  -0.196722  0  3.637623  0  0  -0.209222  0  3.647735  0  0  -0.349645  -0.189785  0  3.632056  0
