# generated using pymatgen
data_SmH8C6SNO9
_symmetry_space_group_name_H-M   'P 1'
_cell_length_a   6.92517853
_cell_length_b   8.78864120
_cell_length_c   18.67326879
_cell_angle_alpha   90.00002367
_cell_angle_beta   90.00031022
_cell_angle_gamma   99.84874032
_symmetry_Int_Tables_number   1
_chemical_formula_structural   SmH8C6SNO9
_chemical_formula_sum   'Sm4 H32 C24 S4 N4 O36'
_cell_volume   1119.76043800
_cell_formula_units_Z   4
loop_
 _symmetry_equiv_pos_site_id
 _symmetry_equiv_pos_as_xyz
  1  'x, y, z'
loop_
 _atom_site_type_symbol
 _atom_site_label
 _atom_site_symmetry_multiplicity
 _atom_site_fract_x
 _atom_site_fract_y
 _atom_site_fract_z
 _atom_site_occupancy
 _atom_site_hle17_bader_spin_density
 _atom_site_hle17_ddec_charge
 _atom_site_hle17_ddec_spin_density
 _atom_site_hle17_ddec_sum_bond_order
 _atom_site_hle17_magmom
 _atom_site_hse06_10hf_bader_spin_density
 _atom_site_hse06_10hf_ddec_charge
 _atom_site_hse06_10hf_ddec_spin_density
 _atom_site_hse06_10hf_ddec_sum_bond_order
 _atom_site_hse06_10hf_magmom
 _atom_site_hse06_bader_spin_density
 _atom_site_hse06_ddec_charge
 _atom_site_hse06_ddec_spin_density
 _atom_site_hse06_ddec_sum_bond_order
 _atom_site_hse06_magmom
 _atom_site_pbe_bader_spin_density
 _atom_site_pbe_cm5_charge
 _atom_site_pbe_ddec_charge
 _atom_site_pbe_ddec_spin_density
 _atom_site_pbe_ddec_sum_bond_order
 _atom_site_pbe_magmom
Sm  Sm0  1  0.77152837  0.60130920  0.54855557  1  0  2.37539  0  1.574182  0  0  2.289461  0  1.917826  0  0  2.330392  0  1.875825  0  0  1.513251  2.259446  0  1.947317  0
Sm  Sm1  1  0.22847440  0.89869233  0.04855529  1  0  2.37541  0  1.574219  0  0  2.289471  0  1.917869  0  0  2.330394  0  1.875865  0  0  1.513277  2.259452  0  1.947359  0
Sm  Sm2  1  0.22847328  0.39869235  0.45144453  1  0  2.375401  0  1.574181  0  0  2.289476  0  1.917822  0  0  2.330406  0  1.875822  0  0  1.513264  2.259458  0  1.947313  0
Sm  Sm3  1  0.77152555  0.10130807  0.95144481  1  0  2.375409  0  1.5742  0  0  2.289482  0  1.917844  0  0  2.330405  0  1.87584  0  0  1.513288  2.259461  0  1.947332  0
H  H4  1  0.66758272  0.64914696  0.79847957  1  0  0.327497  0  0.883316  0  0  0.306868  0  0.942245  0  0  0.316092  0  0.934876  0  0  0.322276  0.300384  0  0.9475  0
H  H5  1  0.33241877  0.85085185  0.29847895  1  0  0.327514  0  0.883223  0  0  0.306875  0  0.94217  0  0  0.316103  0  0.934795  0  0  0.322256  0.300392  0  0.947431  0
H  H6  1  0.33241748  0.35085460  0.20152052  1  0  0.327479  0  0.883302  0  0  0.306858  0  0.942245  0  0  0.316085  0  0.934873  0  0  0.322255  0.300375  0  0.947504  0
H  H7  1  0.66757948  0.14914740  0.70152114  1  0  0.327467  0  0.883233  0  0  0.306828  0  0.942191  0  0  0.316054  0  0.934819  0  0  0.322228  0.300347  0  0.947451  0
H  H8  1  0.03090279  0.65107728  0.69239467  1  0  0.112936  0  0.958163  0  0  0.119574  0  1.023408  0  0  0.123975  0  1.017183  0  0  0.119302  0.116099  0  1.028206  0
H  H9  1  0.96910151  0.84892814  0.19239533  1  0  0.112988  0  0.958087  0  0  0.119617  0  1.023344  0  0  0.124014  0  1.017118  0  0  0.119308  0.116136  0  1.02814  0
H  H10  1  0.96909716  0.34892312  0.30760596  1  0  0.112956  0  0.9581  0  0  0.119594  0  1.023354  0  0  0.123993  0  1.017127  0  0  0.11932  0.116116  0  1.028151  0
H  H11  1  0.03089675  0.15107111  0.80760476  1  0  0.112961  0  0.958097  0  0  0.119592  0  1.023348  0  0  0.123989  0  1.017123  0  0  0.119303  0.116111  0  1.028147  0
H  H12  1  0.09507310  0.73133933  0.81974256  1  0  0.128184  0  0.978713  0  0  0.133513  0  1.039432  0  0  0.137607  0  1.038442  0  0  0.110155  0.130606  0  1.040313  0
H  H13  1  0.90492949  0.76866301  0.31974307  1  0  0.12814  0  0.978759  0  0  0.133472  0  1.039483  0  0  0.137569  0  1.038487  0  0  0.110133  0.130566  0  1.040365  0
H  H14  1  0.90492541  0.26866108  0.18025754  1  0  0.128177  0  0.978752  0  0  0.133502  0  1.039479  0  0  0.137594  0  1.038487  0  0  0.110151  0.130598  0  1.04036  0
H  H15  1  0.09506902  0.23133739  0.68025702  1  0  0.128202  0  0.978701  0  0  0.133502  0  1.039458  0  0  0.137599  0  1.038464  0  0  0.110139  0.130597  0  1.040343  0
H  H16  1  0.43217298  0.72593812  0.87044371  1  0  0.112977  0  0.926684  0  0  0.119597  0  0.990824  0  0  0.123179  0  0.986518  0  0  0.13845  0.116933  0  0.993921  0
H  H17  1  0.56783055  0.77405859  0.37044302  1  0  0.113014  0  0.926726  0  0  0.119608  0  0.990898  0  0  0.123195  0  0.986583  0  0  0.138452  0.116947  0  0.993996  0
H  H18  1  0.56782672  0.27406113  0.12955638  1  0  0.113042  0  0.926661  0  0  0.119695  0  0.990751  0  0  0.123278  0  0.986444  0  0  0.138478  0.117031  0  0.993852  0
H  H19  1  0.43216770  0.22594066  0.62955708  1  0  0.113028  0  0.926704  0  0  0.11962  0  0.990882  0  0  0.123205  0  0.98657  0  0  0.138451  0.116958  0  0.993981  0
H  H20  1  0.46042594  0.82117305  0.52066675  1  0  0.444212  0  0.852699  0  0  0.413833  0  0.914151  0  0  0.424074  0  0.899233  0  0  0.30208  0.406581  0  0.924718  0
H  H21  1  0.53957301  0.67882609  0.02066651  1  0  0.444217  0  0.852693  0  0  0.41384  0  0.91414  0  0  0.424081  0  0.899222  0  0  0.302084  0.406587  0  0.924709  0
H  H22  1  0.53957206  0.17882505  0.47933335  1  0  0.444217  0  0.852689  0  0  0.413843  0  0.91413  0  0  0.424084  0  0.899213  0  0  0.302109  0.406592  0  0.924697  0
H  H23  1  0.46042694  0.32117431  0.97933358  1  0  0.444205  0  0.852712  0  0  0.413828  0  0.914159  0  0  0.424069  0  0.899241  0  0  0.302073  0.406575  0  0.924728  0
H  H24  1  0.67189722  0.91668486  0.52018499  1  0  0.439105  0  0.860413  0  0  0.407353  0  0.925089  0  0  0.417924  0  0.909542  0  0  0.299713  0.399886  0  0.936053  0
H  H25  1  0.32810343  0.58331544  0.02018432  1  0  0.439096  0  0.860422  0  0  0.407343  0  0.925102  0  0  0.417913  0  0.909555  0  0  0.299708  0.399877  0  0.936064  0
H  H26  1  0.32810273  0.08331555  0.47981563  1  0  0.439159  0  0.860341  0  0  0.407381  0  0.925051  0  0  0.417951  0  0.909504  0  0  0.299741  0.399914  0  0.936014  0
H  H27  1  0.67189652  0.41668497  0.97981577  1  0  0.439093  0  0.860426  0  0  0.407341  0  0.925103  0  0  0.417911  0  0.909557  0  0  0.299705  0.399873  0  0.936068  0
H  H28  1  0.91063300  0.92793386  0.61650474  1  0  0.440568  0  0.853874  0  0  0.412636  0  0.910908  0  0  0.423002  0  0.895836  0  0  0.299093  0.405334  0  0.92152  0
H  H29  1  0.08937057  0.57206671  0.11650572  1  0  0.4405  0  0.853972  0  0  0.412532  0  0.91104  0  0  0.422892  0  0.89598  0  0  0.29905  0.40523  0  0.921653  0
H  H30  1  0.08936696  0.07206654  0.38349535  1  0  0.440556  0  0.853894  0  0  0.412626  0  0.910924  0  0  0.422993  0  0.89585  0  0  0.299089  0.405324  0  0.921536  0
H  H31  1  0.91063083  0.42793369  0.88349437  1  0  0.440539  0  0.85391  0  0  0.412613  0  0.91093  0  0  0.422973  0  0.895868  0  0  0.299068  0.40531  0  0.921546  0
H  H32  1  0.08114413  0.87161971  0.57195305  1  0  0.431489  0  0.865502  0  0  0.400474  0  0.928912  0  0  0.410778  0  0.913828  0  0  0.298238  0.39319  0  0.939562  0
H  H33  1  0.91885756  0.62838189  0.07195464  1  0  0.431483  0  0.865481  0  0  0.400423  0  0.928986  0  0  0.410732  0  0.913893  0  0  0.298227  0.39314  0  0.939635  0
H  H34  1  0.91885557  0.12837954  0.42804597  1  0  0.43152  0  0.865459  0  0  0.400505  0  0.928867  0  0  0.41081  0  0.913783  0  0  0.298256  0.393223  0  0.939515  0
H  H35  1  0.08114265  0.37161967  0.92804599  1  0  0.431571  0  0.865386  0  0  0.400524  0  0.928862  0  0  0.410832  0  0.91377  0  0  0.298256  0.39324  0  0.939513  0
C  C36  1  0.51768954  0.62208274  0.70149533  1  0  0.573948  0  3.797625  0  0  0.530789  0  4.074043  0  0  0.559532  0  4.0778  0  0  0.243472  0.511692  0  4.070938  0
C  C37  1  0.48231430  0.87791347  0.20149502  1  0  0.573913  0  3.797782  0  0  0.530782  0  4.074186  0  0  0.559529  0  4.077939  0  0  0.243451  0.511685  0  4.071082  0
C  C38  1  0.48231423  0.37791534  0.29850530  1  0  0.573853  0  3.79776  0  0  0.530725  0  4.074216  0  0  0.559471  0  4.077971  0  0  0.24342  0.511627  0  4.071113  0
C  C39  1  0.51768421  0.12208694  0.79850508  1  0  0.573812  0  3.798037  0  0  0.53073  0  4.074396  0  0  0.559473  0  4.078155  0  0  0.243429  0.511641  0  4.071279  0
C  C40  1  0.32382054  0.61551466  0.67194541  1  0  -0.268322  0  3.682434  0  0  -0.247794  0  3.924684  0  0  -0.269951  0  3.947239  0  0  -0.021639  -0.233719  0  3.909673  0
C  C41  1  0.67618531  0.88448607  0.17194548  1  0  -0.268153  0  3.682458  0  0  -0.247692  0  3.924786  0  0  -0.269852  0  3.947346  0  0  -0.021572  -0.233612  0  3.909766  0
C  C42  1  0.67618111  0.38448689  0.32805469  1  0  -0.268169  0  3.682463  0  0  -0.247702  0  3.924773  0  0  -0.269859  0  3.947329  0  0  -0.021564  -0.233624  0  3.909757  0
C  C43  1  0.32381388  0.11551087  0.82805407  1  0  -0.268113  0  3.682502  0  0  -0.247692  0  3.924852  0  0  -0.269853  0  3.947416  0  0  -0.021566  -0.233616  0  3.909829  0
C  C44  1  0.17644339  0.65568143  0.71506251  1  0  0.065417  0  3.663903  0  0  0.033437  0  3.913017  0  0  0.047591  0  3.924521  0  0  -0.042674  0.024793  0  3.904974  0
C  C45  1  0.82355853  0.84431829  0.21506181  1  0  0.065168  0  3.66393  0  0  0.033217  0  3.913089  0  0  0.047371  0  3.924598  0  0  -0.042783  0.02458  0  3.905038  0
C  C46  1  0.82355512  0.34431898  0.28493758  1  0  0.065325  0  3.66391  0  0  0.03335  0  3.91307  0  0  0.047507  0  3.924571  0  0  -0.042754  0.02471  0  3.905023  0
C  C47  1  0.17644142  0.15568211  0.78493829  1  0  0.065286  0  3.664057  0  0  0.033356  0  3.913195  0  0  0.04751  0  3.924705  0  0  -0.042724  0.024715  0  3.905147  0
C  C48  1  0.21044782  0.70102218  0.78633984  1  0  -0.165158  0  3.743065  0  0  -0.181134  0  4.010224  0  0  -0.195134  0  4.031828  0  0  -0.099831  -0.172316  0  3.995645  0
C  C49  1  0.78955612  0.79897543  0.28633959  1  0  -0.165  0  3.742911  0  0  -0.180997  0  4.010064  0  0  -0.194998  0  4.03167  0  0  -0.099767  -0.172181  0  3.995486  0
C  C50  1  0.78955094  0.29897938  0.21366025  1  0  -0.16513  0  3.743183  0  0  -0.181102  0  4.010343  0  0  -0.195097  0  4.031943  0  0  -0.099816  -0.172285  0  3.995765  0
C  C51  1  0.21044136  0.20102036  0.71366050  1  0  -0.165088  0  3.743086  0  0  -0.181058  0  4.010232  0  0  -0.195059  0  4.031835  0  0  -0.099788  -0.172247  0  3.995664  0
C  C52  1  0.39250421  0.69744339  0.81501042  1  0  0.190516  0  3.615355  0  0  0.144422  0  3.877763  0  0  0.158373  0  3.890516  0  0  0.073177  0.135528  0  3.868986  0
C  C53  1  0.60749806  0.80255778  0.31500981  1  0  0.190453  0  3.615449  0  0  0.144384  0  3.877846  0  0  0.158335  0  3.890603  0  0  0.073145  0.135488  0  3.869076  0
C  C54  1  0.60749600  0.30255817  0.18498914  1  0  0.190367  0  3.615438  0  0  0.144289  0  3.877833  0  0  0.15824  0  3.890588  0  0  0.073112  0.135395  0  3.869057  0
C  C55  1  0.39250045  0.19744262  0.68499028  1  0  0.190395  0  3.615498  0  0  0.144336  0  3.877883  0  0  0.158286  0  3.890639  0  0  0.07315  0.135444  0  3.869113  0
C  C56  1  0.27611824  0.56157600  0.59791279  1  0  0.746768  0  3.838713  0  0  0.700847  0  4.127731  0  0  0.738125  0  4.116123  0  0  0.232836  0.67552  0  4.135174  0
C  C57  1  0.72388530  0.93842567  0.09791244  1  0  0.746676  0  3.838742  0  0  0.700727  0  4.127816  0  0  0.738006  0  4.116214  0  0  0.232752  0.675395  0  4.135257  0
C  C58  1  0.72388265  0.43842209  0.40208731  1  0  0.746676  0  3.838807  0  0  0.700782  0  4.127825  0  0  0.738059  0  4.116217  0  0  0.232821  0.675451  0  4.135266  0
C  C59  1  0.27611440  0.06157358  0.90208766  1  0  0.746655  0  3.838743  0  0  0.700703  0  4.127838  0  0  0.737983  0  4.116238  0  0  0.232744  0.675372  0  4.135281  0
S  S60  1  0.15455893  0.80259556  0.43571024  1  0  1.622824  0  5.784236  0  0  1.494873  0  6.334703  0  0  1.551073  0  6.296183  0  0  0.595694  1.456025  0  6.360328  0
S  S61  1  0.84544178  0.69740367  0.93571015  1  0  1.62279  0  5.784402  0  0  1.494833  0  6.334867  0  0  1.551014  0  6.296369  0  0  0.595691  1.455988  0  6.360496  0
S  S62  1  0.84544221  0.19740369  0.56428986  1  0  1.622806  0  5.784352  0  0  1.49485  0  6.334816  0  0  1.551045  0  6.296301  0  0  0.595693  1.456003  0  6.36044  0
S  S63  1  0.15455817  0.30259674  0.06428941  1  0  1.622771  0  5.784503  0  0  1.494793  0  6.334999  0  0  1.550983  0  6.296495  0  0  0.595661  1.45595  0  6.360625  0
N  N64  1  0.53607060  0.65806589  0.77356950  1  0  -0.337036  0  3.337095  0  0  -0.266041  0  3.561537  0  0  -0.286772  0  3.570278  0  0  -0.356349  -0.252386  0  3.555403  0
N  N65  1  0.46393536  0.84193515  0.27356915  1  0  -0.337116  0  3.337232  0  0  -0.266119  0  3.561647  0  0  -0.286849  0  3.570381  0  0  -0.356334  -0.252469  0  3.555519  0
N  N66  1  0.46393105  0.34193566  0.22643059  1  0  -0.336963  0  3.337052  0  0  -0.266061  0  3.561587  0  0  -0.286792  0  3.570325  0  0  -0.356323  -0.252404  0  3.555452  0
N  N67  1  0.53606315  0.15806526  0.72643095  1  0  -0.337019  0  3.337239  0  0  -0.266045  0  3.561651  0  0  -0.286772  0  3.570387  0  0  -0.356319  -0.252404  0  3.555518  0
O  O68  1  0.67130274  0.59876987  0.66918298  1  0  -0.692097  0  2.022101  0  0  -0.654922  0  2.271223  0  0  -0.677807  0  2.260481  0  0  -0.401931  -0.638828  0  2.278098  0
O  O69  1  0.32870239  0.90123432  0.16918290  1  0  -0.692053  0  2.022185  0  0  -0.654873  0  2.271283  0  0  -0.67776  0  2.260538  0  0  -0.401889  -0.638777  0  2.278155  0
O  O70  1  0.32870061  0.40123283  0.33081658  1  0  -0.692057  0  2.022173  0  0  -0.654864  0  2.271267  0  0  -0.677751  0  2.260524  0  0  -0.401882  -0.638771  0  2.27814  0
O  O71  1  0.67129637  0.09876724  0.83081666  1  0  -0.692032  0  2.022294  0  0  -0.654869  0  2.271373  0  0  -0.677757  0  2.260634  0  0  -0.401896  -0.638778  0  2.278241  0
O  O72  1  0.40633120  0.50998974  0.56000632  1  0  -0.798143  0  2.101853  0  0  -0.754818  0  2.362729  0  0  -0.779214  0  2.349985  0  0  -0.419323  -0.737697  0  2.371021  0
O  O73  1  0.59366955  0.99000836  0.06000572  1  0  -0.798189  0  2.101968  0  0  -0.754849  0  2.3629  0  0  -0.779237  0  2.35013  0  0  -0.419319  -0.737726  0  2.37119  0
O  O74  1  0.59366994  0.49000950  0.43999377  1  0  -0.798121  0  2.10186  0  0  -0.754787  0  2.362699  0  0  -0.779183  0  2.349956  0  0  -0.419317  -0.737664  0  2.370991  0
O  O75  1  0.40633185  0.00999204  0.93999384  1  0  -0.798174  0  2.101922  0  0  -0.754822  0  2.362839  0  0  -0.779215  0  2.350077  0  0  -0.419316  -0.737702  0  2.37113  0
O  O76  1  0.10620576  0.56144809  0.57176776  1  0  -0.792707  0  2.118526  0  0  -0.753505  0  2.382179  0  0  -0.778367  0  2.369438  0  0  -0.387915  -0.735865  0  2.389919  0
O  O77  1  0.89380145  0.93855234  0.07176935  1  0  -0.792598  0  2.118514  0  0  -0.753353  0  2.382118  0  0  -0.778196  0  2.369331  0  0  -0.387856  -0.735724  0  2.389883  0
O  O78  1  0.89379564  0.43855231  0.42823126  1  0  -0.79268  0  2.118622  0  0  -0.753451  0  2.382198  0  0  -0.778318  0  2.369473  0  0  -0.387909  -0.735836  0  2.389991  0
O  O79  1  0.10619850  0.06144807  0.92823074  1  0  -0.792608  0  2.118535  0  0  -0.753367  0  2.382162  0  0  -0.778202  0  2.369356  0  0  -0.387862  -0.735735  0  2.389912  0
O  O80  1  0.59870161  0.81150991  0.53032722  1  0  -0.936753  0  1.873259  0  0  -0.897996  0  2.074631  0  0  -0.915992  0  2.042348  0  0  -0.666366  -0.885154  0  2.097024  0
O  O81  1  0.40129894  0.68848926  0.03032671  1  0  -0.936743  0  1.873245  0  0  -0.897992  0  2.074629  0  0  -0.915988  0  2.042348  0  0  -0.666367  -0.88515  0  2.097018  0
O  O82  1  0.40129809  0.18848934  0.46967395  1  0  -0.936798  0  1.873192  0  0  -0.898034  0  2.074627  0  0  -0.91603  0  2.042345  0  0  -0.666428  -0.885183  0  2.097  0
O  O83  1  0.59870102  0.31151114  0.96967339  1  0  -0.936732  0  1.87326  0  0  -0.897975  0  2.074638  0  0  -0.915971  0  2.042359  0  0  -0.666358  -0.885131  0  2.097022  0
O  O84  1  0.96761745  0.83534708  0.60351992  1  0  -0.914819  0  1.871679  0  0  -0.872774  0  2.053629  0  0  -0.891955  0  2.023458  0  0  -0.642624  -0.859137  0  2.074574  0
O  O85  1  0.03238905  0.66465460  0.10352027  1  0  -0.914746  0  1.871734  0  0  -0.87263  0  2.053724  0  0  -0.891811  0  2.023556  0  0  -0.642573  -0.858995  0  2.074674  0
O  O86  1  0.03238369  0.16465216  0.39647964  1  0  -0.914832  0  1.871666  0  0  -0.872791  0  2.053616  0  0  -0.89197  0  2.023442  0  0  -0.642627  -0.859144  0  2.074543  0
O  O87  1  0.96761260  0.33534695  0.89647982  1  0  -0.914859  0  1.871616  0  0  -0.872813  0  2.05357  0  0  -0.891997  0  2.023405  0  0  -0.642617  -0.859164  0  2.074488  0
O  O88  1  0.94271202  0.75643932  0.45138958  1  0  -0.813273  0  2.031285  0  0  -0.766862  0  2.305362  0  0  -0.788289  0  2.287593  0  0  -0.413288  -0.751731  0  2.317142  0
O  O89  1  0.05728655  0.74356227  0.95139007  1  0  -0.813257  0  2.031331  0  0  -0.766846  0  2.305427  0  0  -0.788278  0  2.287668  0  0  -0.413278  -0.751716  0  2.317207  0
O  O90  1  0.05728649  0.24356109  0.54861051  1  0  -0.813252  0  2.031307  0  0  -0.766843  0  2.305398  0  0  -0.788269  0  2.28763  0  0  -0.413278  -0.751714  0  2.317178  0
O  O91  1  0.94271340  0.25643814  0.04860949  1  0  -0.813263  0  2.031374  0  0  -0.766845  0  2.305459  0  0  -0.788274  0  2.287693  0  0  -0.413295  -0.751716  0  2.317239  0
O  O92  1  0.25069605  0.89074330  0.49931731  1  0  -0.745582  0  1.972501  0  0  -0.666148  0  2.18992  0  0  -0.689878  0  2.172307  0  0  -0.331926  -0.649442  0  2.201693  0
O  O93  1  0.74930300  0.60925728  0.99931701  1  0  -0.745585  0  1.972484  0  0  -0.66614  0  2.18991  0  0  -0.689887  0  2.17233  0  0  -0.331937  -0.649435  0  2.201685  0
O  O94  1  0.74930272  0.10925827  0.50068278  1  0  -0.745583  0  1.972493  0  0  -0.666163  0  2.189917  0  0  -0.689897  0  2.172315  0  0  -0.331923  -0.649457  0  2.20169  0
O  O95  1  0.25069669  0.39074197  0.00068255  1  0  -0.745545  0  1.972518  0  0  -0.666115  0  2.189965  0  0  -0.689854  0  2.172368  0  0  -0.331894  -0.64941  0  2.201737  0
O  O96  1  0.25088934  0.66634980  0.42278489  1  0  -0.83373  0  2.037373  0  0  -0.796261  0  2.328712  0  0  -0.816331  0  2.307801  0  0  -0.428597  -0.781994  0  2.342613  0
O  O97  1  0.74910947  0.83364823  0.92278463  1  0  -0.833678  0  2.03739  0  0  -0.796208  0  2.328733  0  0  -0.816285  0  2.307837  0  0  -0.428578  -0.781942  0  2.342633  0
O  O98  1  0.74911035  0.33364944  0.57721520  1  0  -0.833691  0  2.037362  0  0  -0.796216  0  2.328699  0  0  -0.816287  0  2.307792  0  0  -0.428579  -0.781948  0  2.342599  0
O  O99  1  0.25089048  0.16635217  0.07721492  1  0  -0.833707  0  2.037397  0  0  -0.796236  0  2.328755  0  0  -0.816311  0  2.307853  0  0  -0.428583  -0.78197  0  2.342654  0
O  O100  1  0.18200344  0.90296259  0.37131073  1  0  -0.714231  0  1.943041  0  0  -0.64943  0  2.167862  0  0  -0.672047  0  2.151109  0  0  -0.33528  -0.633749  0  2.179266  0
O  O101  1  0.81799654  0.59703760  0.87131110  1  0  -0.714242  0  1.943139  0  0  -0.649452  0  2.167969  0  0  -0.672021  0  2.151186  0  0  -0.335291  -0.63377  0  2.179371  0
O  O102  1  0.81799507  0.09703781  0.62868883  1  0  -0.714244  0  1.943098  0  0  -0.649432  0  2.16791  0  0  -0.672037  0  2.15115  0  0  -0.335291  -0.633746  0  2.179311  0
O  O103  1  0.18200341  0.40296281  0.12868846  1  0  -0.714243  0  1.943187  0  0  -0.649408  0  2.167987  0  0  -0.672001  0  2.151224  0  0  -0.33528  -0.633726  0  2.179395  0
