# generated using pymatgen
data_ZnH27(C11O3)3
_symmetry_space_group_name_H-M   'P 1'
_cell_length_a   7.86106837
_cell_length_b   15.42147781
_cell_length_c   15.42033923
_cell_angle_alpha   92.96767090
_cell_angle_beta   99.08545675
_cell_angle_gamma   99.07766357
_symmetry_Int_Tables_number   1
_chemical_formula_structural   ZnH27(C11O3)3
_chemical_formula_sum   'Zn2 H54 C66 O18'
_cell_volume   1817.17756612
_cell_formula_units_Z   2
loop_
 _symmetry_equiv_pos_site_id
 _symmetry_equiv_pos_as_xyz
  1  'x, y, z'
loop_
 _atom_site_type_symbol
 _atom_site_label
 _atom_site_symmetry_multiplicity
 _atom_site_fract_x
 _atom_site_fract_y
 _atom_site_fract_z
 _atom_site_occupancy
 _atom_site_pbe_bader_charge
 _atom_site_pbe_bader_spin_density
 _atom_site_pbe_cm5_charge
 _atom_site_pbe_ddec_charge
 _atom_site_pbe_ddec_spin_density
 _atom_site_pbe_ddec_sum_bond_order
 _atom_site_pbe_magmom
Zn  Zn0  1  0.20209715  0.49540508  0.63118755  1  1.339162  0  0.699575  0.975043  0  2.209916  0
Zn  Zn1  1  0.70211944  0.63116577  0.49539715  1  1.339243  0  0.699616  0.975144  0  2.209831  0
H  H2  1  0.94434871  0.28344542  0.41729631  1  0.075855  0  0.110433  0.100024  0  0.967647  0
H  H3  1  0.61460533  0.22894732  0.87149394  1  0.083265  0  0.105869  0.11447  0  1.040279  0
H  H4  1  0.73651683  0.63982700  0.72566367  1  0.15106  0  0.113703  0.116252  0  1.022777  0
H  H5  1  0.65513754  0.02341909  0.32994022  1  0.045572  0  0.089296  0.127094  0  1.011842  0
H  H6  1  0.62212699  0.07850593  0.79978537  1  0.073768  0  0.101731  0.105107  0  1.025837  0
H  H7  1  0.36249844  0.91673137  0.14849773  1  0.067738  0  0.100582  0.102653  0  1.021634  0
H  H8  1  0.23666227  0.05397800  0.11350948  1  0.04217  0  0.086944  0.119345  0  1.042403  0
H  H9  1  0.98329933  0.19088828  0.14518374  1  0.079186  0  0.101362  0.10476  0  1.008552  0
H  H10  1  0.03963155  0.13649737  0.75030611  1  0.066189  0  0.093442  0.133924  0  1.007287  0
H  H11  1  0.68871006  0.88048056  0.91286677  1  0.101314  0  0.097572  0.095925  0  1.032955  0
H  H12  1  0.87635136  0.72586559  0.68337305  1  0.165713  0  0.117111  0.127174  0  1.012462  0
H  H13  1  0.18690557  0.06326899  0.73234685  1  0.074792  0  0.096504  0.139688  0  0.993386  0
H  H14  1  0.71339931  0.82306198  0.35310206  1  0.130126  0  0.109159  0.122541  0  1.00131  0
H  H15  1  0.34758727  0.32904601  0.10193430  1  0.052868  0  0.086471  0.121241  0  1.039197  0
H  H16  1  0.48327118  0.14512642  0.19090512  1  0.078146  0  0.10134  0.104674  0  1.008228  0
H  H17  1  0.68673020  0.73243319  0.06320802  1  0.076446  0  0.096408  0.139657  0  0.993528  0
H  H18  1  0.70479224  0.33964118  0.03120498  1  0.084789  0  0.104125  0.109216  0  0.999752  0
H  H19  1  0.25670813  0.83780987  0.50502401  1  0.086326  0  0.111779  0.099561  0  0.97025  0
H  H20  1  0.73671290  0.11348270  0.05394259  1  0.041747  0  0.086857  0.119075  0  1.042724  0
H  H21  1  0.40020492  0.16577570  0.41715174  1  0.058762  0  0.116425  0.132564  0  0.970196  0
H  H22  1  0.90016331  0.41706368  0.16579227  1  0.059922  0  0.116391  0.132334  0  0.970082  0
H  H23  1  0.47177606  0.77886015  0.43264181  1  0.122421  0  0.109704  0.126127  0  1.039841  0
H  H24  1  0.15514643  0.32987471  0.02342219  1  0.046016  0  0.08914  0.127011  0  1.011825  0
H  H25  1  0.97181561  0.43261140  0.77882266  1  0.122987  0  0.109651  0.126058  0  1.039823  0
H  H26  1  0.18877958  0.91287651  0.88045480  1  0.102234  0  0.097657  0.096118  0  1.032902  0
H  H27  1  0.86252088  0.14849817  0.91669782  1  0.068524  0  0.100636  0.10264  0  1.021683  0
H  H28  1  0.07691801  0.06639213  0.02347605  1  0.034859  0  0.091398  0.131128  0  1.011815  0
H  H29  1  0.57699645  0.02343285  0.06633047  1  0.034683  0  0.091443  0.131023  0  1.01179  0
H  H30  1  0.27431668  0.42653667  0.34772951  1  0.124273  0  0.118096  0.119651  0  0.989103  0
H  H31  1  0.66473424  0.02719963  0.96820918  1  0.032604  0  0.08762  0.121725  0  1.04007  0
H  H32  1  0.37637171  0.68337225  0.72585047  1  0.166047  0  0.117118  0.127205  0  1.012508  0
H  H33  1  0.77429392  0.34769528  0.42656424  1  0.123752  0  0.118034  0.119595  0  0.989223  0
H  H34  1  0.23649397  0.72564044  0.63980549  1  0.149425  0  0.113655  0.116152  0  1.022988  0
H  H35  1  0.21343803  0.35306493  0.82302117  1  0.129901  0  0.109174  0.12249  0  1.001372  0
H  H36  1  0.53948384  0.75040424  0.13645000  1  0.066274  0  0.093313  0.1338  0  1.00714  0
H  H37  1  0.16467854  0.96827513  0.02719356  1  0.015908  0  0.087804  0.122232  0  1.040149  0
H  H38  1  0.36056002  0.38208823  0.00367219  1  0.048474  0  0.096744  0.138071  0  0.979743  0
H  H39  1  0.86055679  0.00362517  0.38213421  1  0.048695  0  0.096784  0.138306  0  0.979654  0
H  H40  1  0.73142496  0.78328597  0.78844459  1  0.107422  0  0.108563  0.123347  0  1.039476  0
H  H41  1  0.84762192  0.10191291  0.32913737  1  0.052459  0  0.086396  0.12105  0  1.039176  0
H  H42  1  0.16450061  0.70114698  0.95326937  1  0.081386  0  0.115538  0.132628  0  0.975237  0
H  H43  1  0.75676050  0.50501082  0.83779545  1  0.086884  0  0.111881  0.09969  0  0.970138  0
H  H44  1  0.22641368  0.72291506  0.46968747  1  0.100899  0  0.123844  0.122411  0  0.957911  0
H  H45  1  0.01404997  0.02987052  0.78974827  1  0.031139  0  0.091451  0.12948  0  0.99732  0
H  H46  1  0.44434897  0.41724452  0.28348136  1  0.076346  0  0.110476  0.100068  0  0.967653  0
H  H47  1  0.67302808  0.22228191  0.32380836  1  0.08315  0  0.107416  0.11517  0  1.027356  0
H  H48  1  0.51392464  0.78988976  0.02982808  1  0.029225  0  0.091248  0.129266  0  0.996999  0
H  H49  1  0.11455900  0.87152118  0.22894167  1  0.08254  0  0.105874  0.114513  0  1.040525  0
H  H50  1  0.66446314  0.95323704  0.70106793  1  0.081379  0  0.115426  0.132385  0  0.974966  0
H  H51  1  0.23144328  0.78844653  0.78325961  1  0.107982  0  0.108645  0.123299  0  1.039362  0
H  H52  1  0.17307415  0.32378327  0.22233506  1  0.08354  0  0.10743  0.115166  0  1.027361  0
H  H53  1  0.12213265  0.79987300  0.07852575  1  0.073874  0  0.101799  0.105368  0  1.025646  0
H  H54  1  0.72644326  0.46968758  0.72288192  1  0.101099  0  0.123907  0.122569  0  0.957562  0
H  H55  1  0.20483214  0.03120142  0.33972778  1  0.084436  0  0.104044  0.109112  0  0.99966  0
C  C56  1  0.32039878  0.23965014  0.98615064  1  0.016865  0  -0.003787  0.090121  0  3.942489  0
C  C57  1  0.11087857  0.08681860  0.77991415  1  -0.110209  0  -0.239088  -0.40722  0  3.96491  0
C  C58  1  0.95653706  0.02131681  0.19574629  1  -0.005387  0  -0.014576  -0.065112  0  3.962174  0
C  C59  1  0.40230632  0.00454072  0.84754945  1  -0.051641  0  -0.007219  0.075971  0  3.989073  0
C  C60  1  0.05626668  0.24622434  0.87547286  1  -0.069072  0  -0.002807  0.080463  0  3.993866  0
C  C61  1  0.72836020  0.86514877  0.12353641  1  -0.001186  0  -0.002149  0.093477  0  3.943459  0
C  C62  1  0.20449452  0.20191886  0.90923662  1  0.018286  0  -0.010145  -0.058262  0  3.963441  0
C  C63  1  0.08347974  0.32618314  0.83572883  1  -0.078183  0  -0.074772  -0.088129  0  3.931382  0
C  C64  1  0.29416985  0.32437860  0.03146235  1  -0.078644  0  -0.242195  -0.409744  0  3.979338  0
C  C65  1  0.44624766  0.80990612  0.37113197  1  0.008345  0  -0.094976  -0.195809  0  3.951388  0
C  C66  1  0.79417471  0.84185785  0.92206415  1  -0.056455  0  -0.083998  -0.102685  0  3.971177  0
C  C67  1  0.49708402  0.50139920  0.76293199  1  1.617268  0  0.205626  0.596631  0  4.209163  0
C  C68  1  0.99704161  0.76294390  0.50139622  1  1.617349  0  0.205465  0.596547  0  4.208763  0
C  C69  1  0.07562136  0.18443259  0.20427091  1  -0.055019  0  -0.083257  -0.099152  0  3.965223  0
C  C70  1  0.94950707  0.73534027  0.86421780  1  0.429587  0  0.09854  0.267979  0  4.040369  0
C  C71  1  0.79935040  0.32469770  0.25283588  1  0.454755  0  0.095252  0.262998  0  4.061709  0
C  C72  1  0.29420338  0.92207200  0.84181430  1  -0.056059  0  -0.0841  -0.103424  0  3.971119  0
C  C73  1  0.94029238  0.59831749  0.66162080  1  1.598014  0  0.220451  0.617808  0  4.163352  0
C  C74  1  0.66710701  0.46491170  0.78312044  1  0.367199  0  -0.060175  -0.124712  0  3.866118  0
C  C75  1  0.98059492  0.97892483  0.11624020  1  -0.066476  0  -0.001411  0.100252  0  3.933961  0
C  C76  1  0.74669926  0.25446660  0.86124050  1  0.01406  0  -0.097854  -0.19153  0  3.992329  0
C  C77  1  0.38497191  0.88612552  0.21050585  1  -0.040463  0  -0.089211  -0.123869  0  3.99584  0
C  C78  1  0.12268508  0.01832435  0.06823308  1  -0.035188  0  -0.245069  -0.421082  0  3.985021  0
C  C79  1  0.90227029  0.84759570  0.00454300  1  -0.052236  0  -0.007032  0.075621  0  3.989631  0
C  C80  1  0.88501895  0.21049689  0.88608164  1  -0.040401  0  -0.089318  -0.124045  0  3.995849  0
C  C81  1  0.62274794  0.06821657  0.01828421  1  -0.051513  0  -0.244738  -0.420057  0  3.98472  0
C  C82  1  0.24665540  0.86127568  0.25447055  1  0.012394  0  -0.097916  -0.191851  0  3.992412  0
C  C83  1  0.77725042  0.33575758  0.82394413  1  0.448183  0  0.098588  0.266213  0  4.035954  0
C  C84  1  0.40566555  0.40918909  0.34857368  1  0.354817  0  -0.060055  -0.122167  0  3.838889  0
C  C85  1  0.45654526  0.19570493  0.02130770  1  -0.005583  0  -0.01436  -0.065239  0  3.962333  0
C  C86  1  0.53168498  0.47076194  0.41949572  1  1.625591  0  0.203408  0.591894  0  4.197733  0
C  C87  1  0.36938593  0.08221312  0.89945589  1  -0.015757  0  -0.015344  -0.064838  0  3.954529  0
C  C88  1  0.81666557  0.78684590  0.85176218  1  0.012472  0  -0.09944  -0.196526  0  3.95894  0
C  C89  1  0.03779844  0.79695278  0.01477462  1  -0.036925  0  -0.088727  -0.123097  0  3.999523  0
C  C90  1  0.22843146  0.12353843  0.86509250  1  -0.000531  0  -0.001852  0.094322  0  3.942464  0
C  C91  1  0.68281753  0.24743074  0.25989925  1  -0.003023  0  -0.104103  -0.213432  0  4.008102  0
C  C92  1  0.69925248  0.31388092  0.09542287  1  -0.080705  0  -0.08629  -0.116032  0  3.996613  0
C  C93  1  0.16706888  0.78314520  0.46491431  1  0.367997  0  -0.059985  -0.124468  0  3.866471  0
C  C94  1  0.29940346  0.25281621  0.32476064  1  0.462087  0  0.0956  0.263267  0  4.061871  0
C  C95  1  0.80818537  0.35713177  0.16952047  1  0.03665  0  -0.094452  -0.185747  0  3.981281  0
C  C96  1  0.03164597  0.41946671  0.47077807  1  1.626666  0  0.203689  0.592365  0  4.197774  0
C  C97  1  0.07963098  0.10130896  0.23686022  1  -0.031307  0  -0.0081  0.073987  0  3.99116  0
C  C98  1  0.94628559  0.37110826  0.80986019  1  0.008346  0  -0.094924  -0.195422  0  3.950915  0
C  C99  1  0.44950543  0.86420092  0.73529516  1  0.427036  0  0.098515  0.267222  0  4.040344  0
C  C100  1  0.61074717  0.78000622  0.08677596  1  -0.109358  0  -0.238511  -0.406423  0  3.964578  0
C  C101  1  0.79416181  0.03144993  0.32444227  1  -0.079003  0  -0.242271  -0.409743  0  3.978963  0
C  C102  1  0.19928350  0.09541280  0.31395866  1  -0.07919  0  -0.086226  -0.115664  0  3.995688  0
C  C103  1  0.53781887  0.01475825  0.79689533  1  -0.037551  0  -0.088571  -0.123114  0  3.999372  0
C  C104  1  0.56174686  0.94592916  0.74140596  1  0.020659  0  -0.093782  -0.188703  0  3.987504  0
C  C105  1  0.86933141  0.89950239  0.08221575  1  -0.015281  0  -0.015374  -0.06459  0  3.954308  0
C  C106  1  0.44025575  0.66159992  0.59829051  1  1.598862  0  0.220517  0.617799  0  4.162968  0
C  C107  1  0.30822795  0.16950667  0.35721033  1  0.033693  0  -0.094445  -0.186099  0  3.981126  0
C  C108  1  0.82038048  0.98616357  0.23969070  1  0.02521  0  -0.003624  0.090056  0  3.942111  0
C  C109  1  0.90564019  0.34852761  0.40921911  1  0.354554  0  -0.060197  -0.122323  0  3.838997  0
C  C110  1  0.57559586  0.20420613  0.18444777  1  -0.057455  0  -0.083131  -0.098628  0  3.964187  0
C  C111  1  0.57961348  0.23679654  0.10131752  1  -0.031777  0  -0.008139  0.07403  0  3.990872  0
C  C112  1  0.55622260  0.87551513  0.24624393  1  -0.070047  0  -0.002757  0.080248  0  3.994029  0
C  C113  1  0.06176078  0.74146779  0.94594976  1  0.020607  0  -0.094006  -0.189521  0  3.988449  0
C  C114  1  0.27721638  0.82398309  0.33577074  1  0.449386  0  0.098494  0.266298  0  4.036065  0
C  C115  1  0.58344934  0.83577419  0.32621283  1  -0.075822  0  -0.074698  -0.087772  0  3.931228  0
C  C116  1  0.48065105  0.11622381  0.97888671  1  -0.065292  0  -0.001409  0.100385  0  3.934117  0
C  C117  1  0.70444674  0.90927484  0.20193234  1  0.010816  0  -0.009961  -0.057916  0  3.963762  0
C  C118  1  0.18283766  0.25987800  0.24749751  1  -0.011306  0  -0.104254  -0.213388  0  4.00825  0
C  C119  1  0.31667123  0.85176068  0.78680734  1  0.010277  0  -0.099183  -0.195601  0  3.958596  0
C  C120  1  0.37224728  0.71751627  0.66461886  1  0.297789  0  -0.071885  -0.170189  0  3.86208  0
C  C121  1  0.87226136  0.66464404  0.71753047  1  0.296664  0  -0.072032  -0.170295  0  3.862428  0
O  O122  1  0.50874875  0.58221045  0.78254252  1  -1.137501  0  -0.309589  -0.526851  0  2.103476  0
O  O123  1  0.06219956  0.56114651  0.69986187  1  -1.164325  0  -0.313063  -0.554857  0  2.363615  0
O  O124  1  0.06134112  0.39874416  0.55145539  1  -1.146908  0  -0.336426  -0.562869  0  2.231959  0
O  O125  1  0.87576472  0.58341746  0.58087637  1  -1.172285  0  -0.303583  -0.54915  0  2.397452  0
O  O126  1  0.37573086  0.58086064  0.58340372  1  -1.17235  0  -0.303619  -0.549216  0  2.397242  0
O  O127  1  0.56138484  0.55142133  0.39874784  1  -1.146922  0  -0.336382  -0.562883  0  2.232007  0
O  O128  1  0.86308167  0.72259149  0.44766143  1  -1.157904  0  -0.325669  -0.55598  0  2.278054  0
O  O129  1  0.90928576  0.37260239  0.32070776  1  -1.053364  0  -0.153088  -0.151487  0  2.603976  0
O  O130  1  0.98301028  0.67842396  0.80200948  1  -1.063028  0  -0.155305  -0.139122  0  2.597572  0
O  O131  1  0.59346016  0.44209143  0.48925221  1  -1.095868  0  -0.288468  -0.478086  0  2.058347  0
O  O132  1  0.48299332  0.80198527  0.67837926  1  -1.0612  0  -0.155672  -0.139216  0  2.597217  0
O  O133  1  0.40932603  0.32069152  0.37266823  1  -1.053662  0  -0.153531  -0.151822  0  2.604062  0
O  O134  1  0.13499202  0.80381859  0.37498039  1  -1.041402  0  -0.154612  -0.138192  0  2.540686  0
O  O135  1  0.09343818  0.48919895  0.44209105  1  -1.095896  0  -0.288664  -0.47847  0  2.058728  0
O  O136  1  0.63502747  0.37497640  0.80378809  1  -1.04099  0  -0.154565  -0.138376  0  2.540309  0
O  O137  1  0.00868603  0.78256554  0.58221406  1  -1.137476  0  -0.309672  -0.527052  0  2.102827  0
O  O138  1  0.56216043  0.69982961  0.56111519  1  -1.164477  0  -0.313113  -0.554908  0  2.363273  0
O  O139  1  0.36310954  0.44766736  0.72259563  1  -1.15788  0  -0.325849  -0.556115  0  2.278045  0
