# generated using pymatgen
data_MnH4C7O5
_symmetry_space_group_name_H-M   'P 1'
_cell_length_a   9.24160425
_cell_length_b   9.22098253
_cell_length_c   10.41384592
_cell_angle_alpha   90.01364109
_cell_angle_beta   90.01214209
_cell_angle_gamma   119.87578241
_symmetry_Int_Tables_number   1
_chemical_formula_structural   MnH4C7O5
_chemical_formula_sum   'Mn3 H12 C21 O15'
_cell_volume   769.49986518
_cell_formula_units_Z   3
loop_
 _symmetry_equiv_pos_site_id
 _symmetry_equiv_pos_as_xyz
  1  'x, y, z'
loop_
 _atom_site_type_symbol
 _atom_site_label
 _atom_site_symmetry_multiplicity
 _atom_site_fract_x
 _atom_site_fract_y
 _atom_site_fract_z
 _atom_site_occupancy
 _atom_site_hle17_ddec_charge
 _atom_site_hle17_ddec_spin_density
 _atom_site_hle17_ddec_sum_bond_order
 _atom_site_hle17_magmom
 _atom_site_hse06_10hf_ddec_charge
 _atom_site_hse06_10hf_ddec_spin_density
 _atom_site_hse06_10hf_ddec_sum_bond_order
 _atom_site_hse06_10hf_magmom
 _atom_site_hse06_ddec_charge
 _atom_site_hse06_ddec_spin_density
 _atom_site_hse06_ddec_sum_bond_order
 _atom_site_hse06_magmom
 _atom_site_pbe_cm5_charge
 _atom_site_pbe_ddec_charge
 _atom_site_pbe_ddec_spin_density
 _atom_site_pbe_ddec_sum_bond_order
 _atom_site_pbe_magmom
Mn  Mn0  1  0.99841250  0.99816278  0.50188467  1  1.22308  4.771796  1.773351  4.652  1.056427  4.691746  2.300528  4.509  1.121634  4.744032  2.21965  4.579  0.606055  1.004409  4.633765  2.360701  4.436
Mn  Mn1  1  0.00167678  0.99962086  0.16460033  1  1.222593  4.770367  1.774804  4.652  1.056246  4.69029  2.302053  4.508  1.121285  4.742648  2.221422  4.579  0.606311  1.004279  4.632229  2.362261  4.435
Mn  Mn2  1  0.99975988  0.00098780  0.83355876  1  1.21997  -4.760067  1.782883  -4.644  1.052666  -4.669867  2.314167  -4.494  1.11896  -4.732693  2.231646  -4.57  0.606049  0.998629  -4.596778  2.376989  -4.41
H  H3  1  0.63153884  0.88872846  0.37754077  1  0.403073  0.000117  0.793  0.001  0.394761  0.000821  0.83561  0.001  0.402081  0.000486  0.828109  0.001  0.353793  0.389202  0.001192  0.841491  0.001
H  H4  1  0.11116751  0.74236894  0.04264647  1  0.402741  0.00028  0.79333  0.001  0.394279  0.001036  0.836202  0.001  0.401638  0.000685  0.828605  0.001  0.353468  0.38872  0.001421  0.842106  0.001
H  H5  1  0.25799122  0.37015351  0.70899371  1  0.402133  -0.000248  0.793957  -0.001  0.393786  -0.000928  0.836761  -0.001  0.401154  -0.000617  0.829175  -0.001  0.353188  0.388134  -0.001269  0.842785  -0.001
H  H6  1  0.88863207  0.63091907  0.62319498  1  0.402764  0.000278  0.793432  0.001  0.39415  0.00103  0.836551  0.001  0.401543  0.00068  0.828924  0.001  0.353527  0.388569  0.001414  0.842472  0.001
H  H7  1  0.74227525  0.11217844  0.95805789  1  0.402759  -0.000257  0.793407  -0.001  0.393892  -0.000946  0.836741  -0.001  0.401283  -0.00063  0.82913  -0.001  0.35348  0.388235  -0.001293  0.842753  -0.001
H  H8  1  0.36828703  0.25727160  0.28950311  1  0.403108  0.000116  0.793221  0.001  0.394666  0.000823  0.835949  0.001  0.401967  0.000487  0.828474  0.001  0.353862  0.389124  0.001194  0.841811  0.001
H  H9  1  0.40867355  0.92286689  0.46919277  1  0.122311  -0.000268  0.942025  0.0  0.131074  -0.000286  1.0045  0.0  0.135112  -0.000288  1.001708  0.0  0.104994  0.128162  -0.000275  1.00669  0.0
H  H10  1  0.07649776  0.48480111  0.13397774  1  0.121382  -6.4e-05  0.942111  0.0  0.130199  2e-05  1.004645  0.0  0.134221  -6.2e-05  1.001843  0.0  0.104565  0.127306  0.000119  1.006809  0.0
H  H11  1  0.51474765  0.59170068  0.80065993  1  0.121605  0.000214  0.942319  0.0  0.130367  0.000223  1.004966  0.0  0.134395  0.000224  1.002191  0.0  0.104568  0.127486  0.000213  1.007107  0.0
H  H12  1  0.92349845  0.40829237  0.53149075  1  0.121222  -5.9e-05  0.942288  0.0  0.130264  1.5e-05  1.004545  0.0  0.134314  -6.6e-05  1.001713  0.0  0.104549  0.127355  0.000114  1.00672  0.0
H  H13  1  0.48520483  0.07706904  0.86659172  1  0.122337  0.00021  0.941322  0.0  0.130718  0.00022  1.004243  0.0  0.134696  0.000221  1.001512  0.0  0.104878  0.127849  0.00021  1.006386  0.0
H  H14  1  0.59102466  0.51396528  0.19808996  1  0.122154  -0.000261  0.941873  0.0  0.130864  -0.000284  1.004402  0.0  0.13486  -0.000286  1.001633  0.0  0.104813  0.127954  -0.000272  1.006611  0.0
C  C15  1  0.27159843  0.99970202  0.66789252  1  0.677938  -7.9e-05  3.883209  0.0  0.628442  -5.7e-05  4.174869  0.0  0.665994  -5.8e-05  4.165918  0.0  0.218915  0.601392  0.000299  4.180372  0.0
C  C16  1  0.99982723  0.27072182  0.33274132  1  0.678231  0.011994  3.883593  0.012  0.628687  0.020665  4.175967  0.018  0.665976  0.015918  4.167119  0.015  0.218979  0.602166  0.025071  4.181082  0.022
C  C17  1  0.72814858  0.72789782  0.99943647  1  0.676744  -7.5e-05  3.885362  0.0  0.627217  -2.8e-05  4.177384  0.0  0.664766  -3.3e-05  4.168438  0.0  0.218105  0.600187  0.000325  4.182855  0.0
C  C18  1  0.73619147  0.00066808  0.66779463  1  0.163118  -3.2e-05  3.864211  0.0  0.144419  -4.4e-05  4.115137  0.0  0.15319  -2.3e-05  4.137877  0.0  0.068022  0.13761  5e-06  4.099116  0.0
C  C19  1  0.00016428  0.73639234  0.33301279  1  0.161314  0.002733  3.871925  0.003  0.144036  0.00711  4.120717  0.007  0.152823  0.004453  4.143433  0.005  0.067962  0.137332  0.009996  4.104581  0.009
C  C20  1  0.26398521  0.26439424  0.99911993  1  0.162729  -3.5e-05  3.864393  0.0  0.144441  -1.2e-05  4.115196  0.0  0.153255  1e-05  4.137908  0.0  0.068181  0.13762  5e-05  4.099165  0.0
C  C21  1  0.63447122  0.95345071  0.55730848  1  0.209994  -0.000869  3.849205  -0.001  0.200502  -0.000302  4.121969  0.0  0.20554  -0.000344  4.140396  0.0  0.061019  0.196869  -0.000204  4.109699  0.0
C  C22  1  0.04682623  0.68103552  0.22245698  1  0.208961  0.004449  3.846372  0.005  0.199257  0.005624  4.118423  0.005  0.204243  0.004408  4.136943  0.004  0.060116  0.195637  0.006981  4.105951  0.006
C  C23  1  0.31901211  0.36626550  0.88866769  1  0.210786  0.000862  3.847739  0.0  0.201195  0.000329  4.120537  0.0  0.206183  0.000318  4.139064  0.0  0.061511  0.197626  0.000262  4.108072  0.0
C  C24  1  0.95341349  0.63429210  0.44341395  1  0.20905  0.004413  3.846714  0.005  0.199261  0.005578  4.118993  0.005  0.204259  0.004375  4.137517  0.004  0.060081  0.195632  0.006927  4.106533  0.006
C  C25  1  0.68108904  0.04731631  0.77838149  1  0.210889  0.000854  3.846008  0.0  0.201137  0.000304  4.118881  0.0  0.206156  0.000323  4.137373  0.0  0.061485  0.197541  0.000238  4.106458  0.0
C  C26  1  0.36555303  0.31885824  0.10969488  1  0.211386  -0.000876  3.846044  -0.001  0.201105  -0.000308  4.119737  0.0  0.206159  -0.000361  4.138121  0.0  0.061337  0.197468  -0.000218  4.107461  0.0
C  C27  1  0.48594125  0.95679170  0.55547617  1  -0.227708  -0.000736  3.79958  0.0  -0.267263  -0.000691  4.062922  0.0  -0.268499  -0.000655  4.081174  0.0  -0.121439  -0.266563  -0.0007  4.0509  0.0
C  C28  1  0.04293303  0.52857772  0.22033196  1  -0.226229  -0.000201  3.798796  0.0  -0.265515  0.0022  4.062299  0.001  -0.26665  0.000783  4.080447  0.0  -0.120988  -0.264707  0.003723  4.050178  0.002
C  C29  1  0.47109511  0.51432517  0.88690845  1  -0.227852  0.000766  3.798883  0.0  -0.267271  0.000691  4.06214  0.0  -0.268533  0.00065  4.080463  0.0  -0.121424  -0.26651  0.000891  4.049986  0.0
C  C30  1  0.95709816  0.48562691  0.44518571  1  -0.226718  -0.000192  3.800626  0.0  -0.266031  0.002225  4.063851  0.001  -0.267212  0.000795  4.082043  0.0  -0.121235  -0.26519  0.003758  4.051709  0.002
C  C31  1  0.52887284  0.04323290  0.78034498  1  -0.228064  0.000786  3.796962  0.0  -0.267056  0.000683  4.060371  0.0  -0.268233  0.000635  4.078572  0.0  -0.121087  -0.266325  0.00088  4.048264  0.0
C  C32  1  0.51394827  0.47067620  0.11171244  1  -0.22846  -0.000758  3.798332  0.0  -0.267861  -0.00067  4.062191  0.0  -0.26904  -0.000647  4.080371  0.0  -0.121195  -0.267181  -0.00067  4.050215  0.0
C  C33  1  0.43214342  0.99985267  0.66793719  1  -0.045889  -5e-05  3.84322  0.0  -0.026157  -3e-06  4.089952  0.0  -0.033511  -7e-06  4.112946  0.0  -0.037514  -0.021076  1.6e-05  4.074597  0.0
C  C34  1  0.99999216  0.43165462  0.33272075  1  -0.048149  0.006117  3.843811  0.006  -0.029169  0.007603  4.092015  0.006  -0.036427  0.005595  4.114916  0.005  -0.038285  -0.024305  0.010036  4.076682  0.008
C  C35  1  0.56777110  0.56758572  0.99934333  1  -0.045184  -1.1e-05  3.842888  0.0  -0.025281  -3e-06  4.089463  0.0  -0.032637  3e-06  4.112453  0.0  -0.037308  -0.020204  1.9e-05  4.074098  0.0
O  O36  1  0.88108441  0.00128274  0.66769501  1  -0.665449  0.000202  2.243866  0.0  -0.575995  0.000374  2.555498  0.0  -0.615359  0.000268  2.541049  0.0  -0.343949  -0.544196  0.000692  2.564238  0.001
O  O37  1  0.00035955  0.88118732  0.33319219  1  -0.66239  0.077914  2.230569  0.049  -0.574297  0.088715  2.537323  0.051  -0.612857  0.080431  2.523952  0.044  -0.341622  -0.543392  0.095735  2.544754  0.058
O  O38  1  0.11931947  0.12014671  0.99905279  1  -0.66512  0.000232  2.245174  0.0  -0.575906  0.000392  2.557052  0.0  -0.615308  0.000301  2.542642  0.0  -0.344311  -0.54411  0.000707  2.565814  0.0
O  O39  1  0.22841260  0.04223337  0.56411133  1  -0.670074  0.036455  2.032139  0.022  -0.609217  0.040811  2.306181  0.021  -0.64039  0.03669  2.287307  0.018  -0.324689  -0.585507  0.044754  2.318959  0.025
O  O40  1  0.95666182  0.18489969  0.22901787  1  -0.669765  0.041782  2.029643  0.028  -0.608637  0.051277  2.303434  0.032  -0.639916  0.044821  2.284943  0.026  -0.325049  -0.584825  0.057864  2.315775  0.039
O  O41  1  0.81347243  0.77099192  0.89555350  1  -0.670068  -0.036764  2.03238  -0.022  -0.608985  -0.041087  2.307139  -0.021  -0.640455  -0.037113  2.28818  -0.018  -0.324662  -0.584845  -0.044917  2.320049  -0.025
O  O42  1  0.04292816  0.22790280  0.43643482  1  -0.670262  0.041692  2.02994  0.028  -0.60898  0.051204  2.30362  0.032  -0.640311  0.044757  2.285146  0.026  -0.324727  -0.585155  0.05779  2.315968  0.039
O  O43  1  0.18613537  0.95714865  0.77168143  1  -0.66992  -0.036767  2.031912  -0.022  -0.608797  -0.041079  2.306565  -0.021  -0.640336  -0.03712  2.287726  -0.018  -0.324913  -0.584639  -0.04489  2.319463  -0.025
O  O44  1  0.77137236  0.81340331  0.10330927  1  -0.668969  0.036402  2.032363  0.022  -0.608345  0.0408  2.306571  0.021  -0.639498  0.036681  2.287794  0.018  -0.324287  -0.584639  0.044737  2.319254  0.025
O  O45  1  0.69576132  0.90391445  0.45554948  1  -0.512313  0.013101  2.157491  0.006  -0.461922  0.020542  2.375078  0.012  -0.478413  0.01863  2.361946  0.011  -0.32881  -0.449642  0.022176  2.384492  0.013
O  O46  1  0.09664714  0.79198988  0.12068603  1  -0.51415  0.013929  2.158395  0.006  -0.463105  0.021739  2.37647  0.013  -0.479652  0.019724  2.363213  0.011  -0.329296  -0.450735  0.023581  2.385868  0.014
O  O47  1  0.20860256  0.30569164  0.78683221  1  -0.511967  -0.013077  2.155613  -0.006  -0.461736  -0.020218  2.373059  -0.012  -0.478252  -0.018531  2.359961  -0.011  -0.329223  -0.44933  -0.021651  2.382555  -0.013
O  O48  1  0.90385117  0.69553979  0.54536334  1  -0.51385  0.013874  2.158294  0.006  -0.462841  0.021678  2.376877  0.013  -0.479458  0.019665  2.363583  0.011  -0.329218  -0.450428  0.023522  2.38631  0.014
O  O49  1  0.79163643  0.09713834  0.88014192  1  -0.512609  -0.013262  2.156312  -0.006  -0.461427  -0.020435  2.374104  -0.012  -0.478008  -0.018739  2.360903  -0.011  -0.329183  -0.448993  -0.021878  2.383673  -0.013
O  O50  1  0.30428815  0.20811808  0.21143420  1  -0.513217  0.013069  2.156221  0.006  -0.462264  0.020481  2.373883  0.012  -0.478735  0.018573  2.360771  0.011  -0.329396  -0.449996  0.022108  2.38327  0.013
