# generated using pymatgen
data_CuH3C2NO4
_symmetry_space_group_name_H-M   'P 1'
_cell_length_a   8.52232916
_cell_length_b   9.62519890
_cell_length_c   10.79158923
_cell_angle_alpha   90.00032616
_cell_angle_beta   89.99996234
_cell_angle_gamma   90.00021604
_symmetry_Int_Tables_number   1
_chemical_formula_structural   CuH3C2NO4
_chemical_formula_sum   'Cu8 H24 C16 N8 O32'
_cell_volume   885.22449435
_cell_formula_units_Z   8
loop_
 _symmetry_equiv_pos_site_id
 _symmetry_equiv_pos_as_xyz
  1  'x, y, z'
loop_
 _atom_site_type_symbol
 _atom_site_label
 _atom_site_symmetry_multiplicity
 _atom_site_fract_x
 _atom_site_fract_y
 _atom_site_fract_z
 _atom_site_occupancy
 _atom_site_hle17_ddec_charge
 _atom_site_hle17_ddec_spin_density
 _atom_site_hle17_ddec_sum_bond_order
 _atom_site_hle17_magmom
 _atom_site_hse06_10hf_ddec_charge
 _atom_site_hse06_10hf_ddec_spin_density
 _atom_site_hse06_10hf_ddec_sum_bond_order
 _atom_site_hse06_10hf_magmom
 _atom_site_hse06_ddec_charge
 _atom_site_hse06_ddec_spin_density
 _atom_site_hse06_ddec_sum_bond_order
 _atom_site_hse06_magmom
 _atom_site_pbe_cm5_charge
 _atom_site_pbe_ddec_charge
 _atom_site_pbe_ddec_spin_density
 _atom_site_pbe_ddec_sum_bond_order
 _atom_site_pbe_magmom
Cu  Cu0  1  0.88220226  0.76148074  0.92172888  1  0.950032  0.67037  1.710013  0.501  0.953596  0.800185  2.087704  0.653  1.040655  0.884052  2.02796  0.746  0.708193  0.887575  0.68157  2.140025  0.545
Cu  Cu1  1  0.38219256  0.23851814  0.57826942  1  0.950155  -0.670364  1.710067  -0.501  0.95372  -0.800183  2.087678  -0.653  1.042207  -0.884052  2.026738  -0.746  0.708224  0.887709  -0.681569  2.139973  -0.545
Cu  Cu2  1  0.11780002  0.73852658  0.42172747  1  0.950163  0.67039  1.710124  0.501  0.953749  0.800178  2.087759  0.653  1.040681  0.884036  2.028076  0.746  0.708236  0.887736  0.681564  2.140069  0.545
Cu  Cu3  1  0.61780225  0.26147955  0.07827637  1  0.950075  -0.670375  1.710168  -0.501  0.953702  -0.800177  2.0877  -0.653  1.040561  -0.88404  2.028137  -0.746  0.708222  0.887716  -0.681556  2.139967  -0.545
Cu  Cu4  1  0.11780274  0.23851293  0.07827543  1  0.950072  -0.670367  1.710096  -0.501  0.953727  -0.800187  2.087637  -0.653  1.040589  -0.884052  2.028109  -0.746  0.708217  0.887721  -0.681552  2.139943  -0.545
Cu  Cu5  1  0.61779836  0.76148281  0.42172285  1  0.949982  0.670351  1.709984  0.501  0.953527  0.800182  2.087659  0.653  1.040511  0.884053  2.027976  0.746  0.708178  0.8875  0.68153  2.139999  0.545
Cu  Cu6  1  0.88219207  0.26149514  0.57827592  1  0.950206  -0.670391  1.710102  -0.501  0.953849  -0.8002  2.087624  -0.653  1.042205  -0.884066  2.026936  -0.746  0.708256  0.887901  -0.681573  2.139848  -0.545
Cu  Cu7  1  0.38219923  0.73851101  0.92173072  1  0.950048  0.670353  1.709982  0.501  0.953515  0.800188  2.087764  0.653  1.042061  0.884062  2.026642  0.746  0.708161  0.887502  0.681554  2.140071  0.545
H  H8  1  0.72145763  0.77384944  0.72709402  1  0.355496  -0.000194  0.877774  -0.001  0.345727  0.000638  0.934073  0.0  0.353456  0.0004  0.92857  0.0  0.295244  0.339888  0.000739  0.938454  0.001
H  H9  1  0.22145817  0.22613642  0.77290987  1  0.355458  0.000196  0.877503  0.001  0.345703  -0.000639  0.933796  0.0  0.353505  -0.000401  0.928281  0.0  0.295225  0.339865  -0.00074  0.938175  -0.001
H  H10  1  0.27854375  0.72613998  0.22709993  1  0.355403  -0.000193  0.877486  -0.001  0.345636  0.000639  0.933813  0.0  0.35338  0.0004  0.928295  0.0  0.29521  0.339795  0.00074  0.938193  0.001
H  H11  1  0.77855045  0.27386150  0.27291222  1  0.355383  0.000193  0.877435  0.001  0.345621  -0.000639  0.933759  0.0  0.353368  -0.000401  0.928237  0.0  0.295164  0.339783  -0.00074  0.938137  -0.001
H  H12  1  0.27853916  0.22613903  0.27291029  1  0.355497  0.000193  0.877477  0.001  0.345742  -0.000638  0.933767  0.0  0.353488  -0.0004  0.928244  0.0  0.295246  0.339906  -0.000739  0.938145  -0.001
H  H13  1  0.77853979  0.77385310  0.22709351  1  0.355486  -0.000194  0.877774  -0.001  0.345726  0.000638  0.934059  0.0  0.353447  0.0004  0.928577  0.0  0.295261  0.339889  0.000739  0.938438  0.001
H  H14  1  0.72145187  0.27386408  0.77292106  1  0.355506  0.000194  0.877342  0.001  0.345735  -0.000639  0.933683  0.0  0.35354  -0.0004  0.928163  0.0  0.295208  0.339895  -0.00074  0.938065  -0.001
H  H15  1  0.22146745  0.72614672  0.72709487  1  0.355591  -0.000194  0.877788  -0.001  0.345837  0.000638  0.934027  0.0  0.353633  0.0004  0.928528  0.0  0.295291  0.339997  0.000739  0.938411  0.001
H  H16  1  0.89286487  0.70051088  0.69400416  1  0.34705  -0.000395  0.906153  -0.001  0.33622  0.00038  0.964372  0.0  0.344016  0.000134  0.959053  0.0  0.29152  0.330297  0.000555  0.96874  0.0
H  H17  1  0.39287506  0.29949530  0.80599969  1  0.347153  0.000394  0.905795  0.001  0.336165  -0.000381  0.964241  0.0  0.344052  -0.000135  0.958892  0.0  0.291506  0.330218  -0.000556  0.968644  0.0
H  H18  1  0.10712717  0.79949391  0.19400027  1  0.347134  -0.000395  0.905831  -0.001  0.336157  0.000381  0.964253  0.0  0.343979  0.000135  0.958897  0.0  0.291522  0.330208  0.000556  0.968658  0.0
H  H19  1  0.60712062  0.20050179  0.30600820  1  0.347097  0.000393  0.905785  0.001  0.336089  -0.000381  0.96427  0.0  0.343954  -0.000135  0.958846  0.0  0.291455  0.330141  -0.000556  0.968673  0.0
H  H20  1  0.10712371  0.29949629  0.30600200  1  0.347195  0.000393  0.905791  0.001  0.33625  -0.00038  0.964182  0.0  0.344113  -0.000134  0.958755  0.0  0.291534  0.330302  -0.000556  0.968588  0.0
H  H21  1  0.60714051  0.70050356  0.19400276  1  0.347046  -0.000394  0.906087  -0.001  0.336201  0.00038  0.96433  0.0  0.344018  0.000134  0.95898  0.0  0.291525  0.330276  0.000555  0.968702  0.0
H  H22  1  0.89288487  0.20050808  0.80600682  1  0.347151  0.000394  0.905684  0.001  0.336162  -0.000381  0.964154  0.0  0.344046  -0.000135  0.958816  0.0  0.291468  0.330213  -0.000557  0.968561  0.0
H  H23  1  0.39286209  0.79948564  0.69400723  1  0.347129  -0.000393  0.9062  -0.001  0.336288  0.00038  0.964401  0.0  0.344131  0.000134  0.959115  0.0  0.291567  0.330363  0.000555  0.968774  0.0
H  H24  1  0.75115337  0.60915378  0.75971994  1  0.350475  -0.000911  0.863383  -0.002  0.343453  0.000183  0.916025  0.0  0.350639  -7e-06  0.91163  -0.001  0.300482  0.33804  0.000305  0.919654  0.0
H  H25  1  0.25113939  0.39084880  0.74028023  1  0.350516  0.000911  0.863126  0.002  0.34352  -0.000183  0.915739  0.0  0.350792  7e-06  0.91133  0.001  0.300477  0.338105  -0.000305  0.919372  0.0
H  H26  1  0.24885852  0.89085456  0.25972018  1  0.350529  -0.000912  0.863163  -0.002  0.343515  0.000183  0.915792  0.0  0.35069  -7e-06  0.911427  -0.001  0.300516  0.338101  0.000305  0.919426  0.0
H  H27  1  0.74886107  0.10913955  0.24027899  1  0.350465  0.000911  0.863037  0.002  0.343472  -0.000183  0.915653  0.0  0.350644  7e-06  0.911294  0.001  0.300436  0.338058  -0.000305  0.919286  0.0
H  H28  1  0.24885750  0.39085132  0.24028159  1  0.350491  0.00091  0.863161  0.002  0.343496  -0.000184  0.915779  0.0  0.350673  6e-06  0.911409  0.001  0.300472  0.338082  -0.000305  0.919415  0.0
H  H29  1  0.74885740  0.60916045  0.25972130  1  0.350511  -0.000912  0.863289  -0.002  0.343414  0.000183  0.916052  0.0  0.350578  -7e-06  0.911716  -0.001  0.30047  0.338002  0.000305  0.919685  0.0
H  H30  1  0.75114648  0.10914535  0.74027671  1  0.350594  0.000912  0.863002  0.002  0.343586  -0.000183  0.915644  0.0  0.350854  7e-06  0.911251  0.001  0.300482  0.338172  -0.000305  0.91928  0.0
H  H31  1  0.25115684  0.89083022  0.75972346  1  0.350645  -0.000913  0.863182  -0.002  0.343534  0.000183  0.915941  0.0  0.350785  -7e-06  0.911578  -0.001  0.300533  0.338124  0.000304  0.919574  0.0
C  C32  1  0.08610361  0.51281665  0.97875516  1  0.54001  0.003509  3.890576  0.006  0.510109  -0.000298  4.183387  0.002  0.544132  -0.000179  4.175039  0.001  0.201216  0.486172  -0.000354  4.18782  0.002
C  C33  1  0.58610216  0.48717706  0.52124042  1  0.540012  -0.003506  3.890874  -0.006  0.510077  0.000299  4.183772  -0.002  0.544205  0.000179  4.175497  -0.001  0.201115  0.486139  0.000355  4.188206  -0.002
C  C34  1  0.91389507  0.98718689  0.47875205  1  0.540018  0.003506  3.890335  0.006  0.510066  -0.000297  4.18322  0.002  0.544115  -0.00018  4.174893  0.001  0.201267  0.486132  -0.000354  4.187664  0.002
C  C35  1  0.41389039  0.01282129  0.02124432  1  0.540046  -0.003506  3.890484  -0.006  0.510065  0.000299  4.183443  -0.002  0.544077  0.000179  4.175205  -0.001  0.201169  0.486127  0.000355  4.187882  -0.002
C  C36  1  0.91389670  0.48717598  0.02125101  1  0.539714  -0.003514  3.890729  -0.006  0.509722  0.000299  4.18366  -0.002  0.543659  0.00018  4.175246  -0.001  0.201014  0.485782  0.000354  4.18809  -0.002
C  C37  1  0.41390049  0.51282181  0.47875185  1  0.539861  0.003516  3.890457  0.006  0.509859  -0.000298  4.183428  0.002  0.543912  -0.00018  4.175098  0.001  0.201109  0.485917  -0.000354  4.187859  0.002
C  C38  1  0.08610289  0.01282964  0.52124207  1  0.539802  -0.003504  3.890687  -0.006  0.509803  0.000299  4.183654  -0.002  0.543934  0.000179  4.175374  -0.001  0.201035  0.485864  0.000355  4.188095  -0.002
C  C39  1  0.58610054  0.98717342  0.97875814  1  0.539877  0.003516  3.890448  0.006  0.509904  -0.000299  4.183413  0.002  0.54391  -0.00018  4.175144  0.001  0.201097  0.485963  -0.000355  4.187849  0.002
C  C40  1  0.98550252  0.97783521  0.06698135  1  0.535686  0.00068  3.924001  0.001  0.490119  4.2e-05  4.234972  0.0  0.524883  0.00011  4.226509  0.0  0.207897  0.464803  0.000321  4.240551  0.001
C  C41  1  0.48548440  0.02215971  0.43301687  1  0.535859  -0.00069  3.924139  -0.001  0.490285  -4.1e-05  4.23505  0.0  0.525118  -0.00011  4.226789  0.0  0.20796  0.464966  -0.000322  4.240626  -0.001
C  C42  1  0.01450259  0.52217499  0.56698080  1  0.536209  0.000683  3.923175  0.001  0.490422  4.1e-05  4.234515  0.0  0.525265  0.00011  4.226203  0.0  0.208078  0.465102  0.000321  4.240099  0.001
C  C43  1  0.51451697  0.47783926  0.93302405  1  0.536033  -0.000689  3.923705  -0.001  0.49022  -4e-05  4.234901  0.0  0.525049  -0.000109  4.226648  0.0  0.207927  0.464899  -0.000321  4.240474  -0.001
C  C44  1  0.01450248  0.02216054  0.93302019  1  0.535715  -0.000681  3.924093  -0.001  0.490011  -4.1e-05  4.235214  0.0  0.524798  -0.00011  4.226682  0.0  0.207947  0.464695  -0.000322  4.240786  -0.001
C  C45  1  0.51449714  0.97783915  0.56697633  1  0.535664  0.000687  3.924089  0.001  0.489966  4.2e-05  4.235179  0.0  0.524823  0.00011  4.226846  0.0  0.207854  0.464647  0.000321  4.240759  0.001
C  C46  1  0.98550358  0.47784570  0.43302073  1  0.535966  -0.000682  3.924169  -0.001  0.490368  -4.1e-05  4.235212  0.0  0.525201  -0.000111  4.22693  0.0  0.208058  0.465052  -0.000322  4.240796  -0.001
C  C47  1  0.48549625  0.52215442  0.06698304  1  0.535513  0.000683  3.924521  0.001  0.490032  4.1e-05  4.23535  0.0  0.524836  0.00011  4.22715  0.0  0.207913  0.464712  0.000321  4.24093  0.001
N  N48  1  0.80393140  0.70441216  0.75790394  1  -0.836476  0.095266  2.935956  0.116  -0.842064  0.061253  3.182679  0.077  -0.876021  0.049986  3.167183  0.066  -0.793199  -0.820036  0.061405  3.195894  0.075
N  N49  1  0.30393814  0.29558437  0.74208325  1  -0.83667  -0.095257  2.935296  -0.116  -0.842154  -0.061251  3.182219  -0.077  -0.876906  -0.049987  3.166848  -0.066  -0.793168  -0.820101  -0.061399  3.195473  -0.075
N  N50  1  0.19606172  0.79558890  0.25791948  1  -0.836573  0.095256  2.935321  0.116  -0.842032  0.06125  3.182272  0.077  -0.876045  0.049985  3.166767  0.066  -0.793218  -0.819979  0.061398  3.195533  0.075
N  N51  1  0.69605880  0.20441334  0.24207878  1  -0.83646  -0.095247  2.935147  -0.116  -0.841953  -0.061251  3.182135  -0.077  -0.875942  -0.049987  3.166574  -0.066  -0.793022  -0.8199  -0.061397  3.195388  -0.075
N  N52  1  0.19606070  0.29558671  0.24208554  1  -0.836691  -0.095257  2.935288  -0.116  -0.842256  -0.061256  3.182178  -0.077  -0.876244  -0.04999  3.166612  -0.066  -0.793227  -0.820206  -0.061403  3.195446  -0.075
N  N53  1  0.69607273  0.70441138  0.25789975  1  -0.836464  0.095259  2.935845  0.116  -0.841968  0.061249  3.182622  0.077  -0.875968  0.049983  3.16722  0.066  -0.793193  -0.819946  0.061399  3.195857  0.075
N  N54  1  0.80394328  0.20442140  0.74207835  1  -0.836842  -0.095248  2.934991  -0.116  -0.842345  -0.061249  3.181919  -0.077  -0.877101  -0.049987  3.166615  -0.066  -0.793163  -0.820313  -0.061394  3.195187  -0.075
N  N55  1  0.30393212  0.79558241  0.75789865  1  -0.836802  0.095265  2.935905  0.116  -0.842303  0.061254  3.182767  0.077  -0.877089  0.049987  3.167558  0.066  -0.793329  -0.820285  0.061404  3.196006  0.075
O  O56  1  0.93112041  0.85597171  0.08421669  1  -0.564095  0.039861  2.113637  0.055  -0.52577  0.031076  2.369098  0.046  -0.562493  0.025686  2.360455  0.039  -0.29728  -0.496291  0.028905  2.374343  0.041
O  O57  1  0.43109225  0.14401886  0.41577782  1  -0.56414  -0.03985  2.113799  -0.055  -0.525764  -0.031069  2.369213  -0.046  -0.563073  -0.025681  2.360893  -0.039  -0.297262  -0.496304  -0.028895  2.37449  -0.041
O  O58  1  0.06888938  0.64404067  0.58421674  1  -0.564378  0.039862  2.113449  0.055  -0.526016  0.031074  2.369051  0.046  -0.56259  0.025685  2.360315  0.039  -0.297407  -0.49655  0.028905  2.374313  0.041
O  O59  1  0.56890327  0.35597584  0.91578532  1  -0.564185  -0.039852  2.113649  -0.055  -0.525749  -0.031068  2.369145  -0.046  -0.562299  -0.025679  2.36041  -0.039  -0.297309  -0.49628  -0.028897  2.374396  -0.041
O  O60  1  0.06889163  0.14402300  0.91578206  1  -0.564086  -0.039862  2.113758  -0.055  -0.525686  -0.031072  2.369224  -0.046  -0.562332  -0.025683  2.360525  -0.039  -0.297279  -0.496214  -0.028901  2.374479  -0.041
O  O61  1  0.56888576  0.85597689  0.58421166  1  -0.564121  0.039872  2.113823  0.055  -0.525713  0.031079  2.369264  0.046  -0.562301  0.025688  2.360536  0.039  -0.297285  -0.496239  0.02891  2.374528  0.041
O  O62  1  0.93111445  0.35598521  0.41578571  1  -0.564369  -0.039861  2.114004  -0.055  -0.525957  -0.031072  2.369391  -0.046  -0.563274  -0.025682  2.361139  -0.039  -0.297386  -0.496495  -0.028901  2.37464  -0.041
O  O63  1  0.43110056  0.64401264  0.08421621  1  -0.564063  0.03987  2.113959  0.055  -0.525681  0.031079  2.369301  0.046  -0.563077  0.025689  2.361105  0.039  -0.297236  -0.496208  0.02891  2.374556  0.041
O  O64  1  0.11802121  0.62812637  0.93069672  1  -0.600222  -0.011603  2.077589  -0.013  -0.586035  -0.006668  2.349458  -0.007  -0.614558  -0.004361  2.335364  -0.004  -0.308709  -0.562276  -0.01018  2.358623  -0.013
O  O65  1  0.61802157  0.37186952  0.56929329  1  -0.60019  0.0116  2.077739  0.013  -0.586019  0.006666  2.349626  0.007  -0.615003  0.004362  2.335867  0.004  -0.308645  -0.562265  0.010178  2.358789  0.012
O  O66  1  0.88197754  0.87187893  0.43068841  1  -0.600207  -0.011602  2.077363  -0.013  -0.586051  -0.006667  2.34932  -0.007  -0.613971  -0.004358  2.334858  -0.004  -0.30874  -0.562292  -0.010177  2.358491  -0.013
O  O67  1  0.38197091  0.12813226  0.06929962  1  -0.600238  0.0116  2.077606  0.013  -0.586047  0.006666  2.349496  0.007  -0.613933  0.004358  2.335001  0.004  -0.308698  -0.562291  0.010177  2.358665  0.012
O  O68  1  0.88198027  0.37186522  0.06930759  1  -0.600016  0.011604  2.077794  0.013  -0.585842  0.006664  2.34969  0.007  -0.613816  0.004358  2.335262  0.004  -0.308536  -0.562086  0.010175  2.358854  0.012
O  O69  1  0.38198226  0.62813038  0.43068878  1  -0.60009  -0.011608  2.077587  -0.013  -0.585883  -0.006667  2.349494  -0.007  -0.613788  -0.004358  2.334999  -0.004  -0.30861  -0.562126  -0.010179  2.358663  -0.013
O  O70  1  0.11801573  0.12813968  0.56930292  1  -0.600028  0.011596  2.07759  0.013  -0.585825  0.006666  2.349473  0.007  -0.614809  0.004362  2.335728  0.004  -0.308524  -0.562075  0.010177  2.358633  0.013
O  O71  1  0.61802118  0.87186245  0.93070191  1  -0.600104  -0.011615  2.077618  -0.013  -0.585876  -0.006669  2.349486  -0.007  -0.614425  -0.004363  2.335416  -0.004  -0.308581  -0.562112  -0.01018  2.358649  -0.013
O  O72  1  0.01926941  0.06279819  0.15214457  1  -0.520168  -0.046359  2.030641  -0.063  -0.489368  -0.03794  2.283076  -0.056  -0.526724  -0.031649  2.27537  -0.049  -0.293069  -0.461135  -0.038822  2.288855  -0.055
O  O73  1  0.51923887  0.93719201  0.34785373  1  -0.520314  0.046369  2.03075  0.063  -0.489505  0.037942  2.283159  0.056  -0.526777  0.03165  2.275395  0.049  -0.293103  -0.461267  0.038827  2.288944  0.055
O  O74  1  0.98073117  0.43721556  0.65214591  1  -0.520332  -0.046365  2.030213  -0.063  -0.489508  -0.037941  2.282805  -0.056  -0.527397  -0.03165  2.275355  -0.049  -0.293122  -0.461289  -0.038824  2.288581  -0.055
O  O75  1  0.48076469  0.56280755  0.84786072  1  -0.52042  0.046373  2.030469  0.063  -0.489495  0.037945  2.282948  0.056  -0.527449  0.031653  2.275515  0.049  -0.293113  -0.461261  0.03883  2.288722  0.055
O  O76  1  0.98073208  0.93719756  0.84785789  1  -0.520199  0.046369  2.030657  0.063  -0.489347  0.037944  2.283127  0.056  -0.526665  0.031652  2.275316  0.049  -0.293082  -0.461112  0.038827  2.288902  0.055
O  O77  1  0.48073328  0.06279854  0.65214317  1  -0.520199  -0.046363  2.030556  -0.063  -0.489352  -0.037938  2.283014  -0.056  -0.527243  -0.031647  2.27552  -0.049  -0.293064  -0.461117  -0.038818  2.288785  -0.055
O  O78  1  0.01926913  0.56280409  0.34785470  1  -0.520388  0.046365  2.030728  0.063  -0.489571  0.037943  2.283187  0.056  -0.52683  0.031651  2.27542  0.049  -0.293136  -0.461335  0.038827  2.288962  0.055
O  O79  1  0.51925556  0.43719443  0.15215008  1  -0.520124  -0.046363  2.030906  -0.063  -0.489385  -0.03794  2.283329  -0.056  -0.526639  -0.03165  2.275586  -0.049  -0.293051  -0.461154  -0.038823  2.289102  -0.055
O  O80  1  0.18529341  0.41455917  0.99551796  1  -0.557728  -0.073995  2.089427  -0.101  -0.535927  -0.049058  2.362622  -0.072  -0.577841  -0.037359  2.357852  -0.057  -0.312311  -0.506963  -0.052755  2.36693  -0.075
O  O81  1  0.68528066  0.58543800  0.50447482  1  -0.557756  0.073988  2.089578  0.101  -0.535884  0.049055  2.362728  0.072  -0.577757  0.037357  2.3579  0.057  -0.312259  -0.506937  0.052751  2.367087  0.075
O  O82  1  0.81470434  0.08544748  0.49551289  1  -0.557782  -0.074002  2.08929  -0.101  -0.535922  -0.04906  2.362485  -0.072  -0.578482  -0.037361  2.358049  -0.057  -0.31235  -0.506976  -0.052753  2.366799  -0.075
O  O83  1  0.31470812  0.91455308  0.00447980  1  -0.557781  0.073988  2.089405  0.101  -0.535915  0.049055  2.362656  0.072  -0.578578  0.037358  2.358273  0.057  -0.312293  -0.50697  0.052748  2.367011  0.075
O  O84  1  0.81471042  0.58544386  0.00448357  1  -0.557726  0.073994  2.089361  0.101  -0.535811  0.04906  2.362502  0.072  -0.577759  0.037361  2.357703  0.057  -0.312299  -0.506866  0.052756  2.366856  0.075
O  O85  1  0.31470791  0.41455256  0.49551652  1  -0.557782  -0.074015  2.089253  -0.101  -0.535904  -0.049067  2.362478  -0.072  -0.578484  -0.037368  2.358012  -0.057  -0.312313  -0.506945  -0.052765  2.366803  -0.075
O  O86  1  0.18528540  0.91456073  0.50448772  1  -0.557772  0.073999  2.089553  0.101  -0.5359  0.049062  2.362791  0.072  -0.577742  0.037363  2.35793  0.057  -0.312298  -0.506921  0.052757  2.367073  0.075
O  O87  1  0.68528750  0.08543955  0.99552359  1  -0.557736  -0.074002  2.089315  -0.101  -0.535878  -0.049062  2.362488  -0.072  -0.577743  -0.037363  2.357667  -0.057  -0.312291  -0.506935  -0.052758  2.366838  -0.075
