# generated using pymatgen
data_AgH11C12N4O3
_symmetry_space_group_name_H-M   'P 1'
_cell_length_a   8.75555584
_cell_length_b   9.31267343
_cell_length_c   15.60319993
_cell_angle_alpha   89.99993310
_cell_angle_beta   89.99946448
_cell_angle_gamma   103.34664906
_symmetry_Int_Tables_number   1
_chemical_formula_structural   AgH11C12N4O3
_chemical_formula_sum   'Ag4 H44 C48 N16 O12'
_cell_volume   1237.88614833
_cell_formula_units_Z   4
loop_
 _symmetry_equiv_pos_site_id
 _symmetry_equiv_pos_as_xyz
  1  'x, y, z'
loop_
 _atom_site_type_symbol
 _atom_site_label
 _atom_site_symmetry_multiplicity
 _atom_site_fract_x
 _atom_site_fract_y
 _atom_site_fract_z
 _atom_site_occupancy
 _atom_site_pbe_bader_spin_density
 _atom_site_pbe_cm5_charge
 _atom_site_pbe_ddec_charge
 _atom_site_pbe_ddec_spin_density
 _atom_site_pbe_ddec_sum_bond_order
 _atom_site_pbe_magmom
Ag  Ag0  1  0.69755541  0.68733615  0.99556292  1  0  0.494893  0.334654  0  1.907687  0
Ag  Ag1  1  0.30244227  0.81266102  0.49556071  1  0  0.494877  0.334615  0  1.907701  0
Ag  Ag2  1  0.30243898  0.31266135  0.00443920  1  0  0.49488  0.334644  0  1.907672  0
Ag  Ag3  1  0.69756040  0.18733774  0.50443820  1  0  0.494874  0.334594  0  1.907685  0
H  H4  1  0.57674971  0.44987681  0.87655312  1  0  0.298643  0.275236  0  1.015352  0
H  H5  1  0.42325472  0.05012145  0.37655239  1  0  0.298617  0.275253  0  1.015327  0
H  H6  1  0.42324837  0.55012186  0.12344708  1  0  0.298644  0.275217  0  1.015362  0
H  H7  1  0.57674884  0.94987622  0.62344589  1  0  0.298659  0.275265  0  1.015331  0
H  H8  1  0.61822493  0.28416582  0.89968166  1  0  0.294858  0.261431  0  1.019842  0
H  H9  1  0.38177909  0.21583231  0.39968039  1  0  0.294862  0.261457  0  1.019843  0
H  H10  1  0.38177266  0.71583064  0.10031918  1  0  0.29487  0.26146  0  1.019819  0
H  H11  1  0.61822612  0.78416759  0.60031789  1  0  0.294865  0.261445  0  1.019837  0
H  H12  1  0.89788044  0.24440706  0.90892391  1  0  0.10771  0.119846  0  1.037935  0
H  H13  1  0.10212022  0.25559205  0.40892089  1  0  0.107702  0.119879  0  1.037856  0
H  H14  1  0.10211534  0.75559157  0.09107693  1  0  0.107724  0.119896  0  1.037887  0
H  H15  1  0.89788335  0.74440562  0.59108059  1  0  0.107722  0.1199  0  1.037858  0
H  H16  1  0.87575568  0.97494221  0.89692424  1  0  0.115933  0.085114  0  1.012787  0
H  H17  1  0.12424681  0.52505887  0.39692319  1  0  0.115952  0.085195  0  1.012757  0
H  H18  1  0.12423806  0.02505747  0.10307531  1  0  0.115945  0.08511  0  1.012779  0
H  H19  1  0.87575586  0.47493988  0.60307893  1  0  0.115937  0.085159  0  1.012738  0
H  H20  1  0.61635068  0.89222406  0.12203711  1  0  0.112923  0.082044  0  1.062201  0
H  H21  1  0.38364442  0.60776959  0.62203527  1  0  0.112919  0.082098  0  1.062328  0
H  H22  1  0.38364741  0.10777461  0.87796373  1  0  0.112942  0.082094  0  1.062207  0
H  H23  1  0.61635276  0.39223016  0.37796685  1  0  0.112898  0.082082  0  1.062298  0
H  H24  1  0.62471250  0.15945952  0.14271260  1  0  0.109446  0.126257  0  1.054797  0
H  H25  1  0.37528086  0.34053322  0.64271064  1  0  0.109447  0.126263  0  1.054854  0
H  H26  1  0.37528533  0.84053805  0.85728888  1  0  0.109438  0.126251  0  1.054822  0
H  H27  1  0.62472435  0.65946668  0.35729148  1  0  0.10946  0.126268  0  1.054892  0
H  H28  1  0.68833158  0.59188782  0.14318077  1  0  0.094215  0.098625  0  1.07297  0
H  H29  1  0.31166348  0.90811231  0.64317909  1  0  0.094221  0.098675  0  1.072915  0
H  H30  1  0.31166446  0.40811191  0.85682007  1  0  0.094212  0.09864  0  1.072956  0
H  H31  1  0.68833704  0.09188201  0.35681790  1  0  0.094215  0.098617  0  1.072988  0
H  H32  1  0.85364597  0.73627254  0.25427801  1  0  0.09811  0.103746  0  1.03509  0
H  H33  1  0.14635054  0.76372701  0.75427923  1  0  0.09808  0.103709  0  1.035117  0
H  H34  1  0.14635311  0.26373054  0.74572091  1  0  0.098112  0.103755  0  1.035105  0
H  H35  1  0.85364818  0.23626947  0.24571840  1  0  0.098089  0.103749  0  1.035109  0
H  H36  1  0.11237776  0.68263390  0.29188125  1  0  0.097088  0.091671  0  1.031783  0
H  H37  1  0.88762073  0.81737208  0.79188556  1  0  0.097103  0.091686  0  1.031773  0
H  H38  1  0.88762207  0.31737249  0.70811639  1  0  0.097108  0.091686  0  1.031757  0
H  H39  1  0.11238558  0.18263773  0.20811464  1  0  0.097121  0.091713  0  1.031626  0
H  H40  1  0.19873018  0.47670153  0.21857113  1  0  0.098434  0.101798  0  1.048551  0
H  H41  1  0.80126636  0.02330074  0.71857355  1  0  0.098392  0.101729  0  1.04859  0
H  H42  1  0.80126775  0.52330153  0.78142842  1  0  0.098414  0.101751  0  1.048563  0
H  H43  1  0.19874224  0.97670911  0.28142601  1  0  0.098406  0.101769  0  1.048605  0
H  H44  1  0.03999905  0.34300340  0.09920442  1  0  0.086376  0.067919  0  1.082291  0
H  H45  1  0.95999584  0.15699290  0.59920334  1  0  0.086387  0.067906  0  1.082415  0
H  H46  1  0.95999559  0.65699521  0.90079770  1  0  0.086379  0.067906  0  1.082396  0
H  H47  1  0.04001521  0.84301260  0.40079558  1  0  0.086358  0.067886  0  1.082458  0
C  C48  1  0.83364505  0.17054231  0.95751607  1  0  -0.078241  -0.157812  0  3.920006  0
C  C49  1  0.16635589  0.32945654  0.45751329  1  0  -0.07824  -0.157833  0  3.919926  0
C  C50  1  0.16635279  0.82945526  0.04248477  1  0  -0.078263  -0.15785  0  3.919976  0
C  C51  1  0.83365047  0.67054337  0.54248755  1  0  -0.078258  -0.157803  0  3.91982  0
C  C52  1  0.82168006  0.01947800  0.95046567  1  0  0.047682  0.099966  0  3.928723  0
C  C53  1  0.17831871  0.48052086  0.45046336  1  0  0.047729  0.099957  0  3.928518  0
C  C54  1  0.17831572  0.98052063  0.04953388  1  0  0.047737  0.100035  0  3.928589  0
C  C55  1  0.82168306  0.51947898  0.54953684  1  0  0.047734  0.099958  0  3.928552  0
C  C56  1  0.67605030  0.97382046  0.07582333  1  0  0.040621  0.09231  0  3.906808  0
C  C57  1  0.32394981  0.52617683  0.57582186  1  0  0.040585  0.092131  0  3.907087  0
C  C58  1  0.32395007  0.02617825  0.92417815  1  0  0.040585  0.092212  0  3.906911  0
C  C59  1  0.67605336  0.47382413  0.42417962  1  0  0.040599  0.0921  0  3.907034  0
C  C60  1  0.68166740  0.12275211  0.08725333  1  0  -0.075685  -0.145616  0  3.889704  0
C  C61  1  0.31832770  0.37724426  0.58725164  1  0  -0.075631  -0.145508  0  3.88976  0
C  C62  1  0.31832928  0.87724544  0.91274751  1  0  -0.075625  -0.145539  0  3.889719  0
C  C63  1  0.68167662  0.62275672  0.41274920  1  0  -0.075655  -0.1455  0  3.889809  0
C  C64  1  0.76111675  0.22399746  0.02671742  1  0  0.014418  0.092019  0  3.951044  0
C  C65  1  0.23888174  0.27599929  0.52671430  1  0  0.014363  0.09186  0  3.951033  0
C  C66  1  0.23888248  0.77600122  0.97328470  1  0  0.014375  0.091925  0  3.95107  0
C  C67  1  0.76112552  0.72399954  0.47328590  1  0  0.014336  0.091792  0  3.950886  0
C  C68  1  0.76665384  0.38381285  0.03718892  1  0  0.129971  0.112683  0  3.926735  0
C  C69  1  0.23334266  0.11618601  0.53718659  1  0  0.129985  0.112774  0  3.926646  0
C  C70  1  0.23334219  0.61618688  0.96281320  1  0  0.130007  0.112783  0  3.926597  0
C  C71  1  0.76666510  0.88381503  0.46281233  1  0  0.12992  0.112743  0  3.926454  0
C  C72  1  0.85705360  0.46319364  0.10906622  1  0  -0.01486  0.026788  0  4.030713  0
C  C73  1  0.14294071  0.03680589  0.60906570  1  0  -0.014852  0.02686  0  4.030595  0
C  C74  1  0.14294244  0.53680609  0.89093462  1  0  -0.014878  0.026802  0  4.03064  0
C  C75  1  0.85706475  0.96319511  0.39093386  1  0  -0.014809  0.02687  0  4.030482  0
C  C76  1  0.80443922  0.57243805  0.15517481  1  0  -0.099552  -0.13359  0  3.994189  0
C  C77  1  0.19555767  0.92756095  0.65517181  1  0  -0.09953  -0.133624  0  3.99403  0
C  C78  1  0.19555821  0.42756281  0.84482667  1  0  -0.099538  -0.133607  0  3.994077  0
C  C79  1  0.80444220  0.07243555  0.34482391  1  0  -0.099519  -0.133503  0  3.993845  0
C  C80  1  0.89599982  0.65096525  0.22030477  1  0  -0.094231  -0.076132  0  3.988845  0
C  C81  1  0.10399690  0.84903778  0.72030615  1  0  -0.094218  -0.076085  0  3.988589  0
C  C82  1  0.10399786  0.34903670  0.77969543  1  0  -0.094242  -0.076117  0  3.988682  0
C  C83  1  0.89600422  0.15096424  0.27969148  1  0  -0.094225  -0.076151  0  3.988585  0
C  C84  1  0.03913724  0.61867361  0.24226088  1  0  -0.092723  -0.081787  0  3.984625  0
C  C85  1  0.96085540  0.88132814  0.74226283  1  0  -0.092799  -0.08191  0  3.984508  0
C  C86  1  0.96086005  0.38133164  0.75773804  1  0  -0.092767  -0.081881  0  3.984617  0
C  C87  1  0.03914622  0.11867609  0.25773545  1  0  -0.092804  -0.081885  0  3.984323  0
C  C88  1  0.08959576  0.50571753  0.19984705  1  0  -0.096073  -0.079279  0  3.977231  0
C  C89  1  0.91040133  0.99428563  0.69984919  1  0  -0.09596  -0.079107  0  3.977127  0
C  C90  1  0.91040192  0.49428443  0.80015315  1  0  -0.096001  -0.079138  0  3.977236  0
C  C91  1  0.08960702  0.00572311  0.30014973  1  0  -0.096025  -0.07919  0  3.977155  0
C  C92  1  0.99911180  0.42920062  0.13357108  1  0  -0.093113  -0.121105  0  3.982379  0
C  C93  1  0.00087978  0.07079872  0.63356937  1  0  -0.093171  -0.121211  0  3.982579  0
C  C94  1  0.00088284  0.57079798  0.86643104  1  0  -0.093168  -0.121197  0  3.982565  0
C  C95  1  0.99912503  0.92920446  0.36642762  1  0  -0.093132  -0.121248  0  3.982698  0
N  N96  1  0.74330201  0.92192039  0.00810757  1  0  -0.351881  -0.201829  0  3.635832  0
N  N97  1  0.25669727  0.57807835  0.50810578  1  0  -0.351925  -0.201798  0  3.635603  0
N  N98  1  0.25669353  0.07807713  0.99189263  1  0  -0.351937  -0.201882  0  3.635827  0
N  N99  1  0.74330475  0.42192259  0.49189570  1  0  -0.351878  -0.20172  0  3.635543  0
N  N100  1  0.69138937  0.45308318  0.98541062  1  0  -0.25207  -0.052644  0  3.609281  0
N  N101  1  0.30860967  0.04691438  0.48540857  1  0  -0.252032  -0.052663  0  3.609339  0
N  N102  1  0.30860641  0.54691544  0.01459022  1  0  -0.251981  -0.052575  0  3.609264  0
N  N103  1  0.69139529  0.95308441  0.51458906  1  0  -0.251958  -0.052548  0  3.609175  0
N  N104  1  0.59188439  0.37826418  0.92427024  1  0  -0.494565  -0.467496  0  3.425445  0
N  N105  1  0.40811804  0.12173379  0.42426890  1  0  -0.494576  -0.467554  0  3.425489  0
N  N106  1  0.40811344  0.62173339  0.07572995  1  0  -0.494656  -0.467613  0  3.425632  0
N  N107  1  0.59188692  0.87826501  0.57572938  1  0  -0.494629  -0.467592  0  3.42559  0
N  N108  1  0.54556689  0.67925100  0.76123319  1  0  0.096177  0.723003  0  4.402523  0
N  N109  1  0.45442711  0.82074297  0.26123338  1  0  0.096245  0.723126  0  4.40239  0
N  N110  1  0.45443029  0.32074875  0.23876765  1  0  0.096228  0.723024  0  4.402465  0
N  N111  1  0.54556933  0.17925347  0.73876682  1  0  0.096214  0.723064  0  4.402466  0
O  O112  1  0.55401496  0.63956667  0.83908900  1  0  -0.214382  -0.487735  0  2.053775  0
O  O113  1  0.44598348  0.86043246  0.33908793  1  0  -0.214453  -0.48781  0  2.053713  0
O  O114  1  0.44598427  0.36043202  0.16091119  1  0  -0.214399  -0.487746  0  2.053691  0
O  O115  1  0.55401461  0.13956621  0.66091163  1  0  -0.214411  -0.48777  0  2.053796  0
O  O116  1  0.45112274  0.75793985  0.74085682  1  0  -0.185918  -0.431446  0  1.950973  0
O  O117  1  0.54886833  0.74204979  0.24085721  1  0  -0.185949  -0.431477  0  1.950878  0
O  O118  1  0.54886861  0.24205430  0.25914338  1  0  -0.185906  -0.431437  0  1.951034  0
O  O119  1  0.45112646  0.25794442  0.75914299  1  0  -0.185918  -0.431451  0  1.950918  0
O  O120  1  0.63112171  0.63943628  0.70456511  1  0  -0.194188  -0.458605  0  1.960065  0
O  O121  1  0.36887584  0.86055917  0.20456508  1  0  -0.194148  -0.458606  0  1.960097  0
O  O122  1  0.36887762  0.36056791  0.29543573  1  0  -0.194236  -0.458631  0  1.960051  0
O  O123  1  0.63112313  0.13943842  0.79543512  1  0  -0.194181  -0.458613  0  1.960071  0
