# generated using pymatgen
data_YH18C21S2N4O11
_symmetry_space_group_name_H-M   'P 1'
_cell_length_a   8.05689153
_cell_length_b   11.61851783
_cell_length_c   14.39760000
_cell_angle_alpha   110.66037868
_cell_angle_beta   101.67468305
_cell_angle_gamma   93.58201026
_symmetry_Int_Tables_number   1
_chemical_formula_structural   YH18C21S2N4O11
_chemical_formula_sum   'Y2 H36 C42 S4 N8 O22'
_cell_volume   1221.73123492
_cell_formula_units_Z   2
loop_
 _symmetry_equiv_pos_site_id
 _symmetry_equiv_pos_as_xyz
  1  'x, y, z'
loop_
 _atom_site_type_symbol
 _atom_site_label
 _atom_site_symmetry_multiplicity
 _atom_site_fract_x
 _atom_site_fract_y
 _atom_site_fract_z
 _atom_site_occupancy
 _atom_site_hle17_bader_spin_density
 _atom_site_hle17_ddec_charge
 _atom_site_hle17_ddec_spin_density
 _atom_site_hle17_ddec_sum_bond_order
 _atom_site_hle17_magmom
 _atom_site_hse06_10hf_bader_spin_density
 _atom_site_hse06_10hf_ddec_charge
 _atom_site_hse06_10hf_ddec_spin_density
 _atom_site_hse06_10hf_ddec_sum_bond_order
 _atom_site_hse06_10hf_magmom
 _atom_site_hse06_bader_spin_density
 _atom_site_hse06_ddec_charge
 _atom_site_hse06_ddec_spin_density
 _atom_site_hse06_ddec_sum_bond_order
 _atom_site_hse06_magmom
 _atom_site_pbe_bader_charge
 _atom_site_pbe_bader_spin_density
 _atom_site_pbe_cm5_charge
 _atom_site_pbe_ddec_charge
 _atom_site_pbe_ddec_spin_density
 _atom_site_pbe_ddec_sum_bond_order
 _atom_site_pbe_magmom
Y  Y0  1  0.44540582  0.76591980  0.91252572  1  0  2.007963  0  1.884003  0  0  1.796944  0  2.381743  0  0  1.865666  0  2.319839  0  2.282096  0  1.301678  1.747671  0  2.42388  0
Y  Y1  1  0.55459469  0.23407891  0.08747439  1  0  2.007914  0  1.884076  0  0  1.796892  0  2.381771  0  0  1.865612  0  2.31987  0  2.282118  0  1.301698  1.747651  0  2.423849  0
H  H2  1  0.12292256  0.11485157  0.48614991  1  0  0.327463  0  0.895062  0  0  0.308382  0  0.955488  0  0  0.316815  0  0.948425  0  0.524825  0  0.31756  0.302366  0  0.960612  0
H  H3  1  0.87707795  0.88514715  0.51384464  1  0  0.327442  0  0.895047  0  0  0.30839  0  0.955422  0  0  0.31683  0  0.948356  0  0.524814  0  0.317553  0.302373  0  0.960546  0
H  H4  1  0.07343481  0.59193761  0.87773005  1  0  0.09172  0  0.917046  0  0  0.103032  0  0.971883  0  0  0.105991  0  0.96869  0  0.117686  0  0.12824  0.100758  0  0.974384  0
H  H5  1  0.92656003  0.40805181  0.12226747  1  0  0.091667  0  0.917092  0  0  0.102987  0  0.971935  0  0  0.105949  0  0.968742  0  0.117779  0  0.128224  0.100714  0  0.974432  0
H  H6  1  0.88668673  0.39304250  0.76892555  1  0  0.11498  0  0.983964  0  0  0.120521  0  1.048031  0  0  0.123603  0  1.047811  0  0.128224  0  0.10589  0.118276  0  1.048376  0
H  H7  1  0.11330740  0.60694970  0.23106782  1  0  0.114954  0  0.983944  0  0  0.120503  0  1.048  0  0  0.123585  0  1.047782  0  0.128457  0  0.105882  0.118256  0  1.048351  0
H  H8  1  0.98591815  0.24125905  0.62398544  1  0  0.107464  0  0.929264  0  0  0.119008  0  0.985988  0  0  0.122188  0  0.983645  0  0.089675  0  0.111574  0.116615  0  0.987824  0
H  H9  1  0.01407420  0.75873687  0.37600531  1  0  0.107527  0  0.929231  0  0  0.119  0  0.986043  0  0  0.12218  0  0.983702  0  0.089855  0  0.111578  0.116609  0  0.987872  0
H  H10  1  0.74326233  0.43622842  0.53773714  1  0  0.103498  0  0.921408  0  0  0.115726  0  0.977284  0  0  0.119144  0  0.974676  0  0.073792  0  0.11185  0.113237  0  0.979216  0
H  H11  1  0.25674002  0.56377309  0.46226327  1  0  0.10349  0  0.9214  0  0  0.115718  0  0.977283  0  0  0.119137  0  0.974673  0  0.073763  0  0.111839  0.11323  0  0.979215  0
H  H12  1  0.88707222  0.65671416  0.64985483  1  0  0.117603  0  0.935745  0  0  0.128387  0  0.989716  0  0  0.132091  0  0.988252  0  0.106889  0  0.11073  0.125697  0  0.990963  0
H  H13  1  0.11292397  0.34328828  0.35014723  1  0  0.117607  0  0.935719  0  0  0.128377  0  0.98971  0  0  0.132081  0  0.988246  0  0.106911  0  0.110714  0.125687  0  0.990957  0
H  H14  1  0.75456416  0.78157534  0.78664733  1  0  0.078538  0  0.977982  0  0  0.083036  0  1.050507  0  0  0.085545  0  1.048042  0  0.14675  0  0.118032  0.081178  0  1.052274  0
H  H15  1  0.24542584  0.21842152  0.21335245  1  0  0.078643  0  0.977926  0  0  0.083017  0  1.050557  0  0  0.085524  0  1.048094  0  0.146679  0  0.118046  0.08116  0  1.052322  0
H  H16  1  0.10356665  0.78272182  0.15750474  1  0  0.127374  0  0.933437  0  0  0.137006  0  0.991101  0  0  0.14108  0  0.988137  0  0.133424  0  0.118594  0.134005  0  0.993396  0
H  H17  1  0.89644128  0.21727597  0.84249872  1  0  0.127372  0  0.93352  0  0  0.137016  0  0.991173  0  0  0.141086  0  0.988216  0  0.133352  0  0.118609  0.134015  0  0.993467  0
H  H18  1  0.65043584  0.84040377  0.27977341  1  0  0.117606  0  0.958645  0  0  0.120477  0  1.029882  0  0  0.124155  0  1.027265  0  0.120085  0  0.109559  0.11782  0  1.031781  0
H  H19  1  0.34956795  0.15959867  0.72022952  1  0  0.117513  0  0.95875  0  0  0.120454  0  1.029903  0  0  0.124136  0  1.027285  0  0.120132  0  0.109546  0.117796  0  1.031803  0
H  H20  1  0.62623447  0.03905096  0.41463604  1  0  0.109351  0  0.943877  0  0  0.11474  0  1.010044  0  0  0.119008  0  1.007152  0  0.121805  0  0.105002  0.111691  0  1.012193  0
H  H21  1  0.37376731  0.96094775  0.58536630  1  0  0.109371  0  0.943854  0  0  0.114754  0  1.010019  0  0  0.119023  0  1.007126  0  0.121864  0  0.104996  0.111708  0  1.012171  0
H  H22  1  0.06099859  0.07340815  0.11589527  1  0  0.115564  0  0.949591  0  0  0.126208  0  1.016376  0  0  0.129126  0  1.01459  0  0.110553  0  0.104134  0.124104  0  1.017751  0
H  H23  1  0.93900553  0.92658963  0.88410429  1  0  0.115557  0  0.949526  0  0  0.126207  0  1.016351  0  0  0.129125  0  1.014563  0  0.110597  0  0.104141  0.124104  0  1.017726  0
H  H24  1  0.08397903  0.13335424  0.02230713  1  0  0.122152  0  0.909998  0  0  0.137183  0  0.968345  0  0  0.139882  0  0.966599  0  0.085446  0  0.113313  0.135205  0  0.969732  0
H  H25  1  0.91602313  0.86664634  0.97769439  1  0  0.122132  0  0.910024  0  0  0.137185  0  0.968387  0  0  0.139882  0  0.966643  0  0.085439  0  0.113328  0.135207  0  0.969773  0
H  H26  1  0.53475462  0.97140833  0.10750589  1  0  0.425738  0  0.876706  0  0  0.392811  0  0.946781  0  0  0.404104  0  0.93027  0  0.629845  0  0.305885  0.384802  0  0.958475  0
H  H27  1  0.46524683  0.02859504  0.89249426  1  0  0.425694  0  0.876803  0  0  0.392747  0  0.946888  0  0  0.404042  0  0.930374  0  0.629872  0  0.305872  0.384739  0  0.958578  0
H  H28  1  0.69545180  0.89854599  0.12824304  1  0  0.449571  0  0.846535  0  0  0.418642  0  0.908571  0  0  0.42914  0  0.89341  0  0.681901  0  0.305884  0.411183  0  0.919353  0
H  H29  1  0.30454946  0.10145645  0.87175752  1  0  0.449523  0  0.846606  0  0  0.418598  0  0.908629  0  0  0.429094  0  0.893472  0  0.681937  0  0.305891  0.411139  0  0.919412  0
H  H30  1  0.69213988  0.58726894  0.92879528  1  0  0.440989  0  0.855967  0  0  0.409238  0  0.919697  0  0  0.420303  0  0.903705  0  0.66201  0  0.300603  0.401417  0  0.930981  0
H  H31  1  0.30786265  0.41273350  0.07120751  1  0  0.44099  0  0.855969  0  0  0.409247  0  0.919694  0  0  0.420314  0  0.903697  0  0.66199  0  0.300569  0.401426  0  0.930977  0
H  H32  1  0.66327168  0.66872476  0.03566237  1  0  0.436789  0  0.858974  0  0  0.40921  0  0.91578  0  0  0.419949  0  0.900254  0  0.659853  0  0.305828  0.401588  0  0.92679  0
H  H33  1  0.33672596  0.33127860  0.96433944  1  0  0.436761  0  0.858977  0  0  0.409151  0  0.915818  0  0  0.419898  0  0.900285  0  0.659787  0  0.305793  0.401529  0  0.926826  0
H  H34  1  0.18696537  0.83909364  0.74991710  1  0  0.44549  0  0.849445  0  0  0.412606  0  0.91447  0  0  0.423846  0  0.89799  0  0.676654  0  0.299742  0.404646  0  0.926127  0
H  H35  1  0.81303298  0.16090694  0.25008330  1  0  0.445488  0  0.849451  0  0  0.412608  0  0.914467  0  0  0.423848  0  0.897987  0  0.676658  0  0.299745  0.404649  0  0.926123  0
H  H36  1  0.35031235  0.79693612  0.70777359  1  0  0.439098  0  0.81008  0  0  0.41597  0  0.87434  0  0  0.424922  0  0.863698  0  0.622296  0  0.326964  0.40958  0  0.881996  0
H  H37  1  0.64968619  0.20306539  0.29222639  1  0  0.439114  0  0.810032  0  0  0.415984  0  0.874298  0  0  0.424935  0  0.863656  0  0.622291  0  0.326997  0.409594  0  0.881953  0
C  C38  1  0.11062324  0.52807229  0.81174021  1  0  0.16935  0  3.667547  0  0  0.134092  0  3.927381  0  0  0.143508  0  3.941615  0  0.509383  0  0.064876  0.127932  0  3.917606  0
C  C39  1  0.88936690  0.47191898  0.18825453  1  0  0.169296  0  3.667514  0  0  0.133984  0  3.927423  0  0  0.143395  0  3.941661  0  0.509283  0  0.064782  0.127825  0  3.917648  0
C  C40  1  0.00671960  0.41419240  0.75070981  1  0  -0.108036  0  3.716706  0  0  -0.120362  0  3.972858  0  0  -0.126788  0  3.993243  0  0.014852  0  -0.080459  -0.116211  0  3.959095  0
C  C41  1  0.99327092  0.58580074  0.24928064  1  0  -0.107907  0  3.71665  0  0  -0.120216  0  3.972762  0  0  -0.126642  0  3.993153  0  0.014369  0  -0.080395  -0.116066  0  3.958998  0
C  C42  1  0.06079151  0.33234791  0.67057270  1  0  -0.025171  0  3.671431  0  0  -0.053459  0  3.922952  0  0  -0.050552  0  3.939187  0  -0.052609  0  -0.061287  -0.055109  0  3.911947  0
C  C43  1  0.93919939  0.66764709  0.32941693  1  0  -0.025358  0  3.671541  0  0  -0.053596  0  3.923072  0  0  -0.050694  0  3.939302  0  -0.052555  0  -0.061298  -0.055244  0  3.912067  0
C  C44  1  0.21676122  0.36709283  0.65077608  1  0  -0.027563  0  3.786076  0  0  -0.014651  0  4.024666  0  0  -0.017602  0  4.04741  0  0.044293  0  0.00378  -0.012896  0  4.009419  0
C  C45  1  0.78323079  0.63290774  0.34921943  1  0  -0.027401  0  3.786086  0  0  -0.014558  0  4.024687  0  0  -0.017492  0  4.047399  0  0.04446  0  0.003727  -0.012806  0  4.009447  0
C  C46  1  0.28957728  0.29121412  0.57220834  1  0  0.114209  0  3.786913  0  0  0.09421  0  4.042932  0  0  0.096678  0  4.066866  0  0.329216  0  0.096684  0.092575  0  4.026795  0
C  C47  1  0.71041657  0.70878924  0.42778678  1  0  0.11415  0  3.786961  0  0  0.094165  0  4.04296  0  0  0.09664  0  4.066886  0  0.329036  0  0.096736  0.092532  0  4.026823  0
C  C48  1  0.44649135  0.32867973  0.55579233  1  0  0.097341  0  3.862302  0  0  0.091209  0  4.123345  0  0  0.091983  0  4.148313  0  0.516926  0  0.084312  0.090663  0  4.106466  0
C  C49  1  0.55350522  0.67132456  0.44420614  1  0  0.097332  0  3.862288  0  0  0.091237  0  4.123287  0  0  0.092003  0  4.148267  0  0.516926  0  0.084266  0.090691  0  4.106407  0
C  C50  1  0.53948747  0.44996851  0.61590789  1  0  -0.018539  0  3.770249  0  0  -0.007217  0  4.005263  0  0  -0.009986  0  4.028457  0  0.002021  0  0.003466  -0.005556  0  3.989711  0
C  C51  1  0.46050727  0.55003300  0.38409167  1  0  -0.018562  0  3.770296  0  0  -0.007262  0  4.005312  0  0  -0.010032  0  4.028512  0  0.002079  0  0.003482  -0.005601  0  3.989761  0
C  C52  1  0.69191176  0.49603131  0.59923579  1  0  -0.028113  0  3.692037  0  0  -0.056589  0  3.947675  0  0  -0.053689  0  3.964641  0  -0.006881  0  -0.060438  -0.058235  0  3.936022  0
C  C53  1  0.30808678  0.50397019  0.40076489  1  0  -0.028071  0  3.692088  0  0  -0.056548  0  3.947732  0  0  -0.053647  0  3.964698  0  -0.00697  0  -0.06042  -0.058195  0  3.936079  0
C  C54  1  0.77053135  0.61559246  0.66028894  1  0  -0.108763  0  3.724234  0  0  -0.124954  0  3.987043  0  0  -0.131113  0  4.006971  0  0.031899  0  -0.080969  -0.121002  0  3.973617  0
C  C55  1  0.22946700  0.38440811  0.33971146  1  0  -0.108702  0  3.724175  0  0  -0.124893  0  3.986947  0  0  -0.131052  0  4.006876  0  0.031765  0  -0.080914  -0.120941  0  3.973521  0
C  C56  1  0.69691124  0.68668348  0.73809562  1  0  0.154286  0  3.684339  0  0  0.120118  0  3.943518  0  0  0.1287  0  3.959477  0  0.455557  0  0.057449  0.114506  0  3.932642  0
C  C57  1  0.30308383  0.31331337  0.26190473  1  0  0.154099  0  3.684371  0  0  0.120064  0  3.94352  0  0  0.128645  0  3.959481  0  0.455606  0  0.057424  0.114451  0  3.932646  0
C  C58  1  0.47203883  0.52827128  0.69598406  1  0  0.136635  0  3.737347  0  0  0.125822  0  3.984895  0  0  0.13064  0  4.005736  0  0.467549  0  0.120131  0.122529  0  3.970907  0
C  C59  1  0.52795426  0.47172837  0.30401617  1  0  0.136582  0  3.737466  0  0  0.125758  0  3.984995  0  0  0.130575  0  4.005837  0  0.46769  0  0.120077  0.122465  0  3.971008  0
C  C60  1  0.31261268  0.48624672  0.71466682  1  0  0.146403  0  3.7407  0  0  0.134968  0  3.989658  0  0  0.14038  0  4.00998  0  0.494649  0  0.122142  0.131307  0  3.976012  0
C  C61  1  0.68737769  0.51375200  0.28532937  1  0  0.146363  0  3.740832  0  0  0.135011  0  3.989694  0  0  0.140418  0  4.010018  0  0.494466  0  0.122186  0.131351  0  3.97605  0
C  C62  1  0.35642291  0.14340941  0.44495313  1  0  0.332105  0  3.760857  0  0  0.301173  0  4.040983  0  0  0.313037  0  4.056945  0  0.984257  0  0.219333  0.293426  0  4.029846  0
C  C63  1  0.64358342  0.85659302  0.55504869  1  0  0.33209  0  3.760789  0  0  0.301207  0  4.040859  0  0  0.313079  0  4.056809  0  0.984163  0  0.219387  0.293462  0  4.029721  0
C  C64  1  0.35266250  0.02333499  0.36391905  1  0  0.01111  0  3.751864  0  0  0.018741  0  3.986654  0  0  0.020818  0  4.007702  0  0.035462  0  0.004624  0.017327  0  3.972529  0
C  C65  1  0.64734365  0.97666651  0.63608388  1  0  0.01113  0  3.751777  0  0  0.018723  0  3.986584  0  0  0.020811  0  4.007617  0  0.035306  0  0.004599  0.017309  0  3.972462  0
C  C66  1  0.20471471  0.94823513  0.29080067  1  0  -0.14181  0  3.674388  0  0  -0.121821  0  3.925543  0  0  -0.129531  0  3.946868  0  -0.158497  0  -0.014611  -0.116938  0  3.911459  0
C  C67  1  0.79528890  0.05176638  0.70920267  1  0  -0.141773  0  3.674345  0  0  -0.121741  0  3.925465  0  0  -0.129457  0  3.946798  0  -0.158224  0  -0.014624  -0.116862  0  3.911381  0
C  C68  1  0.21860033  0.83748597  0.21441643  1  0  -0.057429  0  3.724835  0  0  -0.09529  0  3.975695  0  0  -0.092854  0  3.994331  0  0.025927  0  -0.075991  -0.096704  0  3.963217  0
C  C69  1  0.78140563  0.16251461  0.78558830  1  0  -0.057452  0  3.725148  0  0  -0.095406  0  3.975944  0  0  -0.09297  0  3.994584  0  0.025865  0  -0.07602  -0.096813  0  3.963459  0
C  C70  1  0.37883755  0.79924674  0.21132266  1  0  -0.103721  0  3.720964  0  0  -0.076636  0  3.971417  0  0  -0.083598  0  3.991046  0  -0.173631  0  -0.011131  -0.072205  0  3.958346  0
C  C71  1  0.62116878  0.20075569  0.78868125  1  0  -0.103782  0  3.721234  0  0  -0.076461  0  3.971362  0  0  -0.083412  0  3.990982  0  -0.173642  0  -0.01113  -0.072041  0  3.95829  0
C  C72  1  0.52600332  0.87051257  0.28350165  1  0  -0.04152  0  3.725307  0  0  -0.073751  0  3.986004  0  0  -0.07013  0  4.002286  0  0.00919  0  -0.078903  -0.076032  0  3.975086  0
C  C73  1  0.47400301  0.12948987  0.71650087  1  0  -0.041465  0  3.72527  0  0  -0.073799  0  3.985908  0  0  -0.070185  0  4.002191  0  0.009125  0  -0.078917  -0.076072  0  3.974986  0
C  C74  1  0.51204650  0.98183357  0.35833689  1  0  -0.075493  0  3.682031  0  0  -0.097071  0  3.938163  0  0  -0.100191  0  3.955792  0  -0.068496  0  -0.079583  -0.095088  0  3.926405  0
C  C75  1  0.48795711  0.01816793  0.64166575  1  0  -0.075547  0  3.681942  0  0  -0.097137  0  3.938152  0  0  -0.100258  0  3.955779  0  -0.068332  0  -0.079585  -0.09516  0  3.926397  0
C  C76  1  0.24590070  0.00072341  0.03303811  1  0  0.773823  0  3.752403  0  0  0.721236  0  4.049304  0  0  0.756991  0  4.039559  0  1.560374  0  0.246408  0.696767  0  4.055288  0
C  C77  1  0.75409873  0.99927624  0.96696145  1  0  0.77383  0  3.752428  0  0  0.721255  0  4.049327  0  0  0.757012  0  4.03958  0  1.560414  0  0.246401  0.696787  0  4.055311  0
C  C78  1  0.07579074  0.04654446  0.03705804  1  0  -0.257868  0  3.692839  0  0  -0.301538  0  3.949564  0  0  -0.306937  0  3.95627  0  -0.052515  0  -0.162918  -0.297752  0  3.944961  0
C  C79  1  0.92420996  0.95345519  0.96294166  1  0  -0.257717  0  3.692713  0  0  -0.301541  0  3.949588  0  0  -0.306931  0  3.956287  0  -0.072379  0  -0.162938  -0.297752  0  3.944982  0
S  S80  1  0.99337179  0.98880915  0.28968471  1  0  1.289578  0  5.646656  0  0  1.186143  0  6.176409  0  0  1.233463  0  6.153853  0  3.174027  0  0.514834  1.153532  0  6.190927  0
S  S81  1  0.00663309  0.01119235  0.71031529  1  0  1.289575  0  5.646525  0  0  1.186112  0  6.176301  0  0  1.233433  0  6.153742  0  3.174099  0  0.514816  1.1535  0  6.190821  0
S  S82  1  0.39429533  0.65868819  0.11239261  1  0  1.33667  0  5.581324  0  0  1.230308  0  6.106475  0  0  1.279793  0  6.081004  0  3.18826  0  0.536563  1.196111  0  6.123086  0
S  S83  1  0.60571607  0.34131425  0.88761396  1  0  1.336338  0  5.581933  0  0  1.229861  0  6.107116  0  0  1.27937  0  6.081642  0  3.18793  0  0.536442  1.195667  0  6.123722  0
N  N84  1  0.25882337  0.56362710  0.79478871  1  0  -0.409742  0  3.229811  0  0  -0.349925  0  3.494348  0  0  -0.368012  0  3.512116  0  -1.266516  0  -0.360387  -0.337504  0  3.482031  0
N  N85  1  0.74116916  0.43636975  0.20520858  1  0  -0.409638  0  3.229701  0  0  -0.349822  0  3.494206  0  0  -0.367911  0  3.511984  0  -1.266455  0  -0.360337  -0.337405  0  3.481891  0
N  N86  1  0.55362014  0.64494159  0.75661131  1  0  -0.412489  0  3.231551  0  0  -0.348113  0  3.4883  0  0  -0.366595  0  3.507774  0  -1.244173  0  -0.359464  -0.335424  0  3.474875  0
N  N87  1  0.44637657  0.35505712  0.24338976  1  0  -0.412396  0  3.231508  0  0  -0.348034  0  3.488187  0  0  -0.366515  0  3.507659  0  -1.24407  0  -0.359463  -0.335348  0  3.474763  0
N  N88  1  0.23477779  0.17324949  0.50072983  1  0  -0.364334  0  3.37132  0  0  -0.305517  0  3.602545  0  0  -0.322576  0  3.616441  0  -1.255181  0  -0.370754  -0.29402  0  3.593107  0
N  N89  1  0.76522183  0.82675109  0.49926724  1  0  -0.364305  0  3.371419  0  0  -0.305504  0  3.602567  0  0  -0.322583  0  3.616469  0  -1.255063  0  -0.370727  -0.294007  0  3.593128  0
N  N90  1  0.48712143  0.23620171  0.47703911  1  0  -0.446339  0  2.941163  0  0  -0.425153  0  3.21446  0  0  -0.437554  0  3.2276  0  -1.161159  0  -0.343741  -0.416528  0  3.205326  0
N  N91  1  0.51288255  0.76380165  0.52296202  1  0  -0.446361  0  2.941046  0  0  -0.425207  0  3.214319  0  0  -0.437607  0  3.227458  0  -1.16107  0  -0.343781  -0.416583  0  3.205186  0
O  O92  1  0.00014640  0.11295007  0.28257689  1  0  -0.68045  0  1.973734  0  0  -0.62281  0  2.215777  0  0  -0.64409  0  2.201227  0  -1.33354  0  -0.337175  -0.607683  0  2.225302  0
O  O93  1  0.99985702  0.88705051  0.71742408  1  0  -0.680423  0  1.973702  0  0  -0.622772  0  2.215767  0  0  -0.644055  0  2.201218  0  -1.333575  0  -0.337133  -0.607642  0  2.22529  0
O  O94  1  0.95765660  0.99023179  0.38643929  1  0  -0.659173  0  1.924028  0  0  -0.612413  0  2.169257  0  0  -0.632769  0  2.155375  0  -1.321689  0  -0.342674  -0.597871  0  2.178229  0
O  O95  1  0.04234612  0.00977157  0.61356101  1  0  -0.659137  0  1.923909  0  0  -0.612416  0  2.169191  0  0  -0.632773  0  2.15531  0  -1.321754  0  -0.342694  -0.597872  0  2.178165  0
O  O96  1  0.88171178  0.89104784  0.19919523  1  0  -0.649919  0  2.002172  0  0  -0.590903  0  2.242591  0  0  -0.612086  0  2.229127  0  -1.33576  0  -0.324689  -0.575982  0  2.251451  0
O  O97  1  0.11829418  0.10895273  0.80080463  1  0  -0.649941  0  2.002173  0  0  -0.590939  0  2.242636  0  0  -0.612118  0  2.229166  0  -1.335856  0  -0.324694  -0.576018  0  2.251499  0
O  O98  1  0.28277158  0.56204453  0.12399263  1  0  -0.657373  0  1.961946  0  0  -0.600794  0  2.199029  0  0  -0.622291  0  2.184135  0  -1.334353  0  -0.325242  -0.585539  0  2.208806  0
O  O99  1  0.71725085  0.43795604  0.87601605  1  0  -0.657167  0  1.961891  0  0  -0.600618  0  2.199018  0  0  -0.622108  0  2.184116  0  -1.334156  0  -0.325222  -0.585363  0  2.208792  0
O  O100  1  0.32656687  0.67489325  0.01462486  1  0  -0.74217  0  2.061349  0  0  -0.67996  0  2.334067  0  0  -0.705994  0  2.319748  0  -1.348702  0  -0.377053  -0.661311  0  2.34315  0
O  O101  1  0.67343801  0.32510826  0.98538279  1  0  -0.742027  0  2.061572  0  0  -0.679774  0  2.334291  0  0  -0.70581  0  2.319969  0  -1.348679  0  -0.376955  -0.661129  0  2.343368  0
O  O102  1  0.57532576  0.64255658  0.12806008  1  0  -0.647378  0  1.974962  0  0  -0.593813  0  2.215419  0  0  -0.614912  0  2.203149  0  -1.324837  0  -0.318618  -0.579115  0  2.223607  0
O  O103  1  0.42468949  0.35745236  0.87194461  1  0  -0.647261  0  1.97511  0  0  -0.59368  0  2.215637  0  0  -0.614832  0  2.203397  0  -1.324773  0  -0.318559  -0.578981  0  2.223824  0
O  O104  1  0.25205555  0.89467325  0.96858266  1  0  -0.668841  0  1.988694  0  0  -0.594308  0  2.227146  0  0  -0.623791  0  2.216649  0  -1.214014  0  -0.365304  -0.573778  0  2.233812  0
O  O105  1  0.74794661  0.10532733  0.03141470  1  0  -0.668854  0  1.988711  0  0  -0.594304  0  2.227149  0  0  -0.623788  0  2.216653  0  -1.214039  0  -0.365292  -0.573781  0  2.233817  0
O  O106  1  0.37971076  0.07395396  0.09691499  1  0  -0.744018  0  2.046617  0  0  -0.672302  0  2.29527  0  0  -0.702753  0  2.283938  0  -1.233741  0  -0.380124  -0.65083  0  2.302403  0
O  O107  1  0.62028778  0.92604754  0.90308430  1  0  -0.743998  0  2.046577  0  0  -0.672297  0  2.29528  0  0  -0.702755  0  2.283953  0  -1.233743  0  -0.380093  -0.650822  0  2.302413  0
O  O108  1  0.58206882  0.89270573  0.08273094  1  0  -0.907759  0  1.956999  0  0  -0.846905  0  2.163719  0  0  -0.870399  0  2.133723  0  -1.316155  0  -0.632352  -0.830254  0  2.184559  0
O  O109  1  0.41792972  0.10729578  0.91727113  1  0  -0.907669  0  1.957094  0  0  -0.846796  0  2.163795  0  0  -0.870288  0  2.133798  0  -1.316197  0  -0.632344  -0.83015  0  2.184632  0
O  O110  1  0.67400322  0.67315354  0.96912219  1  0  -0.880475  0  1.846587  0  0  -0.820508  0  2.033516  0  0  -0.844506  0  2.002545  0  -1.314092  0  -0.628909  -0.803424  0  2.054912  0
O  O111  1  0.32599405  0.32684797  0.03087973  1  0  -0.880405  0  1.846576  0  0  -0.820434  0  2.033559  0  0  -0.844433  0  2.002569  0  -1.314039  0  -0.628815  -0.803354  0  2.054951  0
O  O112  1  0.29920791  0.80928611  0.76567899  1  0  -0.876093  0  1.864899  0  0  -0.820414  0  2.06094  0  0  -0.841274  0  2.032622  0  -1.291209  0  -0.602931  -0.80556  0  2.080587  0
O  O113  1  0.70078988  0.19071168  0.23431985  1  0  -0.8761  0  1.864908  0  0  -0.820431  0  2.060954  0  0  -0.841289  0  2.032636  0  -1.291205  0  -0.602956  -0.805581  0  2.080597  0
