# generated using pymatgen
data_CdH16C16S(NO)4
_symmetry_space_group_name_H-M   'P 1'
_cell_length_a   8.90795678
_cell_length_b   8.82419873
_cell_length_c   13.07862231
_cell_angle_alpha   101.06333961
_cell_angle_beta   90.00000070
_cell_angle_gamma   120.31487325
_symmetry_Int_Tables_number   1
_chemical_formula_structural   CdH16C16S(NO)4
_chemical_formula_sum   'Cd2 H32 C32 S2 N8 O8'
_cell_volume   865.27743643
_cell_formula_units_Z   2
loop_
 _symmetry_equiv_pos_site_id
 _symmetry_equiv_pos_as_xyz
  1  'x, y, z'
loop_
 _atom_site_type_symbol
 _atom_site_label
 _atom_site_symmetry_multiplicity
 _atom_site_fract_x
 _atom_site_fract_y
 _atom_site_fract_z
 _atom_site_occupancy
 _atom_site_hle17_bader_spin_density
 _atom_site_hle17_ddec_charge
 _atom_site_hle17_ddec_spin_density
 _atom_site_hle17_ddec_sum_bond_order
 _atom_site_hle17_magmom
 _atom_site_hse06_10hf_bader_spin_density
 _atom_site_hse06_10hf_ddec_charge
 _atom_site_hse06_10hf_ddec_spin_density
 _atom_site_hse06_10hf_ddec_sum_bond_order
 _atom_site_hse06_10hf_magmom
 _atom_site_hse06_bader_spin_density
 _atom_site_hse06_ddec_charge
 _atom_site_hse06_ddec_spin_density
 _atom_site_hse06_ddec_sum_bond_order
 _atom_site_hse06_magmom
 _atom_site_pbe_bader_spin_density
 _atom_site_pbe_cm5_charge
 _atom_site_pbe_ddec_charge
 _atom_site_pbe_ddec_spin_density
 _atom_site_pbe_ddec_sum_bond_order
 _atom_site_pbe_magmom
Cd  Cd0  1  0.49999948  0.00000084  0.00000088  1  0  1.090289  0  1.643891  0  0  0.902515  0  2.06329  0  0  0.961335  0  2.014453  0  0  0.777714  0.860976  0  2.096405  0
Cd  Cd1  1  0.50000066  0.99999892  0.49999983  1  0  1.090276  0  1.643918  0  0  0.90249  0  2.063332  0  0  0.961311  0  2.014492  0  0  0.777709  0.860946  0  2.096453  0
H  H2  1  0.94454307  0.01817657  0.07890623  1  0  0.143426  0  0.969317  0  0  0.149385  0  1.033857  0  0  0.153174  0  1.031088  0  0  0.11043  0.146608  0  1.035959  0
H  H3  1  0.92637043  0.98182735  0.42109657  1  0  0.143494  0  0.96927  0  0  0.149446  0  1.033807  0  0  0.153234  0  1.031042  0  0  0.110474  0.146689  0  1.035872  0
H  H4  1  0.05545764  0.98182657  0.92109479  1  0  0.143478  0  0.969296  0  0  0.14943  0  1.03383  0  0  0.153217  0  1.031065  0  0  0.11046  0.146662  0  1.035915  0
H  H5  1  0.07363297  0.01817443  0.57890503  1  0  0.143506  0  0.969297  0  0  0.149443  0  1.033842  0  0  0.15323  0  1.031077  0  0  0.110469  0.146672  0  1.035929  0
H  H6  1  0.41934519  0.80484362  0.73765046  1  0  0.11171  0  1.002881  0  0  0.11548  0  1.075726  0  0  0.119252  0  1.071072  0  0  0.129061  0.112668  0  1.079073  0
H  H7  1  0.61450293  0.19515757  0.76235016  1  0  0.111724  0  1.002844  0  0  0.115479  0  1.07571  0  0  0.119251  0  1.071056  0  0  0.129067  0.11267  0  1.079053  0
H  H8  1  0.58065529  0.19515682  0.26235096  1  0  0.111706  0  1.002881  0  0  0.115484  0  1.07571  0  0  0.119255  0  1.071058  0  0  0.129059  0.11267  0  1.079061  0
H  H9  1  0.38549688  0.80484154  0.23764956  1  0  0.11172  0  1.002856  0  0  0.115474  0  1.075718  0  0  0.119247  0  1.071064  0  0  0.129063  0.112657  0  1.079072  0
H  H10  1  0.08803717  0.62695316  0.97315320  1  0  0.098994  0  0.970827  0  0  0.10962  0  1.031425  0  0  0.111792  0  1.030757  0  0  0.113782  0.108011  0  1.032067  0
H  H11  1  0.46108524  0.37304453  0.52684541  1  0  0.098985  0  0.970804  0  0  0.109612  0  1.031407  0  0  0.111783  0  1.030741  0  0  0.113783  0.108001  0  1.032049  0
H  H12  1  0.91196286  0.37304864  0.02684687  1  0  0.098989  0  0.970797  0  0  0.109615  0  1.031402  0  0  0.111787  0  1.030735  0  0  0.113777  0.108004  0  1.032048  0
H  H13  1  0.53891390  0.62695325  0.47315336  1  0  0.09899  0  0.970809  0  0  0.109613  0  1.031419  0  0  0.111785  0  1.030752  0  0  0.113777  0.107998  0  1.032066  0
H  H14  1  0.92701080  0.37741243  0.78262462  1  0  0.11993  0  0.969429  0  0  0.125905  0  1.038129  0  0  0.128895  0  1.036078  0  0  0.120329  0.123705  0  1.039677  0
H  H15  1  0.54959581  0.62258281  0.71737367  1  0  0.119988  0  0.969313  0  0  0.125957  0  1.038016  0  0  0.128936  0  1.035978  0  0  0.120343  0.123755  0  1.039569  0
H  H16  1  0.07298856  0.62258802  0.21737604  1  0  0.119946  0  0.969403  0  0  0.125916  0  1.038108  0  0  0.128906  0  1.036057  0  0  0.120332  0.123718  0  1.039658  0
H  H17  1  0.45040334  0.37741498  0.28262434  1  0  0.119962  0  0.969319  0  0  0.125905  0  1.038056  0  0  0.128889  0  1.036013  0  0  0.120319  0.123702  0  1.039614  0
H  H18  1  0.06978777  0.34574537  0.60321291  1  0  0.089159  0  0.949648  0  0  0.101031  0  1.015671  0  0  0.102536  0  1.01508  0  0  0.107468  0.099805  0  1.016275  0
H  H19  1  0.72404484  0.65425408  0.89678595  1  0  0.089142  0  0.949639  0  0  0.101017  0  1.015665  0  0  0.102522  0  1.015071  0  0  0.107475  0.099791  0  1.016268  0
H  H20  1  0.93021114  0.65425644  0.39678641  1  0  0.089142  0  0.949615  0  0  0.10103  0  1.015627  0  0  0.102535  0  1.015034  0  0  0.107472  0.099805  0  1.016229  0
H  H21  1  0.27595498  0.34574504  0.10321301  1  0  0.08914  0  0.949664  0  0  0.101021  0  1.015675  0  0  0.102526  0  1.015083  0  0  0.107465  0.099795  0  1.016283  0
H  H22  1  0.25948246  0.54687429  0.58557443  1  0  0.074099  0  0.923992  0  0  0.092031  0  0.984327  0  0  0.092278  0  0.984903  0  0  0.109853  0.091779  0  0.983969  0
H  H23  1  0.71260779  0.45312546  0.91442523  1  0  0.074095  0  0.923963  0  0  0.092021  0  0.984316  0  0  0.092267  0  0.984894  0  0  0.109853  0.091767  0  0.983963  0
H  H24  1  0.74051802  0.45312616  0.41442623  1  0  0.074083  0  0.923985  0  0  0.092017  0  0.984321  0  0  0.092263  0  0.984898  0  0  0.109851  0.09176  0  0.983971  0
H  H25  1  0.28739090  0.54687366  0.08557448  1  0  0.074098  0  0.924  0  0  0.092026  0  0.984339  0  0  0.092272  0  0.984917  0  0  0.109848  0.091773  0  0.983986  0
H  H26  1  0.07343521  0.68533109  0.57459419  1  0  0.068665  0  0.958321  0  0  0.083952  0  1.025185  0  0  0.084674  0  1.025596  0  0  0.086219  0.083374  0  1.02497  0
H  H27  1  0.38810227  0.31467046  0.92540724  1  0  0.068679  0  0.958347  0  0  0.083972  0  1.025208  0  0  0.084693  0  1.02562  0  0  0.086249  0.083393  0  1.024998  0
H  H28  1  0.92656661  0.31467205  0.42540759  1  0  0.068695  0  0.95832  0  0  0.083988  0  1.025167  0  0  0.084711  0  1.025576  0  0  0.086242  0.083406  0  1.02496  0
H  H29  1  0.61189598  0.68533001  0.07459189  1  0  0.068679  0  0.95835  0  0  0.083976  0  1.025192  0  0  0.084698  0  1.025604  0  0  0.086247  0.083395  0  1.024981  0
H  H30  1  0.88710156  0.48335050  0.59099548  1  0  0.072194  0  0.939469  0  0  0.089869  0  1.000366  0  0  0.090246  0  1.002029  0  0  0.089147  0.08952  0  0.999318  0
H  H31  1  0.40375185  0.51665114  0.90900366  1  0  0.072182  0  0.939422  0  0  0.08985  0  1.000339  0  0  0.090234  0  1.001992  0  0  0.089127  0.089504  0  0.999284  0
H  H32  1  0.11290028  0.51665266  0.40900401  1  0  0.072186  0  0.939469  0  0  0.089855  0  1.000378  0  0  0.090222  0  1.002052  0  0  0.089123  0.089508  0  0.99932  0
H  H33  1  0.59624931  0.48335067  0.09099565  1  0  0.072205  0  0.939397  0  0  0.089869  0  1.000312  0  0  0.090254  0  1.001965  0  0  0.089135  0.089522  0  0.999259  0
C  C34  1  0.24619352  0.99855461  0.12521119  1  0  0.646538  0  3.922019  0  0  0.598133  0  4.213074  0  0  0.632701  0  4.20632  0  0  0.193916  0.574689  0  4.216828  0
C  C35  1  0.24763804  0.00143891  0.37478792  1  0  0.646571  0  3.921898  0  0  0.598165  0  4.212956  0  0  0.632733  0  4.206202  0  0  0.193948  0.57472  0  4.216708  0
C  C36  1  0.75380225  0.00144316  0.87478758  1  0  0.646544  0  3.922021  0  0  0.598125  0  4.213097  0  0  0.632692  0  4.206344  0  0  0.193916  0.574676  0  4.216852  0
C  C37  1  0.75236222  0.99855884  0.62521238  1  0  0.64641  0  3.922026  0  0  0.598004  0  4.213096  0  0  0.632571  0  4.206347  0  0  0.193882  0.574563  0  4.216841  0
C  C38  1  0.11836372  0.00769392  0.19605328  1  0  -0.082762  0  3.777456  0  0  -0.072253  0  4.022882  0  0  -0.078904  0  4.044397  0  0  -0.03316  -0.067975  0  4.008452  0
C  C39  1  0.11066863  0.99230185  0.30394613  1  0  -0.082724  0  3.777349  0  0  -0.07223  0  4.022791  0  0  -0.078879  0  4.044306  0  0  -0.033153  -0.067944  0  4.008353  0
C  C40  1  0.88163430  0.99230385  0.80394625  1  0  -0.08272  0  3.777409  0  0  -0.072213  0  4.022848  0  0  -0.078862  0  4.044363  0  0  -0.033162  -0.067923  0  4.008409  0
C  C41  1  0.88933365  0.00769996  0.69605395  1  0  -0.08266  0  3.77738  0  0  -0.072185  0  4.022834  0  0  -0.078835  0  4.044351  0  0  -0.033173  -0.067898  0  4.008393  0
C  C42  1  0.97809287  0.01511422  0.15803930  1  0  -0.184241  0  3.659701  0  0  -0.209823  0  3.937154  0  0  -0.207253  0  3.951459  0  0  -0.096382  -0.211244  0  3.927431  0
C  C43  1  0.96298088  0.98488849  0.34196257  1  0  -0.184351  0  3.659626  0  0  -0.209932  0  3.937112  0  0  -0.207362  0  3.951414  0  0  -0.096436  -0.211362  0  3.927368  0
C  C44  1  0.02190716  0.98488757  0.84196154  1  0  -0.184363  0  3.659739  0  0  -0.209937  0  3.937206  0  0  -0.207367  0  3.951511  0  0  -0.096431  -0.211369  0  3.927484  0
C  C45  1  0.03702319  0.01511465  0.65803845  1  0  -0.184426  0  3.659732  0  0  -0.209976  0  3.93721  0  0  -0.207406  0  3.951513  0  0  -0.096432  -0.211406  0  3.927482  0
C  C46  1  0.30840834  0.72485728  0.77767129  1  0  0.130995  0  3.690235  0  0  0.067281  0  3.963577  0  0  0.080902  0  3.976485  0  0  0.128329  0.058536  0  3.9546  0
C  C47  1  0.58355236  0.27514233  0.72232835  1  0  0.130983  0  3.690223  0  0  0.067269  0  3.963576  0  0  0.080889  0  3.976485  0  0  0.128313  0.058511  0  3.954607  0
C  C48  1  0.69159102  0.27514317  0.22232937  1  0  0.130999  0  3.690282  0  0  0.067286  0  3.963616  0  0  0.080907  0  3.976525  0  0  0.128339  0.058538  0  3.954643  0
C  C49  1  0.41644746  0.72485679  0.27767060  1  0  0.130993  0  3.690212  0  0  0.067293  0  3.963559  0  0  0.080913  0  3.976466  0  0  0.128321  0.05855  0  3.954586  0
C  C50  1  0.13201236  0.62606612  0.89594543  1  0  -0.013112  0  3.778404  0  0  -0.047548  0  4.047317  0  0  -0.045523  0  4.067968  0  0  -0.011446  -0.048941  0  4.033397  0
C  C51  1  0.50594710  0.37393304  0.60405568  1  0  -0.013044  0  3.778462  0  0  -0.047481  0  4.047382  0  0  -0.045457  0  4.06803  0  0  -0.011438  -0.048871  0  4.033456  0
C  C52  1  0.86798879  0.37393568  0.10405541  1  0  -0.013062  0  3.778314  0  0  -0.047502  0  4.047229  0  0  -0.045478  0  4.067879  0  0  -0.01144  -0.048892  0  4.033311  0
C  C53  1  0.49405383  0.62606606  0.39594480  1  0  -0.013072  0  3.778395  0  0  -0.047513  0  4.04731  0  0  -0.045488  0  4.067958  0  0  -0.011434  -0.048896  0  4.033384  0
C  C54  1  0.05054025  0.50383717  0.80225603  1  0  -0.059471  0  3.654893  0  0  -0.099801  0  3.914213  0  0  -0.098002  0  3.93279  0  0  -0.000736  -0.100924  0  3.901792  0
C  C55  1  0.54670189  0.49615791  0.69774223  1  0  -0.059607  0  3.654891  0  0  -0.09994  0  3.914228  0  0  -0.09813  0  3.932811  0  0  -0.000769  -0.101065  0  3.901812  0
C  C56  1  0.94945799  0.49616329  0.19774386  1  0  -0.059541  0  3.654836  0  0  -0.099867  0  3.914164  0  0  -0.098068  0  3.932739  0  0  -0.000758  -0.100998  0  3.901749  0
C  C57  1  0.45329838  0.50383988  0.30225577  1  0  -0.059546  0  3.654826  0  0  -0.099841  0  3.914147  0  0  -0.098039  0  3.932735  0  0  -0.000739  -0.100968  0  3.901732  0
C  C58  1  0.13120139  0.49238368  0.61540518  1  0  -0.002575  0  3.611638  0  0  -0.06421  0  3.867581  0  0  -0.060368  0  3.878894  0  0  -0.053908  -0.066618  0  3.859872  0
C  C59  1  0.63881765  0.50761571  0.88459519  1  0  -0.002479  0  3.611512  0  0  -0.064118  0  3.867487  0  0  -0.060276  0  3.878797  0  0  -0.053886  -0.066524  0  3.859778  0
C  C60  1  0.86879797  0.50761677  0.38459548  1  0  -0.002487  0  3.611559  0  0  -0.064134  0  3.867517  0  0  -0.06029  0  3.878826  0  0  -0.053883  -0.066539  0  3.859808  0
C  C61  1  0.36118104  0.49238340  0.11540452  1  0  -0.002564  0  3.611633  0  0  -0.064189  0  3.867557  0  0  -0.06035  0  3.878875  0  0  -0.053894  -0.066599  0  3.859856  0
C  C62  1  0.01408275  0.53835615  0.55904297  1  0  -0.120175  0  3.669675  0  0  -0.158813  0  3.926914  0  0  -0.160359  0  3.940748  0  0  -0.164911  -0.157607  0  3.917421  0
C  C63  1  0.47572544  0.46164412  0.94095675  1  0  -0.120201  0  3.669667  0  0  -0.158866  0  3.92694  0  0  -0.160416  0  3.940772  0  0  -0.164933  -0.157661  0  3.917446  0
C  C64  1  0.98591840  0.46164565  0.44095710  1  0  -0.120224  0  3.669722  0  0  -0.158884  0  3.926999  0  0  -0.160427  0  3.940838  0  0  -0.164932  -0.157679  0  3.917507  0
C  C65  1  0.52427392  0.53835635  0.05904238  1  0  -0.120196  0  3.669658  0  0  -0.158839  0  3.926907  0  0  -0.160393  0  3.940744  0  0  -0.164926  -0.157631  0  3.917415  0
S  S66  1  0.83805254  0.00000579  0.25000223  1  0  0.209388  0  2.731511  0  0  0.21856  0  3.082896  0  0  0.21648  0  3.089263  0  0  0.106942  0.219754  0  3.078474  0
S  S67  1  0.16195024  0.00000129  0.75000072  1  0  0.209454  0  2.731547  0  0  0.21863  0  3.082923  0  0  0.216551  0  3.089291  0  0  0.106963  0.219825  0  3.078503  0
N  N68  1  0.16408990  0.56884932  0.72844692  1  0  -0.054808  0  3.572289  0  0  0.041629  0  3.788455  0  0  0.026778  0  3.815368  0  0  -0.239896  0.051404  0  3.770147  0
N  N69  1  0.59524027  0.43114871  0.77155251  1  0  -0.054835  0  3.572276  0  0  0.041621  0  3.788441  0  0  0.026769  0  3.815351  0  0  -0.239914  0.0514  0  3.770133  0
N  N70  1  0.83590946  0.43115114  0.27155298  1  0  -0.054807  0  3.572264  0  0  0.041631  0  3.788435  0  0  0.02678  0  3.815348  0  0  -0.239882  0.051411  0  3.770122  0
N  N71  1  0.40476000  0.56884906  0.22844626  1  0  -0.054785  0  3.572259  0  0  0.041646  0  3.788423  0  0  0.026796  0  3.815335  0  0  -0.239874  0.051423  0  3.770113  0
N  N72  1  0.29290753  0.76247264  0.87948834  1  0  -0.402986  0  3.318075  0  0  -0.323847  0  3.603725  0  0  -0.346891  0  3.62242  0  0  -0.370149  -0.308131  0  3.590541  0
N  N73  1  0.53043580  0.23752685  0.62051128  1  0  -0.402978  0  3.318094  0  0  -0.323837  0  3.603752  0  0  -0.34688  0  3.622446  0  0  -0.370133  -0.308115  0  3.590565  0
N  N74  1  0.70709227  0.23752647  0.12051213  1  0  -0.402991  0  3.318057  0  0  -0.323853  0  3.603707  0  0  -0.346897  0  3.622402  0  0  -0.370148  -0.308134  0  3.590524  0
N  N75  1  0.46956402  0.76247226  0.37948844  1  0  -0.402988  0  3.31806  0  0  -0.323852  0  3.603716  0  0  -0.346894  0  3.622408  0  0  -0.370147  -0.308138  0  3.590532  0
O  O76  1  0.30647872  0.89739832  0.13623940  1  0  -0.646573  0  1.960294  0  0  -0.583887  0  2.199976  0  0  -0.612058  0  2.18979  0  0  -0.332216  -0.564067  0  2.206171  0
O  O77  1  0.40908133  0.10259021  0.36375828  1  0  -0.646595  0  1.960399  0  0  -0.583897  0  2.200069  0  0  -0.612068  0  2.189883  0  0  -0.332213  -0.56408  0  2.206268  0
O  O78  1  0.69351818  0.10259946  0.86375937  1  0  -0.646632  0  1.960365  0  0  -0.583923  0  2.200036  0  0  -0.612091  0  2.18985  0  0  -0.332232  -0.564101  0  2.206229  0
O  O79  1  0.59092028  0.89740350  0.63624148  1  0  -0.646565  0  1.960421  0  0  -0.58385  0  2.200071  0  0  -0.61202  0  2.189887  0  0  -0.332206  -0.564033  0  2.206262  0
O  O80  1  0.28740078  0.08873418  0.05380191  1  0  -0.638839  0  1.948685  0  0  -0.574649  0  2.182693  0  0  -0.602755  0  2.174409  0  0  -0.328054  -0.554937  0  2.187692  0
O  O81  1  0.19866513  0.91126470  0.44619944  1  0  -0.638858  0  1.948602  0  0  -0.574664  0  2.182595  0  0  -0.602768  0  2.174308  0  0  -0.328091  -0.554952  0  2.187594  0
O  O82  1  0.71259746  0.91126628  0.94619798  1  0  -0.638825  0  1.948696  0  0  -0.574632  0  2.182716  0  0  -0.602738  0  2.174433  0  0  -0.328043  -0.55492  0  2.187717  0
O  O83  1  0.80133535  0.08873575  0.55380122  1  0  -0.638765  0  1.948609  0  0  -0.574576  0  2.182613  0  0  -0.60268  0  2.17433  0  0  -0.328029  -0.554869  0  2.187614  0
