# generated using pymatgen
data_CuH12C20(NO2)2
_symmetry_space_group_name_H-M   'P 1'
_cell_length_a   8.15029734
_cell_length_b   16.76599232
_cell_length_c   16.76598016
_cell_angle_alpha   90.00031903
_cell_angle_beta   90.00027740
_cell_angle_gamma   89.99886301
_symmetry_Int_Tables_number   1
_chemical_formula_structural   CuH12C20(NO2)2
_chemical_formula_sum   'Cu4 H48 C80 N8 O16'
_cell_volume   2291.03468224
_cell_formula_units_Z   4
loop_
 _symmetry_equiv_pos_site_id
 _symmetry_equiv_pos_as_xyz
  1  'x, y, z'
loop_
 _atom_site_type_symbol
 _atom_site_label
 _atom_site_symmetry_multiplicity
 _atom_site_fract_x
 _atom_site_fract_y
 _atom_site_fract_z
 _atom_site_occupancy
 _atom_site_pbe_bader_charge
 _atom_site_pbe_bader_spin_density
 _atom_site_pbe_cm5_charge
 _atom_site_pbe_ddec_charge
 _atom_site_pbe_ddec_spin_density
 _atom_site_pbe_ddec_sum_bond_order
 _atom_site_pbe_magmom
Cu  Cu0  1  0.99999571  0.21968573  0.21968355  1  1.036501  0.554767  0.746132  0.74652  0.720276  2.259474  0.553
Cu  Cu1  1  0.00000270  0.78032879  0.78032756  1  1.036481  0.554727  0.7462  0.746348  0.720247  2.259132  0.553
Cu  Cu2  1  0.50000294  0.28032180  0.71968014  1  1.036755  0.554762  0.746136  0.746434  0.720272  2.25916  0.553
Cu  Cu3  1  0.49999057  0.71967721  0.28032262  1  1.036523  0.554754  0.746122  0.746404  0.720272  2.25923  0.553
H  H4  1  0.58339965  0.97410203  0.30860391  1  0.130174  0.000514  0.106886  0.111428  0.000457  1.004977  0.0
H  H5  1  0.58340249  0.02589558  0.69138772  1  0.130717  0.000513  0.106893  0.111499  0.000457  1.005036  0.0
H  H6  1  0.08340278  0.19140086  0.47409519  1  0.130223  0.000514  0.106857  0.111457  0.000457  1.005043  0.0
H  H7  1  0.08338800  0.80861470  0.52589704  1  0.130156  0.000514  0.106893  0.111488  0.000457  1.005064  0.0
H  H8  1  0.91660894  0.52589870  0.80861319  1  0.130224  0.000514  0.106863  0.111448  0.000457  1.005049  0.0
H  H9  1  0.91658729  0.47408854  0.19139532  1  0.130052  0.000515  0.106906  0.111487  0.000457  1.005085  0.0
H  H10  1  0.41659563  0.30859920  0.97410187  1  0.130928  0.000513  0.106928  0.111526  0.000457  1.004973  0.0
H  H11  1  0.41660764  0.69138690  0.02590069  1  0.130205  0.000513  0.106861  0.11145  0.000457  1.005022  0.0
H  H12  1  0.05170055  0.87055669  0.23430790  1  0.161308  0.00015  0.113774  0.128274  6.5e-05  1.018561  0.0
H  H13  1  0.05173548  0.12945977  0.76568068  1  0.160932  0.00015  0.113878  0.128339  6.5e-05  1.018525  0.0
H  H14  1  0.55172477  0.26568738  0.37054698  1  0.160941  0.00015  0.11379  0.128269  6.5e-05  1.01844  0.0
H  H15  1  0.55170300  0.73430874  0.62944994  1  0.160983  0.00015  0.113783  0.128272  6.5e-05  1.018513  0.0
H  H16  1  0.44830698  0.62944130  0.73430113  1  0.161145  0.00015  0.113839  0.12836  6.5e-05  1.018467  0.0
H  H17  1  0.44827066  0.37054390  0.26568421  1  0.161023  0.00015  0.113768  0.128213  6.5e-05  1.0185  0.0
H  H18  1  0.94830361  0.23430727  0.87055391  1  0.161132  0.00015  0.113797  0.128319  6.5e-05  1.018482  0.0
H  H19  1  0.94827804  0.76568682  0.12946064  1  0.16078  0.00015  0.113845  0.1283  6.6e-05  1.01853  0.0
H  H20  1  0.78127372  0.08737780  0.18764722  1  0.114858  0.002789  0.121178  0.086333  0.001306  0.995281  0.002
H  H21  1  0.78129067  0.91265309  0.81236694  1  0.114967  0.002788  0.121179  0.08627  0.001306  0.995632  0.002
H  H22  1  0.28128813  0.31235876  0.58736024  1  0.114798  0.002787  0.121218  0.086419  0.001305  0.995559  0.002
H  H23  1  0.28127102  0.68763281  0.41263425  1  0.114545  0.002787  0.121196  0.086344  0.001305  0.995329  0.002
H  H24  1  0.71871726  0.41262001  0.68763194  1  0.114559  0.002788  0.121235  0.086352  0.001306  0.995255  0.002
H  H25  1  0.71871060  0.58735840  0.31235762  1  0.11479  0.002785  0.121212  0.086349  0.001305  0.995541  0.002
H  H26  1  0.21872728  0.18765405  0.08737473  1  0.114667  0.002787  0.121183  0.086317  0.001305  0.995384  0.002
H  H27  1  0.21871742  0.81236855  0.91264943  1  0.114824  0.002788  0.12117  0.086294  0.001306  0.995586  0.002
H  H28  1  0.78875676  0.93750820  0.19455107  1  0.089761  0.001383  0.113838  0.125949  0.00076  0.988694  0.001
H  H29  1  0.78878623  0.06251665  0.80544164  1  0.089602  0.001383  0.113931  0.126016  0.00076  0.988688  0.001
H  H30  1  0.28878419  0.30544491  0.43749783  1  0.090024  0.001383  0.113907  0.12595  0.00076  0.988875  0.001
H  H31  1  0.28877320  0.69454242  0.56249847  1  0.089878  0.001384  0.113858  0.12598  0.000761  0.988751  0.001
H  H32  1  0.71123475  0.56248713  0.69453323  1  0.0898  0.001384  0.113937  0.126047  0.000761  0.988673  0.001
H  H33  1  0.71121451  0.43749314  0.30543901  1  0.089719  0.001383  0.113932  0.126011  0.00076  0.988774  0.001
H  H34  1  0.21125435  0.19456091  0.93750697  1  0.089607  0.001383  0.113808  0.125946  0.00076  0.988665  0.001
H  H35  1  0.21122035  0.80544924  0.06251300  1  0.089519  0.001383  0.11393  0.125994  0.00076  0.988818  0.001
H  H36  1  0.28803493  0.18132292  0.25666940  1  0.144514  -0.000129  0.105647  0.116402  -0.000299  1.046066  0.0
H  H37  1  0.28805503  0.81867516  0.74334478  1  0.1445  -0.000129  0.105628  0.116348  -0.000299  1.046082  0.0
H  H38  1  0.78806293  0.24334009  0.68132175  1  0.144593  -0.000129  0.105631  0.116378  -0.000299  1.046028  0.0
H  H39  1  0.78802980  0.75666390  0.31867751  1  0.144551  -0.000129  0.105591  0.11638  -0.000299  1.046093  0.0
H  H40  1  0.21196868  0.31867652  0.75666552  1  0.144486  -0.000129  0.105585  0.116318  -0.000299  1.046066  0.0
H  H41  1  0.21192192  0.68131751  0.24333895  1  0.144704  -0.000129  0.105617  0.116431  -0.000299  1.046016  0.0
H  H42  1  0.71196479  0.25667320  0.18132170  1  0.144642  -0.000129  0.10564  0.116389  -0.000299  1.046147  0.0
H  H43  1  0.71195804  0.74334345  0.81867738  1  0.144561  -0.000129  0.105628  0.116369  -0.000299  1.045993  0.0
H  H44  1  0.55424871  0.12242873  0.29854841  1  0.142743  0.000109  0.103222  0.118447  8e-05  1.03763  0.0
H  H45  1  0.55425618  0.87757095  0.70145508  1  0.142735  0.000109  0.103167  0.118398  8e-05  1.037743  0.0
H  H46  1  0.05426941  0.20145749  0.62242293  1  0.142535  0.000109  0.103179  0.11846  8e-05  1.037728  0.0
H  H47  1  0.05423761  0.79854941  0.37756804  1  0.142797  0.000109  0.103233  0.118482  8e-05  1.037647  0.0
H  H48  1  0.94575687  0.37756911  0.79855136  1  0.142751  0.000109  0.103223  0.118454  8e-05  1.037667  0.0
H  H49  1  0.94572068  0.62241844  0.20145543  1  0.142438  0.000109  0.103213  0.118463  8e-05  1.037674  0.0
H  H50  1  0.44574636  0.29854837  0.12243142  1  0.14265  0.000109  0.103191  0.118426  8e-05  1.03766  0.0
H  H51  1  0.44575663  0.70145236  0.87757300  1  0.142888  0.000109  0.103225  0.118542  8e-05  1.03764  0.0
C  C52  1  0.33765926  0.94898442  0.27350569  1  -0.051132  0.007147  -0.010904  -0.063959  0.005128  3.92546  0.005
C  C53  1  0.33767247  0.05101437  0.72648476  1  -0.051533  0.007148  -0.011005  -0.063946  0.005127  3.925885  0.005
C  C54  1  0.83767994  0.22649439  0.44897686  1  -0.051879  0.007149  -0.010948  -0.063875  0.005128  3.925927  0.005
C  C55  1  0.83765702  0.77351270  0.55102192  1  -0.051878  0.00715  -0.010893  -0.063924  0.005128  3.925594  0.005
C  C56  1  0.16234498  0.55101916  0.77351153  1  -0.05168  0.00715  -0.010907  -0.064024  0.005128  3.925762  0.005
C  C57  1  0.16231243  0.44897536  0.22648924  1  -0.052159  0.007147  -0.01101  -0.064032  0.005126  3.925993  0.005
C  C58  1  0.66233940  0.27350130  0.94898811  1  -0.050556  0.007143  -0.010878  -0.063969  0.005126  3.92572  0.005
C  C59  1  0.66233060  0.72648899  0.05102159  1  -0.051763  0.007146  -0.010906  -0.063853  0.005126  3.925473  0.005
C  C60  1  0.36646864  0.86072826  0.28080180  1  1.535506  -0.001432  0.194566  0.558225  -0.002054  4.214321  -0.003
C  C61  1  0.36649903  0.13926607  0.71917917  1  1.535891  -0.001434  0.194794  0.55834  -0.002053  4.21374  -0.003
C  C62  1  0.86649455  0.21919649  0.36072495  1  1.53648  -0.001435  0.194631  0.558365  -0.002055  4.214355  -0.003
C  C63  1  0.86646976  0.78081568  0.63927569  1  1.536681  -0.001435  0.194648  0.558175  -0.002055  4.21427  -0.003
C  C64  1  0.13354181  0.63927595  0.78081164  1  1.535549  -0.001434  0.194656  0.558213  -0.002053  4.214244  -0.003
C  C65  1  0.13349439  0.36072302  0.21919204  1  1.536314  -0.001434  0.194867  0.558723  -0.002056  4.213848  -0.003
C  C66  1  0.63352882  0.28079930  0.86073140  1  1.53532  -0.001431  0.194625  0.558237  -0.002054  4.214143  -0.003
C  C67  1  0.63351261  0.71919007  0.13927227  1  1.536214  -0.001434  0.194668  0.558364  -0.002054  4.214327  -0.003
C  C68  1  0.46687275  0.00018405  0.29029613  1  -0.061943  0.001378  -0.07892  -0.088792  0.001014  3.962669  0.001
C  C69  1  0.46688022  0.99981588  0.70969521  1  -0.062349  0.001378  -0.078843  -0.088806  0.001012  3.96258  0.001
C  C70  1  0.96688073  0.20970397  0.50017707  1  -0.061996  0.001377  -0.078779  -0.088724  0.001013  3.962629  0.001
C  C71  1  0.96685907  0.79030545  0.49981366  1  -0.061823  0.001379  -0.078885  -0.088756  0.001014  3.962606  0.001
C  C72  1  0.03313855  0.49981499  0.79030357  1  -0.061873  0.001379  -0.078876  -0.088712  0.001014  3.962537  0.001
C  C73  1  0.03311356  0.50017422  0.20969928  1  -0.062129  0.001378  -0.078825  -0.088703  0.001014  3.962772  0.001
C  C74  1  0.53312187  0.29029340  0.00018693  1  -0.062606  0.00138  -0.079005  -0.088992  0.001014  3.96286  0.001
C  C75  1  0.53313179  0.70969635  0.99981948  1  -0.06184  0.001378  -0.078845  -0.08867  0.001013  3.962428  0.001
C  C76  1  0.16791152  0.06661448  0.24402906  1  0.420509  0.001983  0.11082  0.196873  0.001646  3.975002  0.001
C  C77  1  0.16792953  0.93339669  0.75597411  1  0.420143  0.001986  0.110846  0.19694  0.001648  3.974597  0.001
C  C78  1  0.66793520  0.25597246  0.56660362  1  0.420136  0.001986  0.11086  0.196967  0.001648  3.974545  0.001
C  C79  1  0.66791477  0.74402731  0.43339416  1  0.420213  0.001985  0.110768  0.196921  0.001647  3.975171  0.001
C  C80  1  0.33208214  0.43338728  0.74402848  1  0.42045  0.001985  0.110786  0.196879  0.001647  3.975069  0.001
C  C81  1  0.33205491  0.56659844  0.25596911  1  0.42036  0.001985  0.11089  0.197298  0.001648  3.974632  0.001
C  C82  1  0.83208279  0.24402885  0.06661333  1  0.420517  0.001982  0.110818  0.197021  0.001645  3.97497  0.001
C  C83  1  0.83208280  0.75597412  0.93339796  1  0.420135  0.001985  0.110776  0.196806  0.001648  3.974852  0.001
C  C84  1  0.04254494  0.93514878  0.23026477  1  -0.055936  -0.004613  -0.06106  -0.06599  -0.005136  3.914758  -0.003
C  C85  1  0.04256538  0.06486121  0.76972737  1  -0.055439  -0.004611  -0.061063  -0.066026  -0.005134  3.914816  -0.003
C  C86  1  0.54256215  0.26973330  0.43514565  1  -0.055086  -0.004609  -0.061082  -0.065974  -0.005133  3.91493  -0.003
C  C87  1  0.54254972  0.73026351  0.56485542  1  -0.05561  -0.004612  -0.061054  -0.065914  -0.005136  3.914756  -0.003
C  C88  1  0.45745028  0.56484978  0.73025885  1  -0.055621  -0.004613  -0.061037  -0.06599  -0.005136  3.914653  -0.003
C  C89  1  0.45744327  0.43514487  0.26972949  1  -0.055591  -0.004611  -0.061015  -0.065955  -0.005134  3.914957  -0.003
C  C90  1  0.95746196  0.23026470  0.93514900  1  -0.055826  -0.004614  -0.06102  -0.066011  -0.005138  3.914586  -0.003
C  C91  1  0.95744663  0.76973347  0.06486139  1  -0.055222  -0.00461  -0.061146  -0.066095  -0.005133  3.91509  -0.003
C  C92  1  0.89320165  0.05587664  0.20446405  1  0.556536  -0.003133  0.056004  0.107841  -0.00366  3.955193  -0.002
C  C93  1  0.89321470  0.94413349  0.79554261  1  0.556339  -0.003134  0.0561  0.107868  -0.00366  3.955329  -0.002
C  C94  1  0.39320816  0.29554136  0.55587395  1  0.5567  -0.003133  0.056066  0.107684  -0.00366  3.95523  -0.002
C  C95  1  0.39319313  0.70445451  0.44412975  1  0.556709  -0.003134  0.056043  0.107859  -0.003662  3.955119  -0.002
C  C96  1  0.60680299  0.44412365  0.70445167  1  0.55651  -0.003133  0.05596  0.107812  -0.003661  3.955294  -0.002
C  C97  1  0.60678886  0.55586896  0.29553882  1  0.55702  -0.003133  0.056067  0.107817  -0.003661  3.955246  -0.002
C  C98  1  0.10680326  0.20446711  0.05587515  1  0.556675  -0.003132  0.055969  0.107836  -0.003659  3.955143  -0.002
C  C99  1  0.10679440  0.79554524  0.94413086  1  0.556424  -0.003135  0.056101  0.107842  -0.003662  3.955346  -0.002
C  C100  1  0.89836071  0.97215224  0.20822601  1  -0.053744  0.005629  -0.085423  -0.134592  0.003771  3.989131  0.004
C  C101  1  0.89837551  0.02786738  0.79177172  1  -0.053502  0.00563  -0.085715  -0.134779  0.003772  3.988987  0.004
C  C102  1  0.39838064  0.29177335  0.47213950  1  -0.05448  0.00563  -0.085593  -0.134559  0.003771  3.989291  0.004
C  C103  1  0.39837488  0.70822127  0.52785765  1  -0.054067  0.005629  -0.085502  -0.134675  0.003771  3.989572  0.004
C  C104  1  0.60162603  0.52784853  0.70821308  1  -0.053847  0.005629  -0.085579  -0.134668  0.003771  3.989433  0.004
C  C105  1  0.60162264  0.47213817  0.29176785  1  -0.053599  0.005628  -0.085663  -0.134656  0.00377  3.989488  0.004
C  C106  1  0.10164720  0.20822908  0.97215442  1  -0.053694  0.005627  -0.085393  -0.134525  0.00377  3.989235  0.004
C  C107  1  0.10162691  0.79177736  0.02786887  1  -0.053601  0.005631  -0.085617  -0.134613  0.003772  3.989124  0.004
C  C108  1  0.18269604  0.98147110  0.24974081  1  0.064507  0.006384  0.003256  0.024393  0.004425  3.935984  0.005
C  C109  1  0.18271571  0.01854052  0.75025047  1  0.064624  0.006382  0.003352  0.024466  0.004423  3.936021  0.005
C  C110  1  0.68271840  0.25025523  0.48145561  1  0.064569  0.006384  0.003321  0.02426  0.004424  3.935991  0.005
C  C111  1  0.68271208  0.74974381  0.51853565  1  0.06462  0.006383  0.003355  0.024342  0.004424  3.93597  0.005
C  C112  1  0.31729079  0.51853533  0.74974325  1  0.064586  0.006386  0.003317  0.02436  0.004425  3.936013  0.005
C  C113  1  0.31727433  0.48145054  0.25025073  1  0.064617  0.006383  0.003395  0.024359  0.004423  3.93588  0.005
C  C114  1  0.81730004  0.24973945  0.98146948  1  0.06447  0.006384  0.003266  0.024373  0.004424  3.935948  0.005
C  C115  1  0.81729363  0.75025411  0.01854178  1  0.064391  0.006383  0.003403  0.02446  0.004423  3.935832  0.005
C  C116  1  0.30297314  0.11674332  0.26146109  1  -0.019671  0.002243  -0.084788  -0.157139  0.001276  3.947461  0.002
C  C117  1  0.30298320  0.88325997  0.73854896  1  -0.019632  0.00224  -0.084757  -0.15711  0.001274  3.947758  0.002
C  C118  1  0.80300204  0.23854620  0.61673680  1  -0.019423  0.00224  -0.084801  -0.15707  0.001275  3.947877  0.002
C  C119  1  0.80295709  0.76145525  0.38325951  1  -0.019945  0.002243  -0.084694  -0.157108  0.001277  3.947592  0.002
C  C120  1  0.19703296  0.38325674  0.76145753  1  -0.019988  0.002244  -0.084663  -0.15692  0.001277  3.947403  0.002
C  C121  1  0.19699738  0.61673327  0.23854571  1  -0.019957  0.002241  -0.084748  -0.157194  0.001275  3.947983  0.002
C  C122  1  0.69702258  0.26145956  0.11674569  1  -0.019829  0.002244  -0.084764  -0.15718  0.001277  3.947455  0.002
C  C123  1  0.69702894  0.73854768  0.88326349  1  -0.019762  0.00224  -0.084746  -0.157011  0.001274  3.947714  0.002
C  C124  1  0.45040046  0.08371212  0.28455854  1  -0.129237  -0.001192  -0.084974  -0.061611  -0.001367  3.982889  -0.001
C  C125  1  0.45040035  0.91628438  0.71544231  1  -0.129381  -0.001191  -0.084997  -0.061684  -0.001366  3.982816  -0.001
C  C126  1  0.95041415  0.21544685  0.58370991  1  -0.129214  -0.001191  -0.084944  -0.061711  -0.001366  3.98313  -0.001
C  C127  1  0.95039435  0.78456212  0.41628556  1  -0.128971  -0.001192  -0.085049  -0.061757  -0.001367  3.982711  -0.001
C  C128  1  0.04960097  0.41628569  0.78456376  1  -0.129023  -0.001192  -0.084976  -0.061683  -0.001367  3.982705  -0.001
C  C129  1  0.04958123  0.58370634  0.21544152  1  -0.128453  -0.001192  -0.085002  -0.06176  -0.001367  3.98307  -0.001
C  C130  1  0.54959297  0.28456052  0.08371322  1  -0.129283  -0.001192  -0.08491  -0.061478  -0.001367  3.982879  -0.001
C  C131  1  0.54961041  0.71543981  0.91628847  1  -0.129133  -0.001191  -0.085032  -0.061935  -0.001366  3.983047  -0.001
N  N132  1  0.02246325  0.10104553  0.22139625  1  -1.230786  0.087518  -0.347492  -0.282441  0.058781  3.628841  0.076
N  N133  1  0.02246939  0.89896406  0.77861135  1  -1.230247  0.087505  -0.347495  -0.282308  0.058773  3.628653  0.076
N  N134  1  0.52247764  0.27861016  0.60103693  1  -1.230368  0.087521  -0.347533  -0.282421  0.058784  3.628733  0.076
N  N135  1  0.52246147  0.72139162  0.39896468  1  -1.230357  0.087516  -0.347443  -0.282372  0.058781  3.6287  0.076
N  N136  1  0.47753755  0.39895909  0.72139105  1  -1.230454  0.087532  -0.347538  -0.282562  0.058791  3.629074  0.076
N  N137  1  0.47751159  0.60103537  0.27860688  1  -1.23068  0.087507  -0.347565  -0.282689  0.058775  3.62881  0.076
N  N138  1  0.97753088  0.22139791  0.10104507  1  -1.230678  0.087516  -0.347523  -0.282603  0.058781  3.62886  0.076
N  N139  1  0.97754067  0.77861200  0.89896418  1  -1.230329  0.087507  -0.347474  -0.282304  0.058775  3.628852  0.076
O  O140  1  0.51808685  0.83862981  0.27702343  1  -1.100675  0.116102  -0.327407  -0.525595  0.074952  2.280569  0.104
O  O141  1  0.51810165  0.16136246  0.72296565  1  -1.101062  0.116061  -0.327447  -0.525672  0.074927  2.280785  0.104
O  O142  1  0.01811918  0.22297722  0.33863697  1  -1.100984  0.116107  -0.32744  -0.525702  0.074957  2.280649  0.104
O  O143  1  0.01809477  0.77702764  0.66136942  1  -1.100816  0.116121  -0.327483  -0.525657  0.074964  2.280411  0.104
O  O144  1  0.98191652  0.66137253  0.77702408  1  -1.100539  0.116122  -0.327505  -0.525641  0.074964  2.280281  0.104
O  O145  1  0.98187004  0.33863495  0.22298041  1  -1.100818  0.116095  -0.327554  -0.525925  0.074952  2.280625  0.104
O  O146  1  0.48190487  0.27701970  0.83863349  1  -1.100844  0.116105  -0.32744  -0.525621  0.074955  2.280362  0.104
O  O147  1  0.48188627  0.72296756  0.16136505  1  -1.100921  0.116118  -0.327462  -0.525755  0.074962  2.28048  0.104
O  O148  1  0.24983712  0.81217282  0.29011980  1  -1.175414  -0.000204  -0.321384  -0.567313  -0.001278  2.193857  0.0
O  O149  1  0.24986298  0.18783695  0.70984300  1  -1.175609  -0.0002  -0.321563  -0.567408  -0.001275  2.193251  0.0
O  O150  1  0.74987176  0.20987090  0.31216276  1  -1.175955  -0.000205  -0.321363  -0.567359  -0.001279  2.194011  0.0
O  O151  1  0.74984462  0.79014240  0.68783105  1  -1.175938  -0.000205  -0.321396  -0.56719  -0.001279  2.19394  0.0
O  O152  1  0.25016851  0.68782667  0.79013615  1  -1.175174  -0.000205  -0.321395  -0.56723  -0.001279  2.19392  0.0
O  O153  1  0.25011562  0.31215567  0.20986483  1  -1.175872  -0.000207  -0.321476  -0.567469  -0.00128  2.193976  0.0
O  O154  1  0.75014990  0.29012462  0.81217312  1  -1.175688  -0.000206  -0.321415  -0.567282  -0.001279  2.193899  0.0
O  O155  1  0.75012719  0.70986780  0.18783858  1  -1.175788  -0.000205  -0.321447  -0.567383  -0.001278  2.194099  0.0
