# generated using pymatgen
data_CuH11C9N2ClO2
_symmetry_space_group_name_H-M   'P 1'
_cell_length_a   7.47654832
_cell_length_b   8.58650012
_cell_length_c   17.94390720
_cell_angle_alpha   103.84197086
_cell_angle_beta   96.73557623
_cell_angle_gamma   90.01716570
_symmetry_Int_Tables_number   1
_chemical_formula_structural   CuH11C9N2ClO2
_chemical_formula_sum   'Cu4 H44 C36 N8 Cl4 O8'
_cell_volume   1110.29799301
_cell_formula_units_Z   4
loop_
 _symmetry_equiv_pos_site_id
 _symmetry_equiv_pos_as_xyz
  1  'x, y, z'
loop_
 _atom_site_type_symbol
 _atom_site_label
 _atom_site_symmetry_multiplicity
 _atom_site_fract_x
 _atom_site_fract_y
 _atom_site_fract_z
 _atom_site_occupancy
 _atom_site_hle17_ddec_charge
 _atom_site_hle17_ddec_spin_density
 _atom_site_hle17_ddec_sum_bond_order
 _atom_site_hle17_magmom
 _atom_site_hse06_10hf_ddec_charge
 _atom_site_hse06_10hf_ddec_spin_density
 _atom_site_hse06_10hf_ddec_sum_bond_order
 _atom_site_hse06_10hf_magmom
 _atom_site_hse06_ddec_charge
 _atom_site_hse06_ddec_spin_density
 _atom_site_hse06_ddec_sum_bond_order
 _atom_site_hse06_magmom
 _atom_site_pbe_cm5_charge
 _atom_site_pbe_ddec_charge
 _atom_site_pbe_ddec_spin_density
 _atom_site_pbe_ddec_sum_bond_order
 _atom_site_pbe_magmom
Cu  Cu0  1  0.65849656  0.28823946  0.29741026  1  0.765325  -0.672  1.921874  -0.472  0.738087  -0.760715  2.324483  -0.583  0.827258  -0.831204  2.250539  -0.665  0.650162  0.686902  -0.715483  2.37295  -0.534
Cu  Cu1  1  0.34164317  0.99134906  0.70276796  1  0.76464  -0.662389  1.921496  -0.466  0.737737  -0.754165  2.323938  -0.579  0.826726  -0.827958  2.250695  -0.663  0.649728  0.685773  -0.701922  2.372894  -0.525
Cu  Cu2  1  0.22077550  0.46406393  0.29730193  1  0.748298  -0.659402  1.938286  -0.465  0.729107  -0.752272  2.34638  -0.578  0.818783  -0.826843  2.272253  -0.664  0.634682  0.676159  -0.702108  2.397229  -0.526
Cu  Cu3  1  0.77950889  0.16620127  0.70243488  1  0.74861  0.716677  1.941317  0.466  0.728772  0.802145  2.349808  0.578  0.818056  0.896412  2.276176  0.664  0.635237  0.676267  0.737477  2.400355  0.526
H  H4  1  0.59116299  0.12023912  0.16448819  1  0.271382  0.001098  0.923509  0.002  0.262733  -0.000194  0.97918  0.0  0.270522  0.000101  0.974645  0.001  0.29515  0.257095  -0.000446  0.98291  0.0
H  H5  1  0.40880544  0.95633558  0.83576312  1  0.272621  0.000782  0.922538  0.002  0.26427  -0.000328  0.978016  0.0  0.272131  -9e-06  0.973369  0.001  0.295437  0.258587  -0.000563  0.981797  0.0
H  H6  1  0.57818155  0.17939327  0.44020555  1  0.081697  -0.001412  0.957097  -0.002  0.089199  -0.001351  1.022414  -0.002  0.090726  -0.001004  1.021062  -0.001  0.109013  0.087875  -0.001623  1.023559  -0.002
H  H7  1  0.42142102  0.73955594  0.56012449  1  0.082654  -0.00142  0.956906  -0.002  0.09025  -0.001363  1.02186  -0.002  0.091796  -0.001015  1.020487  -0.001  0.109633  0.088922  -0.00163  1.022982  -0.002
H  H8  1  0.61597703  0.92243790  0.48253370  1  0.110124  -0.001111  0.975545  -0.001  0.11944  -0.001076  1.037502  -0.001  0.122501  -0.000806  1.036552  0.0  0.095196  0.117197  -0.001286  1.038294  -0.001
H  H9  1  0.38307930  0.44034102  0.51780919  1  0.110807  -0.001133  0.972579  -0.001  0.119692  -0.001108  1.035275  -0.001  0.122723  -0.000838  1.034394  0.0  0.095341  0.117441  -0.001318  1.036038  -0.001
H  H10  1  0.72502847  0.68115089  0.38882857  1  0.103386  -2e-06  0.962057  0.0  0.112707  0.000125  1.023468  0.0  0.115145  0.000121  1.021015  0.0  0.098733  0.110691  0.000111  1.025508  0.0
H  H11  1  0.27390152  0.29286834  0.61156025  1  0.102716  -7.1e-05  0.961986  0.0  0.112244  7.4e-05  1.023287  0.0  0.114571  8.5e-05  1.020976  0.0  0.098453  0.110321  5e-05  1.025209  0.0
H  H12  1  0.80027616  0.71394242  0.26120380  1  0.123443  -0.000724  0.978688  -0.001  0.128288  -0.00068  1.046881  -0.001  0.13333  -0.000486  1.043712  -0.001  0.106151  0.124475  -0.00085  1.049409  -0.001
H  H13  1  0.19903666  0.45352959  0.73922304  1  0.122284  -0.000754  0.979113  -0.001  0.127515  -0.000712  1.046902  -0.001  0.132537  -0.000516  1.04372  -0.001  0.105858  0.123783  -0.000878  1.049332  -0.001
H  H14  1  0.94230556  0.01237690  0.22208493  1  0.094728  0.000275  0.918311  0.0  0.113604  0.000163  0.977444  0.0  0.114038  0.000154  0.977582  0.0  0.118448  0.11315  0.000159  0.977476  0.0
H  H15  1  0.05738676  0.79126300  0.77816493  1  0.094206  0.000312  0.917764  0.0  0.113409  0.000208  0.976792  0.0  0.113902  0.000198  0.976885  0.0  0.118689  0.112874  0.000207  0.976876  0.0
H  H16  1  0.76264761  0.88923568  0.16412275  1  0.093757  -0.003983  0.893393  -0.005  0.114307  -0.002799  0.94304  -0.003  0.115423  -0.001916  0.942121  -0.002  0.117698  0.113143  -0.003413  0.94403  -0.004
H  H17  1  0.23676916  0.72587669  0.83616834  1  0.092407  -0.003973  0.893307  -0.005  0.112999  -0.002798  0.943353  -0.003  0.114123  -0.001916  0.942446  -0.002  0.117145  0.111782  -0.003407  0.944374  -0.004
H  H18  1  0.96896672  0.23481457  0.19018541  1  0.07142  0.000477  0.963318  0.0  0.07879  0.000412  1.031886  0.0  0.07907  0.000385  1.032301  0.0  0.109317  0.078401  0.000411  1.031897  0.0
H  H19  1  0.03107808  0.04519474  0.80998666  1  0.072078  -0.000332  0.963597  0.0  0.079303  -0.000154  1.031801  0.0  0.07963  -0.000165  1.032219  0.0  0.109329  0.078892  -0.000132  1.0318  0.0
H  H20  1  0.88872849  0.04914860  0.06207224  1  0.107506  0.0002  0.934817  0.0  0.130643  0.0  0.989987  0.0  0.132113  1.3e-05  0.98982  0.0  0.090838  0.129644  -1.6e-05  0.990013  0.0
H  H21  1  0.11122290  0.98853141  0.93829609  1  0.107832  0.000219  0.933326  0.0  0.130738  1.3e-05  0.988844  0.0  0.132218  2.1e-05  0.988676  0.0  0.090977  0.129747  3e-06  0.988847  0.0
H  H22  1  0.90695469  0.24748542  0.05015876  1  0.111691  -0.001308  0.954573  -0.002  0.132635  -0.00106  1.016531  -0.002  0.133357  -0.000698  1.017384  -0.001  0.093798  0.131913  -0.001348  1.016069  -0.002
H  H23  1  0.09345525  0.19878132  0.94991316  1  0.111109  -0.001308  0.95466  -0.002  0.132186  -0.001062  1.016415  -0.002  0.13297  -0.000691  1.017197  -0.001  0.093744  0.131421  -0.001359  1.016006  -0.002
H  H24  1  0.69055073  0.15653850  0.04419126  1  0.126588  0.000198  0.948168  0.0  0.145782  4.9e-05  1.010307  0.0  0.148471  3.6e-05  1.008767  0.0  0.095403  0.143745  5.6e-05  1.011459  0.0
H  H25  1  0.30967799  0.11350400  0.95592393  1  0.126199  0.000191  0.947603  0.0  0.145268  4e-05  1.010094  0.0  0.147946  3.1e-05  1.008602  0.0  0.095193  0.143228  4.1e-05  1.011239  0.0
H  H26  1  0.45537631  0.56862217  0.23226590  1  0.276324  0.001431  0.914587  0.002  0.266395  0.00011  0.97215  0.001  0.27337  0.000402  0.969457  0.001  0.296436  0.261423  -0.000134  0.974599  0.0
H  H27  1  0.54501749  0.33582409  0.76764494  1  0.276118  -0.001133  0.913816  -0.002  0.266038  -5.7e-05  0.971651  -0.001  0.272978  -0.00028  0.968997  -0.001  0.29606  0.261108  0.000111  0.974037  0.0
H  H28  1  0.12798183  0.65216879  0.45217717  1  0.081944  -0.001506  0.948997  -0.002  0.089623  -0.001398  1.014031  -0.002  0.090876  -0.001054  1.013375  -0.001  0.112023  0.088413  -0.00165  1.014795  -0.002
H  H29  1  0.87229764  0.19971511  0.54762228  1  0.082191  0.001446  0.950475  0.002  0.090125  0.001262  1.015221  0.002  0.091257  0.000952  1.014752  0.001  0.112117  0.089001  0.001483  1.015904  0.002
H  H30  1  0.11469232  0.94626686  0.51626200  1  0.108518  0.000174  0.990487  -0.001  0.116806  0.000137  1.055282  -0.001  0.119699  0.000125  1.054324  0.0  0.091298  0.114523  0.000137  1.056317  -0.001
H  H31  1  0.88506689  0.42979172  0.48350290  1  0.108748  -8e-06  0.990403  0.001  0.116326  -3e-06  1.055743  0.001  0.119187  -1e-05  1.054789  0.0  0.091377  0.114073  -0.0  1.0568  0.001
H  H32  1  0.16780106  0.14682310  0.43748326  1  0.100711  -0.000217  0.942267  0.0  0.114902  -3.6e-05  0.994882  0.0  0.117252  -6e-06  0.99282  0.0  0.102379  0.113001  -6.8e-05  0.996641  0.0
H  H33  1  0.83132602  0.70886679  0.56225725  1  0.101359  0.000237  0.943079  0.0  0.115738  3.2e-05  0.995463  0.0  0.118055  2e-06  0.993441  0.0  0.102905  0.113885  6.4e-05  0.99716  0.0
H  H34  1  0.23290675  0.04741007  0.30205224  1  0.126456  -0.000641  0.94678  -0.001  0.134083  -0.000653  1.011411  -0.001  0.138064  -0.000465  1.009265  -0.001  0.107352  0.130969  -0.000799  1.013374  -0.001
H  H35  1  0.76647302  0.74483111  0.69766642  1  0.125813  0.000744  0.946328  0.001  0.132943  0.000741  1.011686  0.001  0.136908  0.000536  1.009562  0.001  0.107038  0.129869  0.000895  1.013619  0.001
H  H36  1  0.11168782  0.70938289  0.18698452  1  0.099955  0.000286  0.910189  0.0  0.120169  0.000133  0.966622  0.0  0.121593  0.000157  0.96567  0.0  0.121547  0.11877  9.8e-05  0.967689  0.0
H  H37  1  0.88882569  0.52183958  0.81274331  1  0.100477  -0.000275  0.910059  0.0  0.119826  -0.000187  0.966804  0.0  0.121301  -0.000189  0.965803  0.0  0.121297  0.11842  -0.000172  0.967877  0.0
H  H38  1  0.32921430  0.80402834  0.20188695  1  0.08791  -0.003976  0.90239  -0.005  0.107436  -0.002904  0.955083  -0.003  0.108448  -0.002043  0.95416  -0.003  0.112599  0.106284  -0.003468  0.956139  -0.004
H  H39  1  0.67128428  0.60154410  0.79797810  1  0.08923  0.004325  0.902222  0.005  0.108107  0.00311  0.954771  0.003  0.109101  0.002218  0.953862  0.003  0.112918  0.106999  0.003677  0.95579  0.004
H  H40  1  0.12711805  0.44750914  0.12745450  1  0.076389  -0.000165  0.937813  0.0  0.08883  -0.000101  0.997148  0.0  0.090171  -2.1e-05  0.99684  0.0  0.115647  0.087525  -0.000193  0.997735  0.0
H  H41  1  0.87368727  0.31947688  0.87217504  1  0.075853  -0.000172  0.937923  0.0  0.088534  -0.000212  0.997215  0.0  0.089896  -0.000134  0.996876  0.0  0.115614  0.087266  -0.000318  0.997786  0.0
H  H42  1  0.31748482  0.59806535  0.06447363  1  0.103718  0.000126  0.933537  0.0  0.126122  -5.3e-05  0.990011  0.0  0.127356  -1e-05  0.989923  0.0  0.090037  0.12523  -9.5e-05  0.99008  0.0
H  H43  1  0.68371561  0.53283522  0.93534685  1  0.104527  -0.000132  0.932721  0.0  0.126876  4.8e-05  0.989035  0.0  0.128129  1.1e-05  0.988949  0.0  0.090424  0.125991  8.8e-05  0.989069  0.0
H  H44  1  0.33761853  0.39002244  0.02450995  1  0.117559  -0.001368  0.962239  -0.002  0.138019  -0.001114  1.026105  -0.002  0.138815  -0.000741  1.027036  -0.001  0.096708  0.137071  -0.001395  1.025813  -0.002
H  H45  1  0.66347116  0.36469982  0.97528034  1  0.118637  0.001518  0.963053  0.002  0.138843  0.001211  1.026846  0.002  0.139718  0.000818  1.027708  0.001  0.097114  0.13789  0.0015  1.026542  0.002
H  H46  1  0.51384758  0.49812364  0.09225922  1  0.114089  0.000216  0.966071  0.0  0.134332  6.7e-05  1.027872  0.0  0.136154  5.2e-05  1.027359  0.0  0.090099  0.132892  6.7e-05  1.028323  0.0
H  H47  1  0.48715596  0.40526123  0.90760940  1  0.113455  -0.000133  0.967289  0.0  0.133956  -5.2e-05  1.028715  0.0  0.135726  -3.5e-05  1.028307  0.0  0.089856  0.132578  -6.7e-05  1.029051  0.0
C  C48  1  0.63074470  0.07314821  0.40388059  1  0.129111  0.007344  3.705547  0.008  0.101407  0.001033  3.959778  0.002  0.109797  0.00204  3.981934  0.003  0.043815  0.096193  0.000238  3.945432  0.002
C  C49  1  0.36872684  0.66972442  0.59646556  1  0.127369  0.007656  3.709623  0.008  0.099897  0.001446  3.963193  0.003  0.108263  0.002385  3.985408  0.004  0.042956  0.094689  0.000711  3.948756  0.002
C  C50  1  0.65126627  0.92929391  0.42614214  1  -0.119829  -0.009336  3.717332  -0.01  -0.134041  -0.004394  3.967086  -0.005  -0.143452  -0.003933  3.990214  -0.005  -0.086441  -0.127906  -0.004727  3.951499  -0.005
C  C51  1  0.34788311  0.50363624  0.57421696  1  -0.119482  -0.009427  3.719651  -0.01  -0.133479  -0.004529  3.969453  -0.005  -0.142872  -0.004065  3.992609  -0.005  -0.085512  -0.127358  -0.004844  3.953908  -0.005
C  C52  1  0.71308426  0.79753830  0.37469079  1  0.017666  0.008217  3.692519  0.007  -0.001111  0.002669  3.940647  0.002  0.004774  0.002971  3.957388  0.003  -0.065536  -0.004819  0.002419  3.929263  0.002
C  C53  1  0.28597613  0.42340790  0.62568204  1  0.017487  0.008547  3.69423  0.007  -0.00161  0.002907  3.942227  0.003  0.00438  0.003154  3.958953  0.003  -0.066566  -0.005407  0.002696  3.930904  0.002
C  C54  1  0.75498207  0.81488651  0.30340716  1  -0.161488  -0.006383  3.694373  -0.006  -0.178755  -0.002596  3.940345  -0.002  -0.186241  -0.002569  3.958095  -0.003  -0.089174  -0.173737  -0.002641  3.928317  -0.002
C  C55  1  0.24433223  0.51217520  0.69697183  1  -0.161669  -0.006665  3.693933  -0.006  -0.178618  -0.002782  3.939786  -0.003  -0.186099  -0.002766  3.957449  -0.003  -0.088867  -0.17368  -0.002793  3.927838  -0.003
C  C56  1  0.73621263  0.96360948  0.28573599  1  0.227788  0.002751  3.716491  0.002  0.23266  -0.001539  3.963066  -0.002  0.24306  -9.5e-05  3.983427  0.0  0.115445  0.225982  -0.002582  3.949465  -0.003
C  C57  1  0.26335807  0.67856173  0.71459783  1  0.227646  0.00295  3.713018  0.002  0.231703  -0.001283  3.960725  -0.001  0.242247  9.8e-05  3.98083  0.0  0.114157  0.224921  -0.002277  3.947231  -0.002
C  C58  1  0.79465773  0.99459957  0.21293031  1  -0.037138  0.001576  3.645557  0.005  -0.101855  -0.00148  3.906366  0.002  -0.097539  -0.000473  3.917311  0.002  -0.055686  -0.104259  -0.002339  3.899237  0.001
C  C59  1  0.20502315  0.78246429  0.78736166  1  -0.033711  0.00157  3.641313  0.005  -0.09854  -0.001461  3.90341  0.002  -0.094291  -0.000458  3.91439  0.002  -0.054978  -0.100814  -0.002313  3.896215  0.001
C  C60  1  0.83100086  0.23577964  0.16088797  1  0.037187  0.003867  3.640532  0.006  0.025448  0.000737  3.882328  0.003  0.026034  0.001221  3.899075  0.004  -0.00896  0.025022  0.000251  3.871933  0.003
C  C61  1  0.16904969  0.07560222  0.83925251  1  0.034138  0.003388  3.645095  0.006  0.024092  0.000335  3.885509  0.003  0.024585  0.000836  3.902435  0.003  -0.009154  0.023686  -0.000133  3.87508  0.003
C  C62  1  0.77777107  0.41243312  0.18234385  1  0.620638  0.0031  3.83481  0.004  0.573226  -0.000944  4.151236  -0.001  0.607102  -0.000589  4.146953  0.0  0.204721  0.549679  -0.001343  4.15368  -0.001
C  C63  1  0.22226522  0.23070232  0.81770668  1  0.621655  0.002658  3.835715  0.004  0.573264  -0.001409  4.152806  -0.001  0.607216  -0.001025  4.148512  -0.001  0.205736  0.549721  -0.001787  4.155233  -0.001
C  C64  1  0.82827196  0.16773870  0.07419567  1  -0.322637  -0.004942  3.674512  -0.005  -0.406102  -0.003459  3.916477  -0.003  -0.40856  -0.002352  3.925745  -0.002  -0.24454  -0.403922  -0.004253  3.909936  -0.004
C  C65  1  0.17189417  0.09473831  0.92599104  1  -0.321035  -0.00481  3.672927  -0.005  -0.404594  -0.003374  3.914736  -0.003  -0.407036  -0.002289  3.923954  -0.002  -0.244463  -0.402442  -0.004149  3.908287  -0.004
C  C66  1  0.15115000  0.74523399  0.42210080  1  0.1344  0.008244  3.700063  0.009  0.107405  0.001492  3.952932  0.003  0.116085  0.00251  3.97387  0.004  0.047009  0.101872  0.000711  3.939637  0.002
C  C67  1  0.84893404  0.32276730  0.57766816  1  0.133561  -0.007564  3.699765  -0.009  0.106014  -0.001562  3.952178  -0.003  0.114741  -0.00238  3.973136  -0.004  0.046949  0.10046  -0.000941  3.938821  -0.002
C  C68  1  0.14376444  0.90790834  0.45660717  1  -0.120391  -0.008917  3.728585  -0.009  -0.133524  -0.003741  3.976157  -0.004  -0.14193  -0.003526  3.99799  -0.004  -0.086268  -0.128174  -0.00386  3.961842  -0.004
C  C69  1  0.85599866  0.45093792  0.54314528  1  -0.118452  0.009565  3.726485  0.009  -0.130745  0.003939  3.974174  0.004  -0.139095  0.003779  3.995973  0.004  -0.085559  -0.125453  0.003992  3.959841  0.004
C  C70  1  0.17298247  0.01809675  0.41316691  1  0.022907  0.00915  3.692973  0.008  0.004125  0.003045  3.939139  0.003  0.009761  0.003362  3.955735  0.003  -0.062347  0.000371  0.002779  3.928133  0.003
C  C71  1  0.82641945  0.60443996  0.58657671  1  0.019827  -0.008167  3.695167  -0.008  0.000404  -0.002745  3.941663  -0.003  0.00602  -0.00298  3.958293  -0.003  -0.063781  -0.003312  -0.002556  3.930599  -0.002
C  C72  1  0.20847096  0.96291403  0.33683451  1  -0.164772  -0.007466  3.702956  -0.007  -0.183449  -0.003087  3.951505  -0.003  -0.19136  -0.003019  3.971094  -0.003  -0.084577  -0.178331  -0.003139  3.938473  -0.003
C  C73  1  0.79106619  0.62556917  0.66292218  1  -0.162131  0.007682  3.69626  0.007  -0.180292  0.003119  3.945167  0.003  -0.188197  0.003136  3.964806  0.003  -0.083519  -0.175191  0.003083  3.932084  0.003
C  C74  1  0.21383215  0.79810171  0.30593437  1  0.226815  0.003983  3.707547  0.004  0.231455  -0.000885  3.957714  -0.001  0.241907  0.000483  3.978414  0.001  0.117029  0.224815  -0.001872  3.943776  -0.002
C  C75  1  0.78626294  0.49166224  0.69385309  1  0.227045  -0.002821  3.705147  -0.003  0.230816  0.001455  3.954961  0.001  0.241247  0.000113  3.975729  -0.001  0.1163  0.224201  0.002384  3.940964  0.002
C  C76  1  0.24314442  0.72442595  0.22329211  1  -0.037405  0.000948  3.641189  0.004  -0.104565  -0.0018  3.907062  0.001  -0.100382  -0.000798  3.917481  0.002  -0.057017  -0.106854  -0.002619  3.900682  0.001
C  C77  1  0.75728744  0.50055786  0.77650045  1  -0.041105  -0.000401  3.643964  -0.004  -0.10584  0.002117  3.907069  -0.001  -0.101691  0.001137  3.917464  -0.002  -0.056827  -0.108081  0.00288  3.900535  -0.001
C  C78  1  0.27488347  0.44642601  0.14186324  1  0.042658  0.002873  3.620871  0.005  0.030725  0.000143  3.864276  0.002  0.031259  0.000731  3.879301  0.003  -0.006679  0.030676  -0.000376  3.854527  0.002
C  C79  1  0.72590477  0.30386244  0.85786364  1  0.044809  -0.002868  3.618816  -0.006  0.03204  -0.000247  3.863393  -0.003  0.032589  -0.000607  3.878396  -0.003  -0.00699  0.03177  -4.6e-05  3.853979  -0.003
C  C80  1  0.31518524  0.28000409  0.15747669  1  0.619413  0.004911  3.833998  0.006  0.574612  0.000201  4.148725  0.001  0.609547  0.000227  4.144094  0.001  0.200535  0.550776  8.2e-05  4.150994  0.001
C  C81  1  0.68548622  0.12183270  0.84226243  1  0.619773  -0.003359  3.83463  -0.005  0.574693  0.00071  4.150541  -0.001  0.609581  0.000632  4.145945  0.0  0.201435  0.5509  0.000762  4.15269  -0.001
C  C82  1  0.36715510  0.48570856  0.07728049  1  -0.320632  -0.004693  3.684827  -0.004  -0.401969  -0.00369  3.922104  -0.004  -0.403823  -0.002665  3.931411  -0.003  -0.246796  -0.400335  -0.004353  3.915811  -0.004
C  C83  1  0.63386615  0.40768026  0.92253119  1  -0.322727  0.005219  3.687315  0.005  -0.403849  0.003964  3.924592  0.004  -0.405798  0.0029  3.933894  0.003  -0.247042  -0.402091  0.004617  3.918165  0.004
N  N84  1  0.67295386  0.08990160  0.33528078  1  -0.342464  -0.077541  3.353777  -0.096  -0.292688  -0.056508  3.63962  -0.073  -0.324954  -0.048158  3.661453  -0.066  -0.356681  -0.274107  -0.060727  3.627406  -0.076
N  N85  1  0.32671500  0.75523288  0.66504067  1  -0.340997  -0.074969  3.352746  -0.094  -0.290829  -0.054542  3.638292  -0.072  -0.323135  -0.046673  3.660167  -0.065  -0.355362  -0.272014  -0.058318  3.62599  -0.074
N  N86  1  0.71684369  0.14201728  0.19717575  1  -0.370252  -0.119172  3.275362  -0.147  -0.327977  -0.083583  3.547041  -0.109  -0.361157  -0.06849  3.564662  -0.095  -0.489838  -0.309174  -0.090779  3.537719  -0.113
N  N87  1  0.28315618  0.94552768  0.80306108  1  -0.37158  -0.119624  3.277126  -0.147  -0.330577  -0.083907  3.549568  -0.109  -0.363915  -0.068795  3.567587  -0.095  -0.489464  -0.311728  -0.091021  3.540211  -0.113
N  N88  1  0.18578675  0.69229210  0.34866141  1  -0.338159  -0.079184  3.35812  -0.098  -0.289795  -0.058308  3.643329  -0.076  -0.322271  -0.049845  3.66619  -0.069  -0.354527  -0.271144  -0.062172  3.630607  -0.078
N  N89  1  0.81448359  0.34319984  0.65114127  1  -0.338818  0.085335  3.358572  0.098  -0.289524  0.06173  3.643258  0.076  -0.322023  0.053773  3.666193  0.069  -0.354462  -0.270852  0.0649  3.630511  0.078
N  N90  1  0.31716812  0.56386685  0.21728677  1  -0.377614  -0.112299  3.274238  -0.138  -0.337216  -0.080403  3.553866  -0.105  -0.369772  -0.066264  3.57115  -0.092  -0.489401  -0.319062  -0.086476  3.544817  -0.108
N  N91  1  0.68330233  0.34594218  0.78248512  1  -0.376637  0.122265  3.27109  0.139  -0.336335  0.085932  3.550473  0.105  -0.368702  0.072139  3.567359  0.092  -0.489728  -0.318257  0.091241  3.541769  0.108
Cl  Cl92  1  0.51449364  0.44333055  0.39093390  1  -0.540873  -0.079183  1.070226  -0.092  -0.527811  -0.053165  1.377375  -0.064  -0.553797  -0.041795  1.346016  -0.053  -0.289057  -0.510764  -0.060678  1.399631  -0.07
Cl  Cl93  1  0.48496435  0.05294364  0.60897939  1  -0.541072  -0.080826  1.06994  -0.091  -0.527745  -0.053924  1.376736  -0.062  -0.55349  -0.043492  1.345572  -0.052  -0.289054  -0.510918  -0.060186  1.399042  -0.067
Cl  Cl94  1  0.01970686  0.35393466  0.35667634  1  -0.556373  -0.078946  1.022373  -0.093  -0.548731  -0.050532  1.325944  -0.062  -0.573892  -0.039164  1.29492  -0.05  -0.302575  -0.532301  -0.058106  1.348311  -0.069
Cl  Cl95  1  0.97979682  0.99655581  0.64282454  1  -0.556032  0.088963  1.021898  0.093  -0.548311  0.056707  1.325439  0.062  -0.573333  0.046121  1.294603  0.051  -0.302548  -0.531933  0.062839  1.347716  0.068
O  O96  1  0.67396756  0.45149260  0.23716229  1  -0.612179  -0.079855  2.118455  -0.106  -0.570429  -0.055124  2.396502  -0.079  -0.614991  -0.043427  2.392682  -0.066  -0.332166  -0.54126  -0.062084  2.399595  -0.086
O  O97  1  0.32609575  0.21486579  0.76287063  1  -0.611286  -0.080758  2.118076  -0.106  -0.56956  -0.05586  2.397446  -0.079  -0.61395  -0.044197  2.393364  -0.066  -0.331701  -0.540315  -0.062656  2.400586  -0.086
O  O98  1  0.83628047  0.51109766  0.14967859  1  -0.576328  -0.026705  1.884454  -0.034  -0.546938  -0.01427  2.108977  -0.019  -0.572221  -0.007439  2.100975  -0.011  -0.315718  -0.526949  -0.021854  2.113011  -0.028
O  O99  1  0.16372495  0.36199071  0.85032226  1  -0.576532  -0.026749  1.888168  -0.033  -0.546873  -0.014635  2.113034  -0.02  -0.57215  -0.007826  2.105075  -0.011  -0.3164  -0.52696  -0.022119  2.117025  -0.028
O  O100  1  0.27492952  0.26114398  0.22361349  1  -0.621342  -0.086716  2.064199  -0.115  -0.603016  -0.058612  2.365951  -0.084  -0.647823  -0.045538  2.356051  -0.07  -0.344647  -0.574604  -0.065993  2.373634  -0.091
O  O101  1  0.72536278  0.03683476  0.77605840  1  -0.621296  0.095519  2.065889  0.115  -0.602716  0.064145  2.367768  0.085  -0.647482  0.051311  2.357845  0.07  -0.344383  -0.574202  0.070875  2.375466  0.092
O  O102  1  0.37946862  0.17193503  0.10928677  1  -0.562128  -0.022831  1.899295  -0.029  -0.523466  -0.012061  2.111411  -0.016  -0.548039  -0.00598  2.103836  -0.009  -0.311287  -0.504496  -0.018622  2.115086  -0.024
O  O103  1  0.62143218  0.06204670  0.89056421  1  -0.562816  0.025006  1.899171  0.029  -0.524246  0.013139  2.111626  0.017  -0.548851  0.006842  2.104104  0.009  -0.312009  -0.505136  0.019783  2.115182  0.024
