# generated using pymatgen
data_AlH9C14N2O7
_symmetry_space_group_name_H-M   'P 1'
_cell_length_a   6.78415063
_cell_length_b   17.01354682
_cell_length_c   17.01356865
_cell_angle_alpha   86.48886872
_cell_angle_beta   81.74236299
_cell_angle_gamma   81.74247339
_symmetry_Int_Tables_number   1
_chemical_formula_structural   AlH9C14N2O7
_chemical_formula_sum   'Al2 H18 C28 N4 O14'
_cell_volume   1921.58587211
_cell_formula_units_Z   2
loop_
 _symmetry_equiv_pos_site_id
 _symmetry_equiv_pos_as_xyz
  1  'x, y, z'
loop_
 _atom_site_type_symbol
 _atom_site_label
 _atom_site_symmetry_multiplicity
 _atom_site_fract_x
 _atom_site_fract_y
 _atom_site_fract_z
 _atom_site_occupancy
 _atom_site_pbe_bader_charge
 _atom_site_pbe_bader_spin_density
 _atom_site_pbe_cm5_charge
 _atom_site_pbe_ddec_charge
 _atom_site_pbe_ddec_spin_density
 _atom_site_pbe_ddec_sum_bond_order
 _atom_site_pbe_magmom
Al  Al0  1  0.49999383  0.49999985  0.49999936  1  2.509233  0  0.407918  1.649966  0  2.563496  0
Al  Al1  1  0.99999265  0.49999931  0.50000030  1  2.509238  0  0.407958  1.65003  0  2.563319  0
H  H2  1  0.74999896  0.42330313  0.57669559  1  0.613239  0  0.35564  0.432926  0  0.849107  0
H  H3  1  0.25000162  0.57669358  0.42330492  1  0.613282  0  0.355597  0.432908  0  0.849238  0
H  H4  1  0.34763342  0.74091710  0.50176078  1  0.149148  0  0.104803  0.113791  0  1.047169  0
H  H5  1  0.29013872  0.88898873  0.49915419  1  0.090733  0  0.102876  0.10546  0  1.040643  0
H  H6  1  0.92431312  0.89191883  0.49862727  1  0.113114  0  0.117035  0.139422  0  0.993579  0
H  H7  1  0.07569154  0.10807910  0.50137001  1  0.113148  0  0.11705  0.139401  0  0.993628  0
H  H8  1  0.70986236  0.11101100  0.50084203  1  0.090732  0  0.102899  0.105486  0  1.040585  0
H  H9  1  0.65236359  0.25908142  0.49823748  1  0.149487  0  0.104807  0.113798  0  1.047248  0
H  H10  1  0.84763531  0.50176098  0.74091801  1  0.149165  0  0.104812  0.1138  0  1.047192  0
H  H11  1  0.79013912  0.49915513  0.88898858  1  0.09074  0  0.102887  0.105482  0  1.040624  0
H  H12  1  0.42430905  0.49862987  0.89191826  1  0.11315  0  0.117053  0.13943  0  0.993595  0
H  H13  1  0.57569181  0.50137043  0.10808030  1  0.113111  0  0.11705  0.139412  0  0.993613  0
H  H14  1  0.20986146  0.50084159  0.11101134  1  0.090742  0  0.102883  0.105454  0  1.040594  0
H  H15  1  0.15236296  0.49823812  0.25908133  1  0.149176  0  0.10481  0.113768  0  1.047289  0
H  H16  1  0.01275243  0.68027967  0.50458932  1  0.627717  0  0.314157  0.351554  0  0.974236  0
H  H17  1  0.98724964  0.31971705  0.49541052  1  0.627759  0  0.314108  0.351328  0  0.974586  0
H  H18  1  0.51275215  0.50458940  0.68028065  1  0.627722  0  0.314152  0.351547  0  0.974262  0
H  H19  1  0.48725040  0.49541031  0.31971783  1  0.627745  0  0.314132  0.351448  0  0.974413  0
C  C20  1  0.19531945  0.50293579  0.64468121  1  1.508811  0  0.264173  0.65523  0  4.066665  0
C  C21  1  0.30468221  0.35531747  0.49706257  1  1.50882  0  0.264141  0.65509  0  4.06676  0
C  C22  1  0.80468182  0.49706333  0.35531679  1  1.508832  0  0.264168  0.655165  0  4.066849  0
C  C23  1  0.69531649  0.64468045  0.50293622  1  1.508835  0  0.264229  0.655267  0  4.066609  0
C  C24  1  0.66744434  0.73190972  0.50203610  1  -0.04949  0  -0.034484  -0.202665  0  3.976464  0
C  C25  1  0.47296250  0.77427180  0.50112324  1  -0.108703  0  -0.08107  -0.048381  0  3.994799  0
C  C26  1  0.43973978  0.85615174  0.49967140  1  0.093488  0  -0.0925  -0.168494  0  3.967397  0
C  C27  1  0.60453178  0.89840330  0.49906017  1  0.309927  0  0.094842  0.199844  0  4.050687  0
C  C28  1  0.79902510  0.85826477  0.49925754  1  0.08916  0  -0.088948  -0.25958  0  3.881392  0
C  C29  1  0.83264229  0.77501646  0.50098360  1  0.45471  0  0.09763  0.326709  0  4.04379  0
C  C30  1  0.20097321  0.14173437  0.50073886  1  0.089013  0  -0.08901  -0.259618  0  3.881546  0
C  C31  1  0.39546486  0.10159645  0.50093453  1  0.310165  0  0.094877  0.199869  0  4.050681  0
C  C32  1  0.56026021  0.14384679  0.50032553  1  0.093197  0  -0.092478  -0.168472  0  3.967239  0
C  C33  1  0.52703918  0.22572613  0.49887480  1  -0.109008  0  -0.081141  -0.048467  0  3.994964  0
C  C34  1  0.33255585  0.26808820  0.49796202  1  -0.049558  0  -0.034504  -0.202664  0  3.976415  0
C  C35  1  0.16735662  0.22498088  0.49901403  1  0.45482  0  0.097691  0.326787  0  4.043851  0
C  C36  1  0.16744490  0.50203647  0.73190985  1  -0.049607  0  -0.034498  -0.202722  0  3.976482  0
C  C37  1  0.97296305  0.50112312  0.77427204  1  -0.108714  0  -0.081073  -0.04837  0  3.994802  0
C  C38  1  0.93974033  0.49967119  0.85615171  1  0.093448  0  -0.092493  -0.168493  0  3.967317  0
C  C39  1  0.10453276  0.49906259  0.89840282  1  0.309957  0  0.094826  0.199851  0  4.050678  0
C  C40  1  0.29902594  0.49925902  0.85826478  1  0.088973  0  -0.088975  -0.259616  0  3.881436  0
C  C41  1  0.33264147  0.50098493  0.77501667  1  0.454937  0  0.097639  0.326745  0  4.043766  0
C  C42  1  0.70097275  0.50073890  0.14173460  1  0.089052  0  -0.089023  -0.259649  0  3.881612  0
C  C43  1  0.89546423  0.50093591  0.10159721  1  0.310143  0  0.094864  0.199845  0  4.050772  0
C  C44  1  0.06026005  0.50032613  0.14384760  1  0.093235  0  -0.092459  -0.168426  0  3.967222  0
C  C45  1  0.02704010  0.49887479  0.22572709  1  -0.108706  0  -0.081159  -0.048444  0  3.995018  0
C  C46  1  0.83255616  0.49796323  0.26808872  1  -0.049623  0  -0.034462  -0.20264  0  3.976427  0
C  C47  1  0.66735851  0.49901359  0.22498202  1  0.454853  0  0.097675  0.326773  0  4.043797  0
N  N48  1  0.58910849  0.98226553  0.49846996  1  -0.482526  0  -0.141189  -0.125242  0  3.252551  0
N  N49  1  0.41089219  0.01773539  0.50152563  1  -0.435072  0  -0.14114  -0.125155  0  3.252571  0
N  N50  1  0.08910773  0.49847363  0.98226470  1  -0.435068  0  -0.141169  -0.125229  0  3.252613  0
N  N51  1  0.91089311  0.50152666  0.01773503  1  -0.482493  0  -0.141152  -0.125181  0  3.252646  0
O  O52  1  0.37752782  0.50406124  0.60866655  1  -1.263404  0  -0.240387  -0.616679  0  2.389704  0
O  O53  1  0.12247507  0.39133354  0.49593746  1  -1.26336  0  -0.240393  -0.616599  0  2.38975  0
O  O54  1  0.95560748  0.49830414  0.39154541  1  -1.267071  0  -0.23403  -0.585512  0  2.342521  0
O  O55  1  0.54438980  0.60845207  0.50169292  1  -1.267163  0  -0.234036  -0.585556  0  2.342362  0
O  O56  1  0.62247512  0.49593726  0.39133316  1  -1.263408  0  -0.240385  -0.616638  0  2.389729  0
O  O57  1  0.87752490  0.60866496  0.50406182  1  -1.26338  0  -0.240444  -0.6168  0  2.389822  0
O  O58  1  0.04439379  0.50169497  0.60845259  1  -1.267095  0  -0.234038  -0.585583  0  2.342467  0
O  O59  1  0.45560871  0.39154646  0.49830409  1  -1.2671  0  -0.234008  -0.585488  0  2.342447  0
O  O60  1  0.74999747  0.46488346  0.53511884  1  -1.418409  0  -0.447781  -0.991518  0  2.164613  0
O  O61  1  0.24999908  0.53511620  0.46488350  1  -1.418434  0  -0.447743  -0.991527  0  2.164806  0
O  O62  1  0.02283115  0.73859936  0.50157663  1  -1.14132  0  -0.34083  -0.431112  0  2.3017  0
O  O63  1  0.97716775  0.26139797  0.49842217  1  -1.141361  0  -0.340764  -0.430927  0  2.302083  0
O  O64  1  0.52283259  0.50157679  0.73859928  1  -1.141338  0  -0.340818  -0.431115  0  2.301705  0
O  O65  1  0.47716930  0.49842054  0.26139878  1  -1.141351  0  -0.340799  -0.431028  0  2.3019  0
