# generated using pymatgen
data_AgH4C6SN2
_symmetry_space_group_name_H-M   'P 1'
_cell_length_a   6.16482136
_cell_length_b   9.40051420
_cell_length_c   12.12143390
_cell_angle_alpha   100.25095254
_cell_angle_beta   90.01579145
_cell_angle_gamma   109.16091333
_symmetry_Int_Tables_number   1
_chemical_formula_structural   AgH4C6SN2
_chemical_formula_sum   'Ag4 H16 C24 S4 N8'
_cell_volume   651.65649306
_cell_formula_units_Z   4
loop_
 _symmetry_equiv_pos_site_id
 _symmetry_equiv_pos_as_xyz
  1  'x, y, z'
loop_
 _atom_site_type_symbol
 _atom_site_label
 _atom_site_symmetry_multiplicity
 _atom_site_fract_x
 _atom_site_fract_y
 _atom_site_fract_z
 _atom_site_occupancy
 _atom_site_hle17_bader_spin_density
 _atom_site_hle17_ddec_charge
 _atom_site_hle17_ddec_spin_density
 _atom_site_hle17_ddec_sum_bond_order
 _atom_site_hle17_magmom
 _atom_site_hse06_10hf_bader_spin_density
 _atom_site_hse06_10hf_ddec_charge
 _atom_site_hse06_10hf_ddec_spin_density
 _atom_site_hse06_10hf_ddec_sum_bond_order
 _atom_site_hse06_10hf_magmom
 _atom_site_hse06_bader_spin_density
 _atom_site_hse06_ddec_charge
 _atom_site_hse06_ddec_spin_density
 _atom_site_hse06_ddec_sum_bond_order
 _atom_site_hse06_magmom
 _atom_site_pbe_bader_spin_density
 _atom_site_pbe_cm5_charge
 _atom_site_pbe_ddec_charge
 _atom_site_pbe_ddec_spin_density
 _atom_site_pbe_ddec_sum_bond_order
 _atom_site_pbe_magmom
Ag  Ag0  1  0.74128050  0.58729545  0.06044819  1  0  0.443062  0  1.72492  0  0  0.317826  0  2.208749  0  0  0.339872  0  2.167696  0  0  0.421413  0.302551  0  2.237302  0
Ag  Ag1  1  0.15395169  0.41277624  0.43954257  1  0  0.442255  0  1.724862  0  0  0.31717  0  2.208329  0  0  0.339202  0  2.167341  0  0  0.421476  0.30284  0  2.236969  0
Ag  Ag2  1  0.25869517  0.41270248  0.93955140  1  0  0.443117  0  1.724876  0  0  0.317861  0  2.208707  0  0  0.339878  0  2.167714  0  0  0.421395  0.302595  0  2.237256  0
Ag  Ag3  1  0.84607333  0.58722631  0.56045927  1  0  0.442298  0  1.724689  0  0  0.317175  0  2.208153  0  0  0.339214  0  2.167162  0  0  0.421423  0.302843  0  2.236794  0
H  H4  1  0.11000996  0.69804677  0.90127397  1  0  0.07759  0  0.969353  0  0  0.087336  0  1.034712  0  0  0.088973  0  1.033588  0  0  0.106226  0.086098  0  1.035619  0
H  H5  1  0.41201241  0.30185753  0.59862499  1  0  0.078359  0  0.969838  0  0  0.088369  0  1.034533  0  0  0.090065  0  1.033292  0  0  0.106809  0.086951  0  1.035714  0
H  H6  1  0.88998636  0.30195353  0.09873006  1  0  0.077786  0  0.969354  0  0  0.087481  0  1.034734  0  0  0.089114  0  1.033616  0  0  0.106284  0.086242  0  1.035643  0
H  H7  1  0.58799067  0.69813358  0.40137702  1  0  0.078377  0  0.969822  0  0  0.088368  0  1.034516  0  0  0.090064  0  1.033277  0  0  0.106846  0.086948  0  1.035705  0
H  H8  1  0.20588213  0.86066071  0.75649373  1  0  0.099246  0  0.977473  0  0  0.106338  0  1.04819  0  0  0.109151  0  1.047538  0  0  0.097192  0.10413  0  1.04905  0
H  H9  1  0.34535597  0.13944126  0.74349546  1  0  0.099325  0  0.977345  0  0  0.1059  0  1.04854  0  0  0.108802  0  1.047784  0  0  0.097123  0.103628  0  1.049637  0
H  H10  1  0.79412631  0.13934761  0.24351050  1  0  0.099241  0  0.977566  0  0  0.10634  0  1.048268  0  0  0.109148  0  1.047616  0  0  0.09718  0.104129  0  1.049126  0
H  H11  1  0.65466107  0.86056479  0.25651013  1  0  0.099341  0  0.97728  0  0  0.105935  0  1.048453  0  0  0.108833  0  1.047706  0  0  0.097148  0.103664  0  1.049553  0
H  H12  1  0.63131848  0.01212390  0.85316633  1  0  0.096207  0  0.975546  0  0  0.106175  0  1.04192  0  0  0.108565  0  1.042198  0  0  0.09647  0.10321  0  1.04384  0
H  H13  1  0.61906379  0.98800679  0.64693223  1  0  0.096172  0  0.976824  0  0  0.105649  0  1.04383  0  0  0.108233  0  1.043882  0  0  0.096703  0.103637  0  1.044414  0
H  H14  1  0.36867092  0.98788202  0.14683182  1  0  0.096268  0  0.975648  0  0  0.106214  0  1.042034  0  0  0.108604  0  1.042312  0  0  0.096452  0.103245  0  1.04396  0
H  H15  1  0.38094188  0.01199923  0.35307171  1  0  0.096107  0  0.976832  0  0  0.105587  0  1.043842  0  0  0.108176  0  1.043887  0  0  0.096701  0.103576  0  1.044426  0
H  H16  1  0.55776801  0.84141681  0.99543915  1  0  0.069722  0  0.964816  0  0  0.081919  0  1.028885  0  0  0.083776  0  1.027177  0  0  0.102974  0.080294  0  1.030487  0
H  H17  1  0.71625290  0.15857065  0.50452367  1  0  0.069648  0  0.964608  0  0  0.08179  0  1.028875  0  0  0.083606  0  1.027279  0  0  0.102678  0.080382  0  1.03025  0
H  H18  1  0.44221640  0.15858564  0.00455690  1  0  0.069668  0  0.964919  0  0  0.081838  0  1.029029  0  0  0.083696  0  1.02732  0  0  0.102935  0.080218  0  1.030636  0
H  H19  1  0.28376827  0.84143069  0.49547389  1  0  0.069678  0  0.964531  0  0  0.081801  0  1.028806  0  0  0.083618  0  1.027211  0  0  0.102694  0.080399  0  1.030178  0
C  C20  1  0.00971207  0.77127053  0.88989407  1  0  0.139103  0  3.685697  0  0  0.109539  0  3.925963  0  0  0.116139  0  3.946254  0  0  0.043214  0.103673  0  3.913943  0
C  C21  1  0.23850954  0.22879823  0.61007703  1  0  0.137527  0  3.685363  0  0  0.107844  0  3.926034  0  0  0.114568  0  3.946152  0  0  0.042492  0.102906  0  3.912158  0
C  C22  1  0.99027510  0.22873095  0.11011175  1  0  0.138929  0  3.685782  0  0  0.109382  0  3.92602  0  0  0.115985  0  3.946309  0  0  0.043167  0.103512  0  3.914005  0
C  C23  1  0.76150234  0.77119751  0.38992805  1  0  0.137626  0  3.68524  0  0  0.107969  0  3.925908  0  0  0.11469  0  3.946024  0  0  0.04245  0.10303  0  3.912047  0
C  C24  1  0.06337363  0.86339667  0.80912856  1  0  -0.157273  0  3.696434  0  0  -0.172183  0  3.943482  0  0  -0.17928  0  3.96274  0  0  -0.08436  -0.168776  0  3.933432  0
C  C25  1  0.20011332  0.13670712  0.69083078  1  0  -0.158352  0  3.69852  0  0  -0.174216  0  3.947041  0  0  -0.181288  0  3.966042  0  0  -0.084338  -0.168178  0  3.932968  0
C  C26  1  0.93662014  0.13660825  0.19087854  1  0  -0.157242  0  3.696232  0  0  -0.172159  0  3.943315  0  0  -0.179247  0  3.96256  0  0  -0.084414  -0.168745  0  3.933258  0
C  C27  1  0.79990306  0.86329437  0.30917588  1  0  -0.158491  0  3.69844  0  0  -0.17438  0  3.947054  0  0  -0.181453  0  3.966061  0  0  -0.084377  -0.168343  0  3.932991  0
C  C28  1  0.92595603  0.95154372  0.79294117  1  0  0.099834  0  3.760672  0  0  0.109714  0  3.993389  0  0  0.114401  0  4.01286  0  0  0.011556  0.105323  0  3.981077  0
C  C29  1  0.97448176  0.04865059  0.70708150  1  0  0.098581  0  3.759369  0  0  0.109371  0  3.991119  0  0  0.114192  0  4.010626  0  0  0.011925  0.105742  0  3.978636  0
C  C30  1  0.07402738  0.04844050  0.20705912  1  0  0.099854  0  3.760252  0  0  0.10972  0  3.993029  0  0  0.114407  0  4.012503  0  0  0.011646  0.105324  0  3.980721  0
C  C31  1  0.02552892  0.95134274  0.29291585  1  0  0.098497  0  3.759509  0  0  0.109255  0  3.991341  0  0  0.114076  0  4.010855  0  0  0.011853  0.105632  0  3.978856  0
C  C32  1  0.73947680  0.94258760  0.86066647  1  0  -0.147129  0  3.704599  0  0  -0.165537  0  3.951239  0  0  -0.173281  0  3.973357  0  0  -0.082494  -0.15942  0  3.935941  0
C  C33  1  0.79675442  0.05744191  0.63928397  1  0  -0.145853  0  3.701918  0  0  -0.163689  0  3.947098  0  0  -0.171642  0  3.969179  0  0  -0.082099  -0.159304  0  3.93417  0
C  C34  1  0.26052210  0.05741139  0.13932749  1  0  -0.147222  0  3.704539  0  0  -0.165599  0  3.951177  0  0  -0.173346  0  3.973294  0  0  -0.082504  -0.159482  0  3.93588  0
C  C35  1  0.20325746  0.94255706  0.36070916  1  0  -0.145668  0  3.701816  0  0  -0.163514  0  3.947041  0  0  -0.171473  0  3.969122  0  0  -0.082092  -0.159128  0  3.934111  0
C  C36  1  0.69977093  0.84952621  0.94060571  1  0  0.130654  0  3.704465  0  0  0.099609  0  3.95055  0  0  0.106619  0  3.969901  0  0  0.039645  0.095635  0  3.936825  0
C  C37  1  0.85018121  0.15056393  0.55936999  1  0  0.131141  0  3.704621  0  0  0.100466  0  3.950362  0  0  0.107509  0  3.969809  0  0  0.039821  0.095474  0  3.937508  0
C  C38  1  0.30022935  0.15046580  0.05938156  1  0  0.130835  0  3.704407  0  0  0.099768  0  3.950464  0  0  0.106779  0  3.96981  0  0  0.039697  0.095787  0  3.936749  0
C  C39  1  0.14982256  0.84943506  0.44062397  1  0  0.13115  0  3.704753  0  0  0.100472  0  3.950524  0  0  0.10751  0  3.969973  0  0  0.039862  0.095477  0  3.937673  0
C  C40  1  0.77394323  0.41142555  0.77529795  1  0  0.311817  0  3.97821  0  0  0.293235  0  4.271308  0  0  0.312974  0  4.287877  0  0  0.152578  0.279912  0  4.259163  0
C  C41  1  0.36241882  0.58853843  0.72471444  1  0  0.311448  0  3.978525  0  0  0.292722  0  4.271951  0  0  0.312433  0  4.288489  0  0  0.152173  0.279479  0  4.25944  0
C  C42  1  0.22604317  0.58857113  0.22469487  1  0  0.311551  0  3.978002  0  0  0.292967  0  4.27115  0  0  0.312705  0  4.287723  0  0  0.152395  0.279641  0  4.259011  0
C  C43  1  0.63756530  0.41145369  0.27527945  1  0  0.311521  0  3.978654  0  0  0.292777  0  4.272096  0  0  0.312487  0  4.288639  0  0  0.152184  0.279534  0  4.259609  0
S  S44  1  0.74186376  0.33924794  0.88925591  1  0  -0.381062  0  2.340894  0  0  -0.341468  0  2.734319  0  0  -0.355982  0  2.718171  0  0  -0.151699  -0.3306  0  2.746657  0
S  S45  1  0.40261149  0.66076676  0.61078174  1  0  -0.380938  0  2.342011  0  0  -0.341807  0  2.736476  0  0  -0.356201  0  2.719822  0  0  -0.151905  -0.331016  0  2.74736  0
S  S46  1  0.25812813  0.66075000  0.11074369  1  0  -0.380974  0  2.341143  0  0  -0.341377  0  2.734574  0  0  -0.355891  0  2.71843  0  0  -0.151685  -0.330498  0  2.746909  0
S  S47  1  0.59739369  0.33924151  0.38922001  1  0  -0.380974  0  2.341955  0  0  -0.341865  0  2.736467  0  0  -0.356252  0  2.719809  0  0  -0.151904  -0.331077  0  2.747372  0
N  N48  1  0.83148533  0.76411411  0.95537640  1  0  -0.28748  0  3.323088  0  0  -0.202417  0  3.597745  0  0  -0.221072  0  3.61549  0  0  -0.341696  -0.188431  0  3.58501  0
N  N49  1  0.06739530  0.23585306  0.54448676  1  0  -0.28752  0  3.320841  0  0  -0.202533  0  3.59512  0  0  -0.221279  0  3.612973  0  0  -0.342052  -0.189045  0  3.582904  0
N  N50  1  0.16850609  0.23588613  0.04462431  1  0  -0.287611  0  3.323119  0  0  -0.202429  0  3.597621  0  0  -0.221087  0  3.615368  0  0  -0.341663  -0.188447  0  3.584898  0
N  N51  1  0.93262192  0.76415983  0.45551725  1  0  -0.287669  0  3.321095  0  0  -0.202642  0  3.595327  0  0  -0.221377  0  3.61317  0  0  -0.342059  -0.189157  0  3.583123  0
N  N52  1  0.79945656  0.46328729  0.69249668  1  0  -0.493474  0  3.050643  0  0  -0.42906  0  3.360165  0  0  -0.45002  0  3.366945  0  0  -0.411134  -0.413886  0  3.354632  0
N  N53  1  0.33616736  0.53655337  0.80746754  1  0  -0.492638  0  3.050572  0  0  -0.428063  0  3.360086  0  0  -0.449019  0  3.366834  0  0  -0.41065  -0.413218  0  3.35472  0
N  N54  1  0.20052923  0.53670493  0.30750300  1  0  -0.493296  0  3.050129  0  0  -0.428885  0  3.359675  0  0  -0.449846  0  3.366457  0  0  -0.411013  -0.413717  0  3.354151  0
N  N55  1  0.66381421  0.46344339  0.19253025  1  0  -0.492671  0  3.050858  0  0  -0.428062  0  3.360353  0  0  -0.449024  0  3.367108  0  0  -0.410643  -0.413192  0  3.354938  0
