# generated using pymatgen
data_CuH22C20(NO3)2
_symmetry_space_group_name_H-M   'P 1'
_cell_length_a   7.91441927
_cell_length_b   8.99795914
_cell_length_c   13.06780627
_cell_angle_alpha   91.34438734
_cell_angle_beta   90.00027816
_cell_angle_gamma   89.99948434
_symmetry_Int_Tables_number   1
_chemical_formula_structural   CuH22C20(NO3)2
_chemical_formula_sum   'Cu2 H44 C40 N4 O12'
_cell_volume   930.34964102
_cell_formula_units_Z   2
loop_
 _symmetry_equiv_pos_site_id
 _symmetry_equiv_pos_as_xyz
  1  'x, y, z'
loop_
 _atom_site_type_symbol
 _atom_site_label
 _atom_site_symmetry_multiplicity
 _atom_site_fract_x
 _atom_site_fract_y
 _atom_site_fract_z
 _atom_site_occupancy
 _atom_site_hle17_ddec_charge
 _atom_site_hle17_ddec_spin_density
 _atom_site_hle17_ddec_sum_bond_order
 _atom_site_hle17_magmom
 _atom_site_hse06_10hf_ddec_charge
 _atom_site_hse06_10hf_ddec_spin_density
 _atom_site_hse06_10hf_ddec_sum_bond_order
 _atom_site_hse06_10hf_magmom
 _atom_site_hse06_ddec_charge
 _atom_site_hse06_ddec_spin_density
 _atom_site_hse06_ddec_sum_bond_order
 _atom_site_hse06_magmom
 _atom_site_pbe_cm5_charge
 _atom_site_pbe_ddec_charge
 _atom_site_pbe_ddec_spin_density
 _atom_site_pbe_ddec_sum_bond_order
 _atom_site_pbe_magmom
Cu  Cu0  1  0.00000326  0.50000368  0.50000096  1  0.877922  0.68057  1.706927  0.495  0.85875  0.76438  2.079592  0.606  0.946594  0.831224  2.017236  0.691  0.754337  0.80564  0.71808  2.122023  0.552
Cu  Cu1  1  0.49999898  0.99999870  0.99999870  1  0.877904  0.680556  1.706926  0.495  0.858628  0.764379  2.07983  0.606  0.946669  0.831222  2.017257  0.691  0.75432  0.805541  0.718069  2.122224  0.552
H  H2  1  0.45293807  0.61959232  0.52578971  1  0.127702  -0.000335  0.943517  0.0  0.141679  0.000185  1.002438  0.0  0.145029  9.8e-05  1.000465  0.0  0.102643  0.14061  0.0002  1.000963  0.0
H  H3  1  0.95293101  0.88041427  0.97421440  1  0.12766  -0.000334  0.943558  0.0  0.14163  0.000186  1.002537  0.0  0.144984  9.8e-05  1.000565  0.0  0.10259  0.140558  0.000201  1.00105  0.0
H  H4  1  0.54706222  0.38040662  0.47420819  1  0.127687  -0.000336  0.943531  0.0  0.141699  0.000186  1.002425  0.0  0.145048  9.8e-05  1.000451  0.0  0.102661  0.140629  0.000201  1.000949  0.0
H  H5  1  0.04706423  0.11958801  0.02578509  1  0.127721  -0.000335  0.943483  0.0  0.141663  0.000186  1.002477  0.0  0.145017  9.8e-05  1.000506  0.0  0.102602  0.140592  0.000201  1.000992  0.0
H  H6  1  0.45419286  0.69556035  0.65153960  1  0.115752  0.000543  0.94938  0.001  0.131714  0.000501  1.006272  0.001  0.132787  0.0003  1.006461  0.0  0.105058  0.130816  0.000656  1.006588  0.001
H  H7  1  0.95418683  0.80444179  0.84846675  1  0.115681  0.000544  0.949247  0.001  0.13155  0.000502  1.006322  0.001  0.132627  0.0003  1.006504  0.0  0.104985  0.13061  0.000656  1.006683  0.001
H  H8  1  0.54580490  0.30443748  0.34845829  1  0.11574  0.000543  0.949367  0.001  0.131713  0.000501  1.006259  0.001  0.132786  0.0003  1.006448  0.0  0.105042  0.130815  0.000656  1.006565  0.001
H  H9  1  0.04581094  0.19555049  0.15153565  1  0.115736  0.000544  0.949214  0.001  0.131664  0.000501  1.006194  0.001  0.132741  0.0003  1.006374  0.0  0.105029  0.130728  0.000656  1.006546  0.001
H  H10  1  0.37491360  0.94347053  0.66908784  1  0.0971  -5.3e-05  0.964355  0.0  0.10653  2.4e-05  1.028313  0.0  0.109291  1.6e-05  1.027557  0.0  0.099114  0.104419  2e-05  1.028967  0.0
H  H11  1  0.87490614  0.55654002  0.83091763  1  0.097107  -5.4e-05  0.964311  0.0  0.106513  2.4e-05  1.028282  0.0  0.109291  1.6e-05  1.027506  0.0  0.099137  0.104404  2e-05  1.02894  0.0
H  H12  1  0.62508670  0.05652953  0.33091008  1  0.0971  -5.5e-05  0.964373  0.0  0.106531  2.4e-05  1.028326  0.0  0.109292  1.6e-05  1.027571  0.0  0.099105  0.104425  2e-05  1.028975  0.0
H  H13  1  0.12509037  0.44346006  0.16908947  1  0.097147  -5.5e-05  0.96444  0.0  0.106559  2.4e-05  1.028384  0.0  0.109315  1.6e-05  1.027635  0.0  0.099132  0.104446  2e-05  1.02904  0.0
H  H14  1  0.64291520  0.80159835  0.39762091  1  0.086107  -8.4e-05  0.980987  0.0  0.096632  -4.2e-05  1.044723  0.0  0.098691  -5.5e-05  1.045429  0.0  0.093664  0.094946  -3e-05  1.044482  0.0
H  H15  1  0.14290818  0.69839696  0.10238814  1  0.086217  -8.3e-05  0.980837  0.0  0.096709  -4.2e-05  1.044598  0.0  0.098768  -5.4e-05  1.045305  0.0  0.093707  0.095021  -3e-05  1.044355  0.0
H  H16  1  0.35708509  0.19840059  0.60237623  1  0.086097  -8.2e-05  0.981008  0.0  0.096634  -4.2e-05  1.044729  0.0  0.098691  -5.4e-05  1.045441  0.0  0.093676  0.09495  -3e-05  1.044491  0.0
H  H17  1  0.85708326  0.30160424  0.89761898  1  0.086211  -8.2e-05  0.980784  0.0  0.096673  -4.2e-05  1.044581  0.0  0.09873  -5.4e-05  1.045293  0.0  0.093681  0.094986  -3e-05  1.044349  0.0
H  H18  1  0.83130251  0.21528652  0.48152183  1  0.092965  0.001039  0.976331  0.002  0.098648  0.000839  1.044524  0.001  0.100404  0.000584  1.042669  0.001  0.116374  0.097057  0.001046  1.046265  0.002
H  H19  1  0.33130026  0.28473036  0.01848410  1  0.092906  0.001037  0.976281  0.002  0.098592  0.000839  1.044462  0.001  0.100342  0.000584  1.042616  0.001  0.116344  0.097  0.001046  1.046206  0.002
H  H20  1  0.16869273  0.78472689  0.51848318  1  0.092949  0.001038  0.976294  0.002  0.098631  0.000839  1.044482  0.001  0.100383  0.000584  1.042633  0.001  0.11636  0.097037  0.001045  1.046227  0.002
H  H21  1  0.66869877  0.71526635  0.98150995  1  0.092899  0.001038  0.976314  0.002  0.098596  0.000839  1.044488  0.001  0.100344  0.000584  1.042644  0.001  0.116352  0.097002  0.001046  1.046233  0.002
H  H22  1  0.81550256  0.97977030  0.58184959  1  0.104123  0.000443  0.980027  0.001  0.110978  0.000434  1.044576  0.001  0.112751  0.00031  1.046995  0.0  0.105043  0.109671  0.000568  1.042963  0.001
H  H23  1  0.31549860  0.52024627  0.91815426  1  0.104122  0.000443  0.979983  0.001  0.110975  0.000435  1.044532  0.001  0.112741  0.00031  1.046973  0.0  0.105072  0.109658  0.000569  1.042924  0.001
H  H24  1  0.18449268  0.02024199  0.41815157  1  0.104109  0.000444  0.980033  0.001  0.110961  0.000435  1.044579  0.001  0.112729  0.00031  1.047015  0.0  0.105061  0.109647  0.000569  1.042983  0.001
H  H25  1  0.68450548  0.47974933  0.08184130  1  0.104021  0.000443  0.98007  0.001  0.110895  0.000435  1.044596  0.001  0.112659  0.00031  1.047039  0.0  0.105054  0.10958  0.000569  1.042996  0.001
H  H26  1  0.13605360  0.42060804  0.69937002  1  0.090142  0.001088  0.970923  0.002  0.095106  0.000881  1.040848  0.002  0.097232  0.000605  1.038418  0.001  0.115377  0.092805  0.001055  1.043472  0.002
H  H27  1  0.63603935  0.07940080  0.80063608  1  0.090111  0.001089  0.970823  0.002  0.095093  0.000881  1.040735  0.002  0.097219  0.000605  1.038305  0.001  0.11539  0.092792  0.001055  1.04336  0.002
H  H28  1  0.86395427  0.57939648  0.30063485  1  0.090111  0.001088  0.970862  0.002  0.095082  0.000881  1.04079  0.002  0.097208  0.000605  1.038358  0.001  0.115383  0.092782  0.001055  1.04341  0.002
H  H29  1  0.36396473  0.92059259  0.19936098  1  0.090089  0.001088  0.970914  0.002  0.09514  0.00088  1.040774  0.002  0.097272  0.000604  1.038331  0.001  0.115414  0.092834  0.001054  1.0434  0.002
H  H30  1  0.97738629  0.96612271  0.74564595  1  0.096483  0.000306  0.959636  0.001  0.110215  3.9e-05  1.013825  0.0  0.112328  -1.6e-05  1.012342  0.0  0.110824  0.108084  8.8e-05  1.016032  0.0
H  H31  1  0.47737457  0.53388813  0.75435677  1  0.096588  0.000306  0.959618  0.001  0.110317  3.9e-05  1.013806  0.0  0.112425  -1.6e-05  1.012321  0.0  0.110897  0.108177  8.7e-05  1.016024  0.0
H  H32  1  0.02261905  0.03387845  0.25435123  1  0.09651  0.000306  0.95967  0.001  0.110211  3.9e-05  1.013888  0.0  0.112322  -1.6e-05  1.012403  0.0  0.110829  0.108079  8.7e-05  1.016089  0.0
H  H33  1  0.52263457  0.46610970  0.24564036  1  0.096644  0.000306  0.959562  0.001  0.110307  3.9e-05  1.01382  0.0  0.112413  -1.6e-05  1.012333  0.0  0.110893  0.108166  8.7e-05  1.016032  0.0
H  H34  1  0.14219462  0.19107901  0.80689192  1  0.1062  0.000385  0.953831  0.0  0.116809  0.000424  1.010402  0.0  0.119008  0.000295  1.011761  0.0  0.107784  0.115095  0.000533  1.009734  0.001
H  H35  1  0.64217972  0.30892532  0.69311184  1  0.106277  0.000385  0.953807  0.0  0.116859  0.000424  1.010403  0.0  0.119066  0.000295  1.011738  0.0  0.107832  0.115143  0.000532  1.009739  0.001
H  H36  1  0.85781452  0.80891882  0.19310750  1  0.106206  0.000385  0.953786  0.0  0.11682  0.000425  1.010361  0.0  0.119021  0.000295  1.011715  0.0  0.107804  0.115104  0.000532  1.009695  0.001
H  H37  1  0.35782815  0.69106917  0.30688600  1  0.106259  0.000385  0.953763  0.0  0.116868  0.000424  1.010333  0.0  0.119078  0.000295  1.011662  0.0  0.107837  0.115153  0.000532  1.00967  0.001
H  H38  1  0.99706970  0.31619493  0.32706393  1  0.392342  -0.000164  0.929163  0.0  0.356351  -0.000196  1.005458  0.0  0.367608  -0.00023  0.988689  0.0  0.268945  0.34816  -0.000145  1.0178  0.0
H  H39  1  0.49707856  0.18380616  0.17293230  1  0.392342  -0.000164  0.929133  0.0  0.356339  -0.000197  1.00546  0.0  0.367602  -0.000231  0.988684  0.0  0.268944  0.348147  -0.000145  1.017804  0.0
H  H40  1  0.00293059  0.68380402  0.67293551  1  0.392352  -0.000164  0.929149  0.0  0.356362  -0.000196  1.005441  0.0  0.36762  -0.000231  0.988672  0.0  0.268956  0.348174  -0.000145  1.017778  0.0
H  H41  1  0.50291921  0.81619279  0.82706637  1  0.392339  -0.000164  0.929149  0.0  0.35633  -0.000196  1.005486  0.0  0.367594  -0.000231  0.988708  0.0  0.268935  0.34814  -0.000145  1.017829  0.0
H  H42  1  0.82215848  0.29008739  0.26914959  1  0.401781  -7.5e-05  0.910551  0.0  0.372885  -8.4e-05  0.974081  0.0  0.384723  -7.1e-05  0.9568  0.0  0.27256  0.364732  -8.1e-05  0.985968  0.0
H  H43  1  0.32216247  0.20990951  0.23084300  1  0.401724  -7.5e-05  0.910646  0.0  0.372778  -8.4e-05  0.974238  0.0  0.384627  -7.1e-05  0.956966  0.0  0.272562  0.364625  -8.1e-05  0.986124  0.0
H  H44  1  0.17784181  0.70990933  0.73085058  1  0.401676  -7.5e-05  0.910688  0.0  0.37276  -8.4e-05  0.974258  0.0  0.384599  -7.1e-05  0.956975  0.0  0.272516  0.364608  -8.1e-05  0.986147  0.0
H  H45  1  0.67783529  0.79008943  0.76915337  1  0.401679  -7.5e-05  0.910703  0.0  0.372755  -8.4e-05  0.974261  0.0  0.3846  -7.1e-05  0.956987  0.0  0.272521  0.3646  -8.1e-05  0.986152  0.0
C  C46  1  0.50978002  0.85419405  0.53788556  1  0.111531  0.001332  3.756424  0.001  0.130823  0.000459  3.993949  0.0  0.131429  0.000175  4.017796  0.0  -0.011771  0.130544  0.001097  3.977434  0.001
C  C47  1  0.00977514  0.64581272  0.96212184  1  0.111596  0.001333  3.756443  0.001  0.130894  0.000459  3.994011  0.0  0.131507  0.000175  4.017853  0.0  -0.011799  0.130602  0.001098  3.977486  0.001
C  C48  1  0.49021901  0.14580489  0.46211234  1  0.11153  0.001327  3.756402  0.001  0.130826  0.000459  3.993932  0.0  0.131434  0.000175  4.017777  0.0  -0.01178  0.130544  0.001098  3.977419  0.001
C  C49  1  0.99021757  0.35418958  0.03788454  1  0.111618  0.00132  3.756495  0.001  0.130915  0.000459  3.99404  0.0  0.131528  0.000173  4.017876  0.0  -0.011731  0.130628  0.001098  3.977515  0.001
C  C50  1  0.51882269  0.69804777  0.57747577  1  -0.318282  0.011482  3.678485  0.013  -0.362087  0.006856  3.916011  0.008  -0.368842  0.004641  3.922999  0.006  -0.164451  -0.35751  0.008789  3.908597  0.01
C  C51  1  0.01881592  0.80195448  0.92253082  1  -0.318093  0.011476  3.678465  0.013  -0.36194  0.006853  3.916141  0.008  -0.368698  0.004643  3.92313  0.006  -0.164366  -0.357317  0.008788  3.908706  0.01
C  C52  1  0.48117507  0.30195007  0.42252365  1  -0.318234  0.011484  3.678481  0.013  -0.362128  0.006856  3.916068  0.008  -0.36888  0.00464  3.923056  0.006  -0.164442  -0.357545  0.008789  3.908638  0.01
C  C53  1  0.98118058  0.19804447  0.07747167  1  -0.318258  0.011481  3.678415  0.013  -0.362098  0.006854  3.91606  0.008  -0.368853  0.004642  3.923038  0.006  -0.164426  -0.357487  0.008789  3.90863  0.01
C  C54  1  0.43026657  0.96800428  0.59488366  1  -0.121671  0.000927  3.743317  0.001  -0.140687  0.000616  3.992484  0.001  -0.143722  0.000372  4.014202  0.0  -0.093989  -0.138419  0.001094  3.977267  0.001
C  C55  1  0.93025616  0.53199915  0.90511956  1  -0.121607  0.000927  3.743244  0.001  -0.140564  0.000616  3.992376  0.001  -0.143613  0.000372  4.014082  0.0  -0.093929  -0.138298  0.001095  3.977162  0.001
C  C56  1  0.56973498  0.03199577  0.40511502  1  -0.121691  0.000935  3.743292  0.001  -0.140698  0.000617  3.99244  0.001  -0.143736  0.000372  4.01416  0.0  -0.093951  -0.138426  0.001095  3.977216  0.001
C  C57  1  0.06973781  0.46800205  0.09488832  1  -0.121705  0.000941  3.743575  0.001  -0.140683  0.000616  3.992728  0.001  -0.143718  0.000373  4.014449  0.0  -0.093955  -0.138412  0.001095  3.977501  0.001
C  C58  1  0.57963677  0.88848307  0.44277265  1  -0.130325  0.001308  3.758131  0.001  -0.149878  0.00063  4.006784  0.001  -0.152557  0.000355  4.029009  0.0  -0.099644  -0.148107  0.000603  3.99165  0.001
C  C59  1  0.07962774  0.61151160  0.05723161  1  -0.130526  0.001302  3.758337  0.001  -0.150041  0.00063  4.007002  0.001  -0.152718  0.000354  4.029221  0.0  -0.099684  -0.148257  0.000603  3.991855  0.001
C  C60  1  0.42036352  0.11151587  0.55722679  1  -0.13029  0.001307  3.758088  0.001  -0.149841  0.00063  4.006719  0.001  -0.15252  0.000355  4.028942  0.0  -0.099628  -0.148069  0.000603  3.991595  0.001
C  C61  1  0.92036371  0.38848959  0.94277551  1  -0.13057  0.001312  3.758314  0.001  -0.150073  0.00063  4.007002  0.001  -0.152751  0.000356  4.029226  0.0  -0.099751  -0.148294  0.000603  3.991866  0.001
C  C62  1  0.70218326  0.64912165  0.59094939  1  0.702928  -0.007111  3.820445  -0.007  0.65832  -0.00135  4.130766  -0.002  0.695357  -0.002096  4.123147  -0.002  0.215173  0.633864  -0.00038  4.134128  -0.002
C  C63  1  0.20218093  0.85087358  0.90905305  1  0.702883  -0.007107  3.820923  -0.007  0.65836  -0.001347  4.131145  -0.002  0.695397  -0.002097  4.123544  -0.002  0.215197  0.633895  -0.00038  4.134511  -0.002
C  C64  1  0.29781451  0.35087729  0.40904852  1  0.702913  -0.007109  3.820468  -0.007  0.65837  -0.001348  4.130714  -0.002  0.695399  -0.002094  4.123102  -0.002  0.215138  0.633905  -0.000379  4.134097  -0.002
C  C65  1  0.79781683  0.14912204  0.09094786  1  0.702964  -0.007108  3.820733  -0.007  0.658415  -0.001349  4.13098  -0.002  0.695459  -0.002098  4.123366  -0.002  0.215186  0.633959  -0.00038  4.134339  -0.002
C  C66  1  0.89457472  0.20421982  0.55507218  1  0.113862  -0.011747  3.675658  -0.008  0.086551  -0.00266  3.926676  -0.002  0.095236  -0.004352  3.945502  -0.003  0.045636  0.080766  -0.001417  3.915097  -0.001
C  C67  1  0.39456945  0.29579475  0.94493400  1  0.11393  -0.011737  3.67541  -0.008  0.086665  -0.002658  3.92643  -0.002  0.095354  -0.004353  3.94526  -0.003  0.045659  0.080878  -0.001416  3.914852  -0.001
C  C68  1  0.10542431  0.79579471  0.44493207  1  0.113848  -0.011737  3.675649  -0.008  0.08655  -0.002658  3.926663  -0.002  0.095232  -0.004353  3.945481  -0.003  0.045622  0.080765  -0.001416  3.915089  -0.001
C  C69  1  0.60543211  0.70419974  0.05506231  1  0.113852  -0.011743  3.675477  -0.008  0.086588  -0.002657  3.926528  -0.002  0.09528  -0.004351  3.945355  -0.003  0.045595  0.080803  -0.001415  3.914949  -0.001
C  C70  1  0.88912352  0.07405360  0.61041667  1  -0.111108  0.010256  3.721105  0.011  -0.120643  0.003927  3.965133  0.005  -0.128392  0.003594  3.98778  0.004  -0.078964  -0.115942  0.003997  3.950342  0.005
C  C71  1  0.38911902  0.42595879  0.88958869  1  -0.111017  0.010253  3.721074  0.011  -0.120526  0.003926  3.965051  0.005  -0.128273  0.003594  3.987683  0.004  -0.078981  -0.115819  0.003996  3.950241  0.005
C  C72  1  0.11087172  0.92595536  0.38958597  1  -0.11105  0.010248  3.721354  0.011  -0.120558  0.003926  3.965329  0.005  -0.128308  0.003593  3.987972  0.004  -0.07898  -0.115859  0.003996  3.950539  0.005
C  C73  1  0.61088633  0.57403681  0.11040610  1  -0.110846  0.010257  3.721085  0.011  -0.120371  0.003926  3.965069  0.005  -0.128117  0.003594  3.987699  0.004  -0.07895  -0.115672  0.003996  3.950265  0.005
C  C74  1  0.06916852  0.31880561  0.67717737  1  0.114265  -0.011982  3.688458  -0.008  0.086316  -0.002633  3.941073  -0.001  0.095116  -0.004287  3.959332  -0.003  0.045426  0.081189  -0.001292  3.92929  0.0
C  C75  1  0.56915594  0.18120264  0.82282852  1  0.114252  -0.011984  3.688661  -0.008  0.086299  -0.002633  3.941289  -0.001  0.095098  -0.004287  3.959565  -0.003  0.045409  0.081173  -0.001293  3.929508  0.0
C  C76  1  0.93083683  0.68120113  0.32282677  1  0.114362  -0.011977  3.688563  -0.008  0.086402  -0.002634  3.941205  -0.001  0.095198  -0.004286  3.959464  -0.003  0.045444  0.081275  -0.001293  3.929416  0.0
C  C77  1  0.43084561  0.81879185  0.17716932  1  0.114421  -0.011986  3.688635  -0.008  0.086395  -0.002634  3.941302  -0.001  0.095193  -0.004287  3.95958  -0.003  0.045434  0.081271  -0.001293  3.929516  0.0
C  C78  1  0.97910525  0.06733213  0.70183215  1  0.004089  -0.013988  3.695592  -0.009  -0.012938  -0.00475  3.934525  -0.003  -0.008195  -0.005385  3.951289  -0.003  -0.060598  -0.015804  -0.004188  3.923795  -0.002
C  C79  1  0.47909490  0.43267843  0.79817346  1  0.003664  -0.013991  3.695851  -0.009  -0.01339  -0.004751  3.934792  -0.003  -0.008644  -0.005386  3.951552  -0.003  -0.060785  -0.016254  -0.004189  3.924059  -0.002
C  C80  1  0.02089757  0.93267349  0.29816892  1  0.003941  -0.01399  3.695762  -0.009  -0.013076  -0.004752  3.934693  -0.003  -0.008333  -0.005386  3.951461  -0.003  -0.060672  -0.01594  -0.004189  3.923954  -0.002
C  C81  1  0.52090918  0.56731830  0.20182594  1  0.003572  -0.013998  3.695918  -0.009  -0.013429  -0.004752  3.934868  -0.003  -0.008678  -0.005387  3.951623  -0.003  -0.060801  -0.01629  -0.004189  3.924127  -0.002
C  C82  1  0.07040764  0.19154374  0.73577410  1  -0.11889  0.010092  3.729061  0.011  -0.126545  0.003812  3.972002  0.005  -0.133925  0.003484  3.993173  0.004  -0.079717  -0.1215  0.003936  3.957349  0.005
C  C83  1  0.57039836  0.30845894  0.76423018  1  -0.118721  0.010091  3.729217  0.011  -0.12633  0.003812  3.972103  0.005  -0.133705  0.003484  3.993279  0.004  -0.079666  -0.121284  0.003936  3.957449  0.005
C  C84  1  0.92959644  0.80845521  0.26422686  1  -0.118792  0.01009  3.729035  0.011  -0.126449  0.003812  3.971979  0.005  -0.13383  0.003483  3.993153  0.004  -0.079675  -0.121402  0.003936  3.957322  0.005
C  C85  1  0.42960825  0.69153666  0.23576614  1  -0.118774  0.010093  3.729378  0.011  -0.126387  0.003811  3.972266  0.005  -0.133765  0.003483  3.993447  0.004  -0.079674  -0.121341  0.003935  3.957609  0.005
N  N86  1  0.98291174  0.32392681  0.58836380  1  -0.301476  0.075957  3.348381  0.097  -0.250231  0.051766  3.639601  0.07  -0.280035  0.04316  3.660792  0.063  -0.352668  -0.233257  0.056023  3.627766  0.073
N  N87  1  0.48290363  0.17608261  0.91164103  1  -0.30148  0.075954  3.348366  0.097  -0.2503  0.051766  3.639717  0.07  -0.280149  0.043161  3.66092  0.063  -0.352671  -0.233332  0.056022  3.627886  0.073
N  N88  1  0.01708981  0.67608105  0.41164112  1  -0.301533  0.075954  3.348389  0.097  -0.250309  0.051766  3.639655  0.07  -0.2801  0.043161  3.660828  0.063  -0.352664  -0.233335  0.056023  3.627819  0.073
N  N89  1  0.51710046  0.82391299  0.08835376  1  -0.301477  0.075956  3.348128  0.097  -0.250328  0.051765  3.63956  0.07  -0.280177  0.04316  3.660761  0.063  -0.352649  -0.233356  0.056023  3.627719  0.073
O  O90  1  0.75797024  0.55570603  0.52342138  1  -0.595529  0.090437  2.049445  0.124  -0.569699  0.059434  2.334473  0.09  -0.61222  0.045208  2.32715  0.074  -0.317863  -0.541414  0.069366  2.337648  0.099
O  O91  1  0.25796878  0.94430432  0.97657991  1  -0.59567  0.090451  2.049377  0.124  -0.569826  0.05944  2.334395  0.09  -0.612401  0.045211  2.327083  0.074  -0.31796  -0.541546  0.06937  2.337584  0.099
O  O92  1  0.24203005  0.44429735  0.47657505  1  -0.59554  0.090438  2.049408  0.124  -0.569763  0.059433  2.334445  0.09  -0.612282  0.045207  2.327129  0.074  -0.317856  -0.541479  0.069359  2.337633  0.099
O  O93  1  0.74203278  0.05569685  0.02341803  1  -0.595597  0.090447  2.049394  0.124  -0.56975  0.059438  2.334399  0.09  -0.612329  0.04521  2.327088  0.074  -0.317896  -0.541483  0.069367  2.337603  0.099
O  O94  1  0.87340548  0.33293800  0.33244146  1  -0.855348  -0.000827  1.809203  0.0  -0.818422  -0.001167  1.992152  0.0  -0.836223  -0.001291  1.956824  0.0  -0.614354  -0.805584  -0.000974  2.017817  0.0
O  O95  1  0.37341193  0.16705739  0.16755509  1  -0.855286  -0.000827  1.809218  0.0  -0.818299  -0.001167  1.992219  0.0  -0.836143  -0.001291  1.956819  0.0  -0.61433  -0.805444  -0.000974  2.017851  0.0
O  O96  1  0.12659481  0.66706205  0.66755723  1  -0.855262  -0.000827  1.8093  0.0  -0.818324  -0.001167  1.992243  0.0  -0.836122  -0.00129  1.956913  0.0  -0.614305  -0.805472  -0.000974  2.017884  0.0
O  O97  1  0.62658583  0.83294376  0.83244055  1  -0.855226  -0.000826  1.809285  0.0  -0.818266  -0.001167  1.992281  0.0  -0.836099  -0.001291  1.956895  0.0  -0.614281  -0.805408  -0.000974  2.017915  0.0
O  O98  1  0.78678581  0.70470355  0.66467705  1  -0.643705  0.000484  2.001319  0.002  -0.577779  -0.000137  2.224036  0.001  -0.606144  -0.001024  2.214033  0.0  -0.306791  -0.558018  0.000401  2.230404  0.002
O  O99  1  0.28677715  0.79529659  0.83533259  1  -0.643573  0.000481  2.001935  0.002  -0.57762  -0.000139  2.224619  0.001  -0.606004  -0.001025  2.21462  0.0  -0.306691  -0.55786  0.000399  2.230996  0.002
O  O100  1  0.21321195  0.29529762  0.33532241  1  -0.643735  0.000484  2.001421  0.002  -0.577817  -0.000137  2.224119  0.001  -0.606175  -0.001025  2.21412  0.0  -0.306801  -0.558049  0.000401  2.230493  0.002
O  O101  1  0.71321683  0.20469903  0.16466832  1  -0.643675  0.000481  2.001711  0.002  -0.577727  -0.000138  2.224407  0.001  -0.60611  -0.001025  2.214398  0.0  -0.306723  -0.557964  0.0004  2.23078  0.002
