# generated using pymatgen
data_ZnH10C13N10
_symmetry_space_group_name_H-M   'P 1'
_cell_length_a   8.85032740
_cell_length_b   12.11015469
_cell_length_c   15.97600000
_cell_angle_alpha   107.11780704
_cell_angle_beta   90.00000000
_cell_angle_gamma   111.43233195
_symmetry_Int_Tables_number   1
_chemical_formula_structural   ZnH10C13N10
_chemical_formula_sum   'Zn4 H40 C52 N40'
_cell_volume   1512.10423019
_cell_formula_units_Z   4
loop_
 _symmetry_equiv_pos_site_id
 _symmetry_equiv_pos_as_xyz
  1  'x, y, z'
loop_
 _atom_site_type_symbol
 _atom_site_label
 _atom_site_symmetry_multiplicity
 _atom_site_fract_x
 _atom_site_fract_y
 _atom_site_fract_z
 _atom_site_occupancy
 _atom_site_hle17_bader_spin_density
 _atom_site_hle17_ddec_charge
 _atom_site_hle17_ddec_spin_density
 _atom_site_hle17_ddec_sum_bond_order
 _atom_site_hle17_magmom
 _atom_site_hse06_10hf_bader_spin_density
 _atom_site_hse06_10hf_ddec_charge
 _atom_site_hse06_10hf_ddec_spin_density
 _atom_site_hse06_10hf_ddec_sum_bond_order
 _atom_site_hse06_10hf_magmom
 _atom_site_hse06_bader_spin_density
 _atom_site_hse06_ddec_charge
 _atom_site_hse06_ddec_spin_density
 _atom_site_hse06_ddec_sum_bond_order
 _atom_site_hse06_magmom
 _atom_site_pbe_bader_charge
 _atom_site_pbe_bader_spin_density
 _atom_site_pbe_cm5_charge
 _atom_site_pbe_ddec_charge
 _atom_site_pbe_ddec_spin_density
 _atom_site_pbe_ddec_sum_bond_order
 _atom_site_pbe_magmom
Zn  Zn0  1  0.44318283  0.56487685  0.90122228  1  0  0.788745  0  2.046704  0  0  0.571804  0  2.49992  0  0  0.614265  0  2.46215  0  1.252688  0  0.700381  0.542557  0  2.525602  0
Zn  Zn1  1  0.87819948  0.43509148  0.59876759  1  0  0.789231  0  2.046928  0  0  0.571985  0  2.500445  0  0  0.614471  0  2.462637  0  1.255845  0  0.700811  0.542726  0  2.526146  0
Zn  Zn2  1  0.55681936  0.43512327  0.09877781  1  0  0.788772  0  2.046654  0  0  0.571841  0  2.499856  0  0  0.614301  0  2.462088  0  1.252703  0  0.700388  0.542594  0  2.525539  0
Zn  Zn3  1  0.12180157  0.56490864  0.40123188  1  0  0.789276  0  2.046875  0  0  0.572031  0  2.50036  0  0  0.614517  0  2.462554  0  1.255973  0  0.700841  0.54277  0  2.526061  0
H  H4  1  0.41348160  0.29161477  0.71967091  1  0  0.117996  0  0.96653  0  0  0.119534  0  1.046036  0  0  0.121817  0  1.045393  0  0.128354  0  0.105554  0.11793  0  1.046533  0
H  H5  1  0.12190890  0.70826660  0.78026576  1  0  0.118105  0  0.966856  0  0  0.119527  0  1.046681  0  0  0.12183  0  1.046025  0  0.125208  0  0.105532  0.117929  0  1.047176  0
H  H6  1  0.58651832  0.70838536  0.28032856  1  0  0.117977  0  0.966538  0  0  0.119512  0  1.046053  0  0  0.121796  0  1.04541  0  0.128351  0  0.105555  0.11791  0  1.046546  0
H  H7  1  0.87808943  0.29173259  0.21973663  1  0  0.11814  0  0.966861  0  0  0.119567  0  1.046681  0  0  0.121872  0  1.046024  0  0.125217  0  0.105544  0.11797  0  1.047177  0
H  H8  1  0.21543001  0.17152611  0.70428830  1  0  0.133144  0  0.902889  0  0  0.149768  0  0.952039  0  0  0.152176  0  0.950207  0  0.112836  0  0.116523  0.148021  0  0.953439  0
H  H9  1  0.04419774  0.82848617  0.79569823  1  0  0.132653  0  0.902868  0  0  0.14931  0  0.95263  0  0  0.151814  0  0.950635  0  0.078269  0  0.116388  0.147512  0  0.954107  0
H  H10  1  0.78456832  0.82847308  0.29571096  1  0  0.133119  0  0.902914  0  0  0.149756  0  0.952058  0  0  0.152165  0  0.950224  0  0.112849  0  0.116507  0.147995  0  0.953474  0
H  H11  1  0.95580059  0.17151302  0.20430165  1  0  0.132698  0  0.902885  0  0  0.149367  0  0.952635  0  0  0.151871  0  0.950641  0  0.078204  0  0.116412  0.147568  0  0.954114  0
H  H12  1  0.59529554  0.75124818  0.79698750  1  0  0.069106  0  0.988448  0  0  0.074054  0  1.059991  0  0  0.07616  0  1.05852  0  0.095235  0  0.112967  0.072489  0  1.0611  0
H  H13  1  0.84384700  0.24845272  0.70283441  1  0  0.069159  0  0.989348  0  0  0.074173  0  1.060734  0  0  0.076255  0  1.05931  0  0.127991  0  0.113224  0.072618  0  1.06185  0
H  H14  1  0.40470411  0.24874914  0.20301133  1  0  0.069136  0  0.988455  0  0  0.074083  0  1.059994  0  0  0.076187  0  1.058523  0  0.09526  0  0.112984  0.07252  0  1.061104  0
H  H15  1  0.15615359  0.75154647  0.29716547  1  0  0.069166  0  0.989328  0  0  0.074166  0  1.060724  0  0  0.076247  0  1.059301  0  0.128024  0  0.113211  0.072612  0  1.061839  0
H  H16  1  0.55828586  0.93139473  0.76942348  1  0  0.090994  0  0.983933  0  0  0.102985  0  1.04  0  0  0.105715  0  1.039771  0  0.075781  0  0.102573  0.101037  0  1.040324  0
H  H17  1  0.62635999  0.06846233  0.73049837  1  0  0.090644  0  0.983888  0  0  0.102766  0  1.039819  0  0  0.105507  0  1.039594  0  0.063419  0  0.102396  0.100811  0  1.040142  0
H  H18  1  0.44171379  0.06860259  0.23057473  1  0  0.090983  0  0.983945  0  0  0.102951  0  1.040038  0  0  0.10568  0  1.03981  0  0.075696  0  0.102564  0.101003  0  1.040362  0
H  H19  1  0.37363701  0.93153873  0.26950193  1  0  0.090641  0  0.983868  0  0  0.102768  0  1.039795  0  0  0.105509  0  1.03957  0  0.063407  0  0.10239  0.100813  0  1.040117  0
H  H20  1  0.37758869  0.02774269  0.86301628  1  0  0.106573  0  0.976372  0  0  0.110039  0  1.046615  0  0  0.113505  0  1.043564  0  0.160456  0  0.108244  0.107491  0  1.048848  0
H  H21  1  0.34927149  0.97240518  0.63703681  1  0  0.106608  0  0.977003  0  0  0.1102  0  1.047137  0  0  0.113763  0  1.043983  0  0.158029  0  0.108083  0.107589  0  1.049439  0
H  H22  1  0.62240890  0.97225276  0.13698089  1  0  0.106538  0  0.976283  0  0  0.110024  0  1.046523  0  0  0.11349  0  1.043472  0  0.160442  0  0.108227  0.107477  0  1.048756  0
H  H23  1  0.65072844  0.02759495  0.36296266  1  0  0.10659  0  0.977017  0  0  0.110181  0  1.047155  0  0  0.113744  0  1.044001  0  0.157999  0  0.108076  0.10757  0  1.049456  0
H  H24  1  0.24094472  0.93300306  0.97356612  1  0  0.11292  0  0.936793  0  0  0.126165  0  0.98897  0  0  0.129319  0  0.988056  0  0.100753  0  0.115541  0.123839  0  0.989882  0
H  H25  1  0.30756799  0.06717567  0.52645504  1  0  0.11328  0  0.936512  0  0  0.126025  0  0.988966  0  0  0.12918  0  0.988071  0  0.09498  0  0.11548  0.123736  0  0.989813  0
H  H26  1  0.75905494  0.06699426  0.02643209  1  0  0.112907  0  0.936827  0  0  0.12616  0  0.988979  0  0  0.129314  0  0.988066  0  0.100773  0  0.115554  0.123834  0  0.989891  0
H  H27  1  0.69243400  0.93282633  0.47354547  1  0  0.113235  0  0.936565  0  0  0.126015  0  0.988981  0  0  0.12917  0  0.988087  0  0.094952  0  0.115471  0.123727  0  0.989827  0
H  H28  1  0.13472755  0.84549796  0.06358869  1  0  0.112341  0  0.942709  0  0  0.125614  0  0.995089  0  0  0.128648  0  0.994269  0  0.069416  0  0.114144  0.123426  0  0.995857  0
H  H29  1  0.28890917  0.15473874  0.43647920  1  0  0.111664  0  0.943634  0  0  0.125321  0  0.995526  0  0  0.128438  0  0.994597  0  0.09591  0  0.114217  0.123073  0  0.996364  0
H  H30  1  0.86527670  0.15450403  0.93641119  1  0  0.112371  0  0.942638  0  0  0.125637  0  0.995028  0  0  0.128671  0  0.994207  0  0.069325  0  0.114148  0.123449  0  0.995795  0
H  H31  1  0.71108924  0.84526513  0.56352297  1  0  0.111697  0  0.943586  0  0  0.125301  0  0.995534  0  0  0.128418  0  0.994605  0  0.096109  0  0.114222  0.123054  0  0.996371  0
H  H32  1  0.00110849  0.72274247  0.16128158  1  0  0.09357  0  0.950556  0  0  0.107511  0  1.004941  0  0  0.109182  0  1.004761  0  0.060706  0  0.108904  0.106205  0  1.005202  0
H  H33  1  0.27838390  0.27745028  0.33868199  1  0  0.09317  0  0.951827  0  0  0.10725  0  1.006117  0  0  0.10882  0  1.006046  0  0.084501  0  0.109016  0.106017  0  1.006298  0
H  H34  1  0.99889303  0.27725859  0.83871809  1  0  0.093534  0  0.950606  0  0  0.107484  0  1.004989  0  0  0.10915  0  1.004814  0  0.060676  0  0.108894  0.106191  0  1.005233  0
H  H35  1  0.72161584  0.72255172  0.66131789  1  0  0.093221  0  0.951774  0  0  0.107265  0  1.006096  0  0  0.108845  0  1.006011  0  0.08451  0  0.109031  0.106029  0  1.00628  0
H  H36  1  0.04942501  0.52711579  0.15295249  1  0  0.110719  0  0.963106  0  0  0.115345  0  1.030132  0  0  0.117922  0  1.030558  0  0.109396  0  0.108349  0.113468  0  1.030002  0
H  H37  1  0.52255284  0.47292829  0.34697917  1  0  0.110476  0  0.963076  0  0  0.11499  0  1.030311  0  0  0.117602  0  1.030659  0  0.100483  0  0.108054  0.113052  0  1.030324  0
H  H38  1  0.95057538  0.47288527  0.84704781  1  0  0.110697  0  0.963163  0  0  0.115331  0  1.030169  0  0  0.117905  0  1.030605  0  0.109381  0  0.108361  0.113454  0  1.030038  0
H  H39  1  0.47744709  0.52707184  0.65302092  1  0  0.110484  0  0.963076  0  0  0.114994  0  1.030316  0  0  0.117607  0  1.030663  0  0.100498  0  0.10805  0.113057  0  1.030328  0
H  H40  1  0.22460913  0.46133992  0.04165578  1  0  0.078278  0  0.971819  0  0  0.078932  0  1.048426  0  0  0.081033  0  1.047141  0  0.129819  0  0.115809  0.07736  0  1.049398  0
H  H41  1  0.76332244  0.53868077  0.45839647  1  0  0.078329  0  0.973151  0  0  0.079662  0  1.048926  0  0  0.081869  0  1.047553  0  0.128404  0  0.115711  0.078027  0  1.049967  0
H  H42  1  0.77539080  0.53866020  0.95834431  1  0  0.078284  0  0.971815  0  0  0.078945  0  1.048426  0  0  0.081047  0  1.047141  0  0.129831  0  0.115805  0.077373  0  1.049398  0
H  H43  1  0.23667570  0.46132029  0.54160508  1  0  0.07832  0  0.973034  0  0  0.079629  0  1.048842  0  0  0.081827  0  1.047484  0  0.128458  0  0.115714  0.077994  0  1.049883  0
C  C44  1  0.21950992  0.35500058  0.72973518  1  0  0.31791  0  3.769561  0  0  0.30246  0  4.043542  0  0  0.312305  0  4.059213  0  0.956362  0  0.211214  0.295873  0  4.032909  0
C  C45  1  0.86460874  0.64502853  0.77023820  1  0  0.317286  0  3.769773  0  0  0.301534  0  4.044822  0  0  0.311333  0  4.060572  0  0.961759  0  0.210835  0.295  0  4.03411  0
C  C46  1  0.78048888  0.64499954  0.27026428  1  0  0.317907  0  3.769593  0  0  0.302479  0  4.043554  0  0  0.312329  0  4.059218  0  0.956249  0  0.211193  0.295893  0  4.032914  0
C  C47  1  0.13539025  0.35496972  0.22976210  1  0  0.317323  0  3.769782  0  0  0.301572  0  4.04486  0  0  0.311374  0  4.060605  0  0.961788  0  0.210845  0.295038  0  4.034146  0
C  C48  1  0.29231270  0.26757123  0.74340760  1  0  -0.286919  0  3.738235  0  0  -0.325537  0  3.97272  0  0  -0.329006  0  3.980266  0  -0.028746  0  -0.143051  -0.323084  0  3.967606  0
C  C49  1  0.02487563  0.73241394  0.75655535  1  0  -0.285055  0  3.738314  0  0  -0.32496  0  3.974224  0  0  -0.328456  0  3.981726  0  0.011296  0  -0.143043  -0.322515  0  3.969145  0
C  C50  1  0.70768610  0.73242890  0.25659186  1  0  -0.286822  0  3.73826  0  0  -0.325482  0  3.972712  0  0  -0.328954  0  3.98026  0  -0.028745  0  -0.143021  -0.323018  0  3.967599  0
C  C51  1  0.97512383  0.26758525  0.24344516  1  0  -0.285161  0  3.738336  0  0  -0.325115  0  3.974309  0  0  -0.328608  0  3.981814  0  0.011357  0  -0.143081  -0.32267  0  3.969229  0
C  C52  1  0.31411855  0.27378105  0.83747212  1  0  0.333072  0  3.751285  0  0  0.312561  0  4.02722  0  0  0.323422  0  4.043421  0  0.951366  0  0.210147  0.305367  0  4.016144  0
C  C53  1  0.04044248  0.72618167  0.66248582  1  0  0.330731  0  3.753132  0  0  0.312128  0  4.027391  0  0  0.323008  0  4.043569  0  0.941578  0  0.210355  0.304913  0  4.016342  0
C  C54  1  0.68588091  0.72621814  0.16252651  1  0  0.333027  0  3.751356  0  0  0.312601  0  4.027193  0  0  0.323463  0  4.043393  0  0.951383  0  0.210197  0.305409  0  4.016111  0
C  C55  1  0.95955970  0.27381845  0.33751552  1  0  0.330733  0  3.753091  0  0  0.312155  0  4.027335  0  0  0.323017  0  4.043538  0  0.941589  0  0.210376  0.30494  0  4.016286  0
C  C56  1  0.51554250  0.79271401  0.83367965  1  0  0.144607  0  3.712492  0  0  0.108705  0  3.967757  0  0  0.116218  0  3.98463  0  0.510168  0  0.052623  0.103862  0  3.956272  0
C  C57  1  0.72255710  0.20715053  0.66623323  1  0  0.143798  0  3.713741  0  0  0.107418  0  3.969081  0  0  0.114972  0  3.985992  0  0.483593  0  0.052381  0.102534  0  3.957572  0
C  C58  1  0.48445809  0.20728518  0.16631898  1  0  0.144534  0  3.712512  0  0  0.108646  0  3.96775  0  0  0.116161  0  3.984621  0  0.510261  0  0.05257  0.1038  0  3.956266  0
C  C59  1  0.27744396  0.79284959  0.33376686  1  0  0.143829  0  3.71375  0  0  0.107447  0  3.969061  0  0  0.115003  0  3.985972  0  0.483587  0  0.052409  0.102563  0  3.957557  0
C  C60  1  0.49668276  0.89553373  0.82029444  1  0  -0.124564  0  3.737486  0  0  -0.13361  0  3.980571  0  0  -0.141343  0  4.002828  0  -0.091561  0  -0.084059  -0.12858  0  3.965472  0
C  C61  1  0.60071902  0.10444114  0.67967623  1  0  -0.124032  0  3.735055  0  0  -0.132911  0  3.978331  0  0  -0.14066  0  4.000651  0  0.021919  0  -0.084137  -0.127867  0  3.963192  0
C  C62  1  0.50331962  0.10446452  0.17970460  1  0  -0.12453  0  3.737535  0  0  -0.133552  0  3.98061  0  0  -0.141286  0  4.002867  0  -0.091427  0  -0.084014  -0.128522  0  3.965513  0
C  C63  1  0.39928137  0.89555992  0.32032344  1  0  -0.123989  0  3.735047  0  0  -0.132876  0  3.978312  0  0  -0.140625  0  4.000629  0  0.021826  0  -0.084096  -0.127834  0  3.963173  0
C  C64  1  0.39796558  0.94796236  0.87163147  1  0  0.003843  0  3.70553  0  0  -0.013902  0  3.954617  0  0  -0.010711  0  3.973806  0  0.012002  0  -0.063342  -0.015648  0  3.941367  0
C  C65  1  0.44952504  0.05211070  0.62839741  1  0  0.003475  0  3.703001  0  0  -0.014935  0  3.952686  0  0  -0.011792  0  3.971732  0  -0.102926  0  -0.063561  -0.016631  0  3.939483  0
C  C66  1  0.60203228  0.05203589  0.12836633  1  0  0.003805  0  3.705612  0  0  -0.013969  0  3.954716  0  0  -0.010779  0  3.973907  0  0.012033  0  -0.06338  -0.015717  0  3.941468  0
C  C67  1  0.55047441  0.94788849  0.37160122  1  0  0.003523  0  3.703103  0  0  -0.014884  0  3.952789  0  0  -0.011743  0  3.97184  0  -0.10288  0  -0.063555  -0.016587  0  3.939607  0
C  C68  1  0.31935540  0.89343543  0.93342230  1  0  -0.135238  0  3.68518  0  0  -0.153957  0  3.932617  0  0  -0.161644  0  3.954637  0  -0.050685  0  -0.072132  -0.148927  0  3.917762  0
C  C69  1  0.42557486  0.10661893  0.56655546  1  0  -0.135048  0  3.684883  0  0  -0.15286  0  3.931928  0  0  -0.160525  0  3.954008  0  -0.032398  0  -0.071105  -0.147845  0  3.917032  0
C  C70  1  0.68064425  0.10656189  0.06657654  1  0  -0.13517  0  3.685149  0  0  -0.153869  0  3.932594  0  0  -0.161556  0  3.954615  0  -0.050882  0  -0.072126  -0.148838  0  3.917739  0
C  C71  1  0.57442713  0.89338306  0.43344442  1  0  -0.135082  0  3.684899  0  0  -0.15293  0  3.931954  0  0  -0.160596  0  3.954035  0  -0.032393  0  -0.071131  -0.147929  0  3.917046  0
C  C72  1  0.33918821  0.78699136  0.94092000  1  0  0.177688  0  3.74211  0  0  0.170058  0  3.985431  0  0  0.177049  0  4.005014  0  0.516448  0  0.125773  0.165437  0  3.972146  0
C  C73  1  0.55195515  0.21296669  0.55901687  1  0  0.176759  0  3.74215  0  0  0.169156  0  3.985016  0  0  0.176037  0  4.004806  0  0.507053  0  0.125316  0.164551  0  3.971678  0
C  C74  1  0.66081238  0.21300783  0.05907926  1  0  0.177657  0  3.742122  0  0  0.169978  0  3.98547  0  0  0.176968  0  4.005054  0  0.516943  0  0.125763  0.165357  0  3.972184  0
C  C75  1  0.44804571  0.78703531  0.44098363  1  0  0.176871  0  3.742092  0  0  0.169246  0  3.98494  0  0  0.176128  0  4.004729  0  0.507041  0  0.125328  0.164678  0  3.971556  0
C  C76  1  0.25250952  0.71857111  0.00087480  1  0  0.182358  0  3.743225  0  0  0.179466  0  3.979743  0  0  0.185572  0  4.000365  0  0.505283  0  0.124319  0.17541  0  3.965731  0
C  C77  1  0.53376658  0.28142995  0.49908293  1  0  0.183052  0  3.742689  0  0  0.179039  0  3.980276  0  0  0.185172  0  4.000963  0  0.480204  0  0.124382  0.174979  0  3.966242  0
C  C78  1  0.74749286  0.28142714  0.99912424  1  0  0.182389  0  3.74324  0  0  0.179581  0  3.979659  0  0  0.185687  0  4.000281  0  0.50515  0  0.124394  0.175524  0  3.965647  0
C  C79  1  0.46623249  0.71857298  0.50091966  1  0  0.182843  0  3.742804  0  0  0.178848  0  3.980357  0  0  0.184979  0  4.001045  0  0.479863  0  0.12433  0.174777  0  3.96632  0
C  C80  1  0.15393834  0.76062977  0.06034006  1  0  -0.144448  0  3.699938  0  0  -0.16208  0  3.942067  0  0  -0.169006  0  3.963294  0  -0.01341  0  -0.077004  -0.157536  0  3.927672  0
C  C81  1  0.39314618  0.23949472  0.43964396  1  0  -0.142919  0  3.700227  0  0  -0.160447  0  3.942192  0  0  -0.167427  0  3.963399  0  -0.009965  0  -0.076355  -0.155872  0  3.92782  0
C  C82  1  0.84606365  0.23937222  0.93965920  1  0  -0.144476  0  3.700051  0  0  -0.162123  0  3.942163  0  0  -0.169049  0  3.963388  0  -0.013226  0  -0.077008  -0.157582  0  3.927778  0
C  C83  1  0.60685176  0.76050821  0.56035800  1  0  -0.142878  0  3.700287  0  0  -0.160378  0  3.94224  0  0  -0.167357  0  3.96345  0  -0.010253  0  -0.0763  -0.155803  0  3.92787  0
C  C84  1  0.07945998  0.69176817  0.11549935  1  0  -0.001422  0  3.720921  0  0  -0.018754  0  3.970072  0  0  -0.015791  0  3.989253  0  -0.027457  0  -0.066306  -0.020383  0  3.956932  0
C  C85  1  0.38771169  0.30835071  0.38445400  1  0  -0.002474  0  3.721514  0  0  -0.020062  0  3.971029  0  0  -0.017038  0  3.990244  0  -0.024817  0  -0.067241  -0.021727  0  3.957846  0
C  C86  1  0.92054287  0.30823102  0.88449991  1  0  -0.001366  0  3.720929  0  0  -0.018705  0  3.97009  0  0  -0.015737  0  3.989269  0  -0.027469  0  -0.066282  -0.020345  0  3.956946  0
C  C87  1  0.61228851  0.69165222  0.61554796  1  0  -0.002452  0  3.721424  0  0  -0.020001  0  3.970918  0  0  -0.016984  0  3.990128  0  -0.024279  0  -0.067235  -0.021665  0  3.957737  0
C  C88  1  0.10521854  0.58328003  0.11080525  1  0  -0.104928  0  3.694455  0  0  -0.120604  0  3.951766  0  0  -0.126876  0  3.973143  0  -0.021844  0  -0.082689  -0.116609  0  3.937453  0
C  C89  1  0.52206515  0.41676965  0.38913829  1  0  -0.103207  0  3.69323  0  0  -0.118684  0  3.95053  0  0  -0.124955  0  3.971939  0  -0.06558  0  -0.082003  -0.114689  0  3.936195  0
C  C90  1  0.89478232  0.41672197  0.88919463  1  0  -0.104912  0  3.694463  0  0  -0.120586  0  3.951796  0  0  -0.126859  0  3.973168  0  -0.021853  0  -0.082715  -0.116592  0  3.937487  0
C  C91  1  0.47793345  0.58323234  0.61086284  1  0  -0.103309  0  3.693342  0  0  -0.118792  0  3.950623  0  0  -0.125064  0  3.972033  0  -0.065812  0  -0.082041  -0.114797  0  3.936286  0
C  C92  1  0.20239505  0.54628946  0.04895299  1  0  0.140508  0  3.685771  0  0  0.107979  0  3.942739  0  0  0.11457  0  3.960892  0  0.487644  0  0.04967  0.103762  0  3.930383  0
C  C93  1  0.65616693  0.45372375  0.45103563  1  0  0.139933  0  3.687001  0  0  0.106385  0  3.943763  0  0  0.112866  0  3.961954  0  0.520558  0  0.050008  0.10222  0  3.93141  0
C  C94  1  0.79760507  0.45370879  0.95104668  1  0  0.140457  0  3.685853  0  0  0.107898  0  3.942864  0  0  0.114487  0  3.961019  0  0.487648  0  0.049627  0.103681  0  3.930506  0
C  C95  1  0.34383214  0.54627918  0.54896634  1  0  0.139979  0  3.68698  0  0  0.106464  0  3.943728  0  0  0.11295  0  3.961919  0  0.520598  0  0.05003  0.1023  0  3.931374  0
N  N96  1  0.25898444  0.47338554  0.78336874  1  0  -0.328547  0  3.163957  0  0  -0.274327  0  3.463935  0  0  -0.289888  0  3.477499  0  -0.735846  0  -0.230845  -0.263764  0  3.454645  0
N  N97  1  0.78564882  0.52665292  0.71660172  1  0  -0.327841  0  3.162307  0  0  -0.273365  0  3.462545  0  0  -0.288922  0  3.476128  0  -0.761184  0  -0.23088  -0.262824  0  3.453252  0
N  N98  1  0.74101662  0.52661459  0.21663072  1  0  -0.328551  0  3.163945  0  0  -0.274336  0  3.463921  0  0  -0.2899  0  3.477484  0  -0.735778  0  -0.230827  -0.263773  0  3.454631  0
N  N99  1  0.21435176  0.47334626  0.28339879  1  0  -0.32792  0  3.162328  0  0  -0.27345  0  3.462583  0  0  -0.289008  0  3.476166  0  -0.761204  0  -0.230913  -0.262909  0  3.453291  0
N  N100  1  0.16594014  0.52009151  0.75002260  1  0  -0.075305  0  2.952841  0  0  -0.074478  0  3.24537  0  0  -0.071563  0  3.257787  0  -0.138451  0  -0.098103  -0.076088  0  3.236883  0
N  N101  1  0.64591455  0.47997032  0.74996434  1  0  -0.075951  0  2.954524  0  0  -0.07498  0  3.246882  0  0  -0.072063  0  3.259284  0  -0.119339  0  -0.097822  -0.076589  0  3.238401  0
N  N102  1  0.83405978  0.47990861  0.24997686  1  0  -0.075353  0  2.952826  0  0  -0.074535  0  3.245366  0  0  -0.071623  0  3.257786  0  -0.138431  0  -0.098141  -0.076146  0  3.236878  0
N  N103  1  0.35408557  0.52002793  0.25003533  1  0  -0.075888  0  2.954365  0  0  -0.074922  0  3.246734  0  0  -0.072005  0  3.259136  0  -0.119307  0  -0.097792  -0.076531  0  3.238255  0
N  N104  1  0.07482062  0.43172522  0.67848222  1  0  -0.117168  0  3.224202  0  0  -0.058942  0  3.53163  0  0  -0.066823  0  3.544388  0  -0.230775  0  -0.112016  -0.053467  0  3.522869  0
N  N105  1  0.64322406  0.56834130  0.82151828  1  0  -0.116992  0  3.228384  0  0  -0.058995  0  3.53601  0  0  -0.066876  0  3.548757  0  -0.232774  0  -0.112479  -0.053518  0  3.527255  0
N  N106  1  0.92517884  0.56827397  0.32151766  1  0  -0.117136  0  3.224154  0  0  -0.058904  0  3.531576  0  0  -0.066785  0  3.544338  0  -0.23088  0  -0.111992  -0.05343  0  3.522816  0
N  N107  1  0.35677446  0.43165602  0.17848118  1  0  -0.11696  0  3.228288  0  0  -0.058943  0  3.5359  0  0  -0.066825  0  3.548648  0  -0.232958  0  -0.112441  -0.053467  0  3.527147  0
N  N108  1  0.10552454  0.32680719  0.66345986  1  0  -0.312263  0  2.905074  0  0  -0.30431  0  3.182264  0  0  -0.311865  0  3.193605  0  -0.683551  0  -0.235746  -0.29915  0  3.174597  0
N  N109  1  0.77887386  0.67323782  0.83653021  1  0  -0.311739  0  2.908027  0  0  -0.303489  0  3.185246  0  0  -0.311054  0  3.196618  0  -0.680057  0  -0.235113  -0.298332  0  3.177549  0
N  N110  1  0.89447539  0.67319294  0.33654023  1  0  -0.312266  0  2.905029  0  0  -0.304323  0  3.18221  0  0  -0.31188  0  3.193551  0  -0.683523  0  -0.235733  -0.299162  0  3.174542  0
N  N111  1  0.22112466  0.32675950  0.16346988  1  0  -0.311788  0  2.908007  0  0  -0.303545  0  3.18523  0  0  -0.311109  0  3.196602  0  -0.679884  0  -0.235163  -0.298388  0  3.177533  0
N  N112  1  0.38270855  0.37941628  0.90602080  1  0  -0.324036  0  3.135738  0  0  -0.266954  0  3.423879  0  0  -0.282541  0  3.437724  0  -0.764125  0  -0.23993  -0.256506  0  3.414542  0
N  N113  1  0.00332543  0.62054550  0.59393443  1  0  -0.32278  0  3.135516  0  0  -0.266327  0  3.423367  0  0  -0.281913  0  3.437224  0  -0.746328  0  -0.239847  -0.255878  0  3.414029  0
N  N114  1  0.61729025  0.62058384  0.09397866  1  0  -0.324011  0  3.135795  0  0  -0.266959  0  3.423914  0  0  -0.282546  0  3.437759  0  -0.76415  0  -0.239944  -0.256511  0  3.414578  0
N  N115  1  0.99667403  0.37945368  0.40606545  1  0  -0.322642  0  3.13541  0  0  -0.266198  0  3.423245  0  0  -0.281777  0  3.437107  0  -0.746303  0  -0.239794  -0.255749  0  3.413908  0
N  N116  1  0.38188409  0.34023577  0.97723964  1  0  -0.105529  0  3.174277  0  0  -0.057818  0  3.473622  0  0  -0.064143  0  3.486279  0  -0.260285  0  -0.112623  -0.053461  0  3.465034  0
N  N117  1  0.04164622  0.65973162  0.52271747  1  0  -0.105771  0  3.176214  0  0  -0.058418  0  3.476341  0  0  -0.064761  0  3.489021  0  -0.163851  0  -0.112704  -0.054059  0  3.467751  0
N  N118  1  0.61811584  0.65976435  0.02275982  1  0  -0.105544  0  3.1743  0  0  -0.057829  0  3.473639  0  0  -0.064154  0  3.486296  0  -0.260314  0  -0.112644  -0.053472  0  3.465052  0
N  N119  1  0.95835370  0.34026850  0.47728325  1  0  -0.10586  0  3.176171  0  0  -0.058496  0  3.476286  0  0  -0.064838  0  3.488961  0  -0.16389  0  -0.112737  -0.054136  0  3.467694  0
N  N120  1  0.31608755  0.21711000  0.95232112  1  0  -0.073494  0  2.958965  0  0  -0.080609  0  3.266078  0  0  -0.076655  0  3.274534  0  -0.059489  0  -0.107569  -0.082875  0  3.26022  0
N  N121  1  0.09902753  0.78286021  0.54764537  1  0  -0.073402  0  2.960959  0  0  -0.080356  0  3.268029  0  0  -0.076427  0  3.276565  0  -0.157661  0  -0.107544  -0.0826  0  3.262112  0
N  N122  1  0.68391304  0.78288919  0.04767813  1  0  -0.073532  0  2.958985  0  0  -0.080656  0  3.26611  0  0  -0.076701  0  3.274565  0  -0.059502  0  -0.107599  -0.082923  0  3.260253  0
N  N123  1  0.90097353  0.21713992  0.45235597  1  0  -0.073449  0  2.960988  0  0  -0.080409  0  3.268062  0  0  -0.076479  0  3.276596  0  -0.157612  0  -0.1076  -0.082652  0  3.262144  0
N  N124  1  0.27174175  0.17266222  0.86471078  1  0  -0.338866  0  2.935112  0  0  -0.318872  0  3.224355  0  0  -0.328688  0  3.232905  0  -0.680646  0  -0.238775  -0.312247  0  3.218469  0
N  N125  1  0.09919795  0.82730424  0.63525801  1  0  -0.338466  0  2.935445  0  0  -0.318845  0  3.223984  0  0  -0.328688  0  3.232586  0  -0.68862  0  -0.239085  -0.312204  0  3.218059  0
N  N126  1  0.72825930  0.82733790  0.13528868  1  0  -0.338814  0  2.935133  0  0  -0.318852  0  3.224357  0  0  -0.328667  0  3.232906  0  -0.680637  0  -0.238757  -0.312226  0  3.21847  0
N  N127  1  0.90080424  0.17269588  0.36474271  1  0  -0.338456  0  2.935446  0  0  -0.318836  0  3.223978  0  0  -0.328672  0  3.232584  0  -0.688671  0  -0.239084  -0.312194  0  3.218052  0
N  N128  1  0.43869058  0.73947093  0.89202258  1  0  -0.314311  0  3.275664  0  0  -0.2429  0  3.53964  0  0  -0.259662  0  3.554843  0  -1.227235  0  -0.309032  -0.231631  0  3.529281  0
N  N129  1  0.69901000  0.26041979  0.60788175  1  0  -0.313362  0  3.273119  0  0  -0.241153  0  3.536508  0  0  -0.257908  0  3.551674  0  -1.224793  0  -0.308973  -0.22987  0  3.526185  0
N  N130  1  0.56131067  0.26052732  0.10797647  1  0  -0.314228  0  3.275663  0  0  -0.242813  0  3.539643  0  0  -0.259571  0  3.554845  0  -1.227722  0  -0.30898  -0.231544  0  3.529283  0
N  N131  1  0.30099152  0.73958127  0.39211855  1  0  -0.3135  0  3.273267  0  0  -0.241224  0  3.536555  0  0  -0.257979  0  3.551721  0  -1.22478  0  -0.308993  -0.229948  0  3.526208  0
N  N132  1  0.27314110  0.61158002  0.99516958  1  0  -0.3276  0  3.24588  0  0  -0.255432  0  3.500072  0  0  -0.272807  0  3.518675  0  -1.223602  0  -0.309481  -0.243658  0  3.487339  0
N  N133  1  0.66148513  0.38837522  0.50480297  1  0  -0.329064  0  3.245264  0  0  -0.255988  0  3.499496  0  0  -0.273352  0  3.51804  0  -1.227668  0  -0.31034  -0.244202  0  3.486754  0
N  N134  1  0.72685995  0.38842010  0.00483051  1  0  -0.327607  0  3.245716  0  0  -0.255496  0  3.499991  0  0  -0.272872  0  3.5186  0  -1.223567  0  -0.309517  -0.243721  0  3.48726  0
N  N135  1  0.33851235  0.61162678  0.49520004  1  0  -0.328993  0  3.245155  0  0  -0.255918  0  3.499337  0  0  -0.273279  0  3.517877  0  -1.227666  0  -0.310367  -0.244131  0  3.48659  0
