# generated using pymatgen
data_Zn4H44C50N2O13
_symmetry_space_group_name_H-M   'P 1'
_cell_length_a   13.73016063
_cell_length_b   13.72190731
_cell_length_c   24.55958997
_cell_angle_alpha   89.99970413
_cell_angle_beta   90.00038986
_cell_angle_gamma   90.01773427
_symmetry_Int_Tables_number   1
_chemical_formula_structural   Zn4H44C50N2O13
_chemical_formula_sum   'Zn8 H88 C100 N4 O26'
_cell_volume   4627.12455618
_cell_formula_units_Z   2
loop_
 _symmetry_equiv_pos_site_id
 _symmetry_equiv_pos_as_xyz
  1  'x, y, z'
loop_
 _atom_site_type_symbol
 _atom_site_label
 _atom_site_symmetry_multiplicity
 _atom_site_fract_x
 _atom_site_fract_y
 _atom_site_fract_z
 _atom_site_occupancy
 _atom_site_pbe_bader_charge
 _atom_site_pbe_bader_spin_density
 _atom_site_pbe_cm5_charge
 _atom_site_pbe_ddec_charge
 _atom_site_pbe_ddec_spin_density
 _atom_site_pbe_ddec_sum_bond_order
 _atom_site_pbe_magmom
Zn  Zn0  1  0.25813329  0.13305756  0.70378567  1  1.317046  0  0.673332  0.964098  0  2.375234  0
Zn  Zn1  1  0.24196283  0.36695840  0.70379303  1  1.31704  0  0.673335  0.964174  0  2.375194  0
Zn  Zn2  1  0.86665623  0.75876389  0.20360738  1  1.316498  0  0.673473  0.964684  0  2.378921  0
Zn  Zn3  1  0.63330592  0.74121563  0.20360737  1  1.316142  0  0.673404  0.964633  0  2.378636  0
Zn  Zn4  1  0.74177110  0.86675099  0.29554541  1  1.316916  0  0.673714  0.964972  0  2.376495  0
Zn  Zn5  1  0.75821547  0.63324226  0.29554578  1  1.317014  0  0.673703  0.964847  0  2.376558  0
Zn  Zn6  1  0.13309830  0.24222013  0.79550993  1  1.316526  0  0.673199  0.963575  0  2.377363  0
Zn  Zn7  1  0.36702150  0.25777094  0.79550343  1  1.317453  0  0.673278  0.964014  0  2.376871  0
H  H8  1  0.87129335  0.08603478  0.77436788  1  0.093835  0  0.109462  0.115638  0  0.988979  0
H  H9  1  0.62882690  0.41396478  0.77434211  1  0.09396  0  0.109601  0.11566  0  0.988957  0
H  H10  1  0.91325469  0.37210951  0.27344144  1  0.09942  0  0.109745  0.116021  0  0.989796  0
H  H11  1  0.58665115  0.12781012  0.27349654  1  0.100163  0  0.109888  0.116303  0  0.989729  0
H  H12  1  0.12779337  0.91530478  0.22433085  1  0.081304  0  0.109849  0.115647  0  0.988683  0
H  H13  1  0.37221568  0.58466263  0.22431265  1  0.081817  0  0.109951  0.115724  0  0.988654  0
H  H14  1  0.08717955  0.63001221  0.72564289  1  0.088301  0  0.109886  0.115463  0  0.988909  0
H  H15  1  0.41290188  0.87000449  0.72562362  1  0.088452  0  0.109949  0.115623  0  0.989137  0
H  H16  1  0.72895233  0.98370952  0.74739030  1  0.082804  0  0.099245  0.103087  0  1.019853  0
H  H17  1  0.77117375  0.51626937  0.74735644  1  0.082708  0  0.099176  0.103144  0  1.019646  0
H  H18  1  0.01548550  0.22958523  0.24670577  1  0.092701  0  0.099501  0.103653  0  1.018853  0
H  H19  1  0.48445501  0.27036207  0.24675995  1  0.092961  0  0.099407  0.103631  0  1.019042  0
H  H20  1  0.27041472  0.01718262  0.25140208  1  0.053886  0  0.099288  0.103042  0  1.021034  0
H  H21  1  0.22956082  0.48282658  0.25137446  1  0.092071  0  0.099403  0.103179  0  1.020903  0
H  H22  1  0.98445704  0.77202920  0.75257766  1  0.073722  0  0.099248  0.103156  0  1.020541  0
H  H23  1  0.51556932  0.72795181  0.75257032  1  0.073343  0  0.099195  0.10316  0  1.020609  0
H  H24  1  0.91074641  0.82902354  0.63335110  1  0.080551  0  0.10633  0.111063  0  1.006249  0
H  H25  1  0.58934334  0.67101178  0.63335601  1  0.080131  0  0.10651  0.111362  0  1.006171  0
H  H26  1  0.17133268  0.41139292  0.13310660  1  0.07194  0  0.106621  0.111638  0  1.005775  0
H  H27  1  0.32861083  0.08860135  0.13312813  1  0.071631  0  0.106702  0.11174  0  1.005771  0
H  H28  1  0.08953815  0.17068232  0.36636883  1  0.090065  0  0.106423  0.111207  0  1.006788  0
H  H29  1  0.41034920  0.32936954  0.36640626  1  0.089238  0  0.106602  0.111239  0  1.006665  0
H  H30  1  0.83003362  0.58949880  0.86643946  1  0.070055  0  0.106297  0.110911  0  1.007152  0
H  H31  1  0.67005166  0.91044545  0.86642485  1  0.0701  0  0.106365  0.110748  0  1.007247  0
H  H32  1  0.05191463  0.93238849  0.66024675  1  0.08715  0  0.109792  0.114521  0  1.00158  0
H  H33  1  0.44816892  0.56765869  0.66026024  1  0.08794  0  0.109796  0.114517  0  1.001449  0
H  H34  1  0.06794224  0.55275874  0.15972228  1  0.127239  0  0.109963  0.114738  0  1.001837  0
H  H35  1  0.43195314  0.94720924  0.15975457  1  0.126122  0  0.109897  0.114601  0  1.001855  0
H  H36  1  0.94815730  0.06754251  0.33953058  1  0.090188  0  0.109414  0.114153  0  1.002011  0
H  H37  1  0.55175300  0.43247197  0.33957898  1  0.090087  0  0.109408  0.114084  0  1.002275  0
H  H38  1  0.93380141  0.44857685  0.83954609  1  0.095422  0  0.110668  0.11678  0  0.996263  0
H  H39  1  0.56632035  0.05139223  0.83953009  1  0.096097  0  0.110448  0.116635  0  0.996312  0
H  H40  1  0.67117083  0.87959961  0.64961183  1  0.081738  0  0.12029  0.110859  0  0.958902  0
H  H41  1  0.82894752  0.62040496  0.64960844  1  0.08023  0  0.120193  0.110782  0  0.95939  0
H  H42  1  0.12020740  0.17152541  0.14957048  1  0.063023  0  0.12031  0.110794  0  0.958003  0
H  H43  1  0.37978510  0.32846725  0.14960617  1  0.062786  0  0.120288  0.11077  0  0.95781  0
H  H44  1  0.32875908  0.12037656  0.34958732  1  0.064887  0  0.120532  0.110997  0  0.957905  0
H  H45  1  0.17115575  0.37968565  0.34958338  1  0.064143  0  0.120663  0.11126  0  0.957582  0
H  H46  1  0.87903590  0.82978064  0.84960302  1  0.098541  0  0.120139  0.110454  0  0.959385  0
H  H47  1  0.62096615  0.67016813  0.84959136  1  0.09892  0  0.120125  0.110536  0  0.959267  0
H  H48  1  0.68505079  0.81329291  0.70990042  1  0.064755  0  0.10718  0.085936  0  1.024925  0
H  H49  1  0.81505444  0.68669579  0.70990207  1  0.059316  0  0.107145  0.085846  0  1.025135  0
H  H50  1  0.18608176  0.18583655  0.20996450  1  0.069218  0  0.107121  0.086012  0  1.026414  0
H  H51  1  0.31385904  0.31414097  0.20998411  1  0.069149  0  0.107093  0.086007  0  1.026333  0
H  H52  1  0.31483615  0.18670366  0.28931461  1  0.057657  0  0.106982  0.085459  0  1.025415  0
H  H53  1  0.18507067  0.31336057  0.28930970  1  0.058623  0  0.106966  0.08574  0  1.025249  0
H  H54  1  0.81321239  0.81455856  0.78927129  1  0.057911  0  0.106874  0.085969  0  1.026354  0
H  H55  1  0.68680786  0.68538202  0.78926716  1  0.058191  0  0.106869  0.086084  0  1.026227  0
H  H56  1  0.72036863  0.90808979  0.56788658  1  0.076264  0  0.100356  0.128919  0  1.024736  0
H  H57  1  0.77976693  0.59190752  0.56789489  1  0.075821  0  0.100276  0.128966  0  1.024546  0
H  H58  1  0.09099574  0.22613686  0.06796189  1  0.108004  0  0.100482  0.129138  0  1.02539  0
H  H59  1  0.40905403  0.27384855  0.06799256  1  0.107435  0  0.100431  0.128968  0  1.025232  0
H  H60  1  0.27891816  0.09179883  0.43131867  1  0.078421  0  0.100303  0.128567  0  1.02528  0
H  H61  1  0.22096999  0.40824077  0.43132951  1  0.078484  0  0.100211  0.128572  0  1.025548  0
H  H62  1  0.90774956  0.78095767  0.93135817  1  0.074664  0  0.100005  0.128621  0  1.024623  0
H  H63  1  0.59224767  0.71903188  0.93135725  1  0.07455  0  0.099995  0.128624  0  1.024722  0
H  H64  1  0.73335386  0.99267173  0.44435673  1  0.083226  0  0.078704  0.159923  0  1.045082  0
H  H65  1  0.76678018  0.50725312  0.44435098  1  0.08286  0  0.078537  0.159495  0  1.045436  0
H  H66  1  0.01926602  0.27106730  0.95307745  1  0.08018  0  0.076655  0.155881  0  1.058579  0
H  H67  1  0.48081489  0.22877291  0.95314842  1  0.080854  0  0.076767  0.155913  0  1.058492  0
H  H68  1  0.26639174  0.00702894  0.55586075  1  0.088288  0  0.07911  0.160507  0  1.044769  0
H  H69  1  0.23355181  0.49298619  0.55586325  1  0.087793  0  0.079021  0.160435  0  1.045083  0
H  H70  1  0.00059178  0.76263944  0.05762934  1  0.036105  0  0.07955  0.161126  0  1.040878  0
H  H71  1  0.49933152  0.73756124  0.05764906  1  0.038247  0  0.079503  0.161184  0  1.040593  0
H  H72  1  0.77322094  0.08209915  0.39653892  1  0.020614  0  0.078546  0.150106  0  1.028684  0
H  H73  1  0.72635358  0.41799054  0.39658965  1  0.021959  0  0.078612  0.150258  0  1.02813  0
H  H74  1  0.92826698  0.25854162  0.90172533  1  0.015177  0  0.079116  0.151401  0  1.02489  0
H  H75  1  0.57174412  0.24155585  0.90177720  1  0.016036  0  0.079181  0.151541  0  1.02445  0
H  H76  1  0.22677154  0.91743539  0.60366798  1  0.016219  0  0.078593  0.150544  0  1.028518  0
H  H77  1  0.27317002  0.58258023  0.60367018  1  0.016164  0  0.078621  0.150493  0  1.028442  0
H  H78  1  0.09417406  0.72772125  0.10420038  1  0.002546  0  0.078838  0.149666  0  1.028465  0
H  H79  1  0.40565217  0.77217363  0.10423389  1  0.001838  0  0.078803  0.149793  0  1.028316  0
H  H80  1  0.83490398  0.06924430  0.46038418  1  0.01616  0  0.079514  0.148452  0  1.025346  0
H  H81  1  0.66486584  0.43123326  0.46047006  1  0.014746  0  0.07965  0.148787  0  1.025189  0
H  H82  1  0.90218356  0.32700009  0.96216878  1  0.050503  0  0.078533  0.145999  0  1.028338  0
H  H83  1  0.59800816  0.17302689  0.96217290  1  0.050043  0  0.078431  0.145849  0  1.028223  0
H  H84  1  0.16484162  0.93036964  0.53988665  1  0.01588  0  0.079419  0.148686  0  1.024954  0
H  H85  1  0.33508315  0.56966625  0.53988017  1  0.016674  0  0.079244  0.148458  0  1.025175  0
H  H86  1  0.08144669  0.66488647  0.04068066  1  0.018257  0  0.079875  0.148829  0  1.025625  0
H  H87  1  0.41822948  0.83513359  0.04074213  1  0.018007  0  0.080136  0.148966  0  1.025469  0
H  H88  1  0.71487242  0.11991913  0.45818881  1  0.02026  0  0.079411  0.147666  0  1.028055  0
H  H89  1  0.78463289  0.37992512  0.45821299  1  0.02358  0  0.079339  0.147707  0  1.027722  0
H  H90  1  0.91408179  0.19725173  0.96550210  1  0.032737  0  0.080146  0.149455  0  1.023988  0
H  H91  1  0.58588054  0.30274676  0.96558480  1  0.033454  0  0.079979  0.149156  0  1.023756  0
H  H92  1  0.28495112  0.87980196  0.54192485  1  0.020418  0  0.079281  0.147649  0  1.028046  0
H  H93  1  0.21496202  0.62020694  0.54193446  1  0.019808  0  0.079264  0.147607  0  1.02799  0
H  H94  1  0.12596623  0.78743536  0.04193385  1  0.036599  0  0.079914  0.148771  0  1.026901  0
H  H95  1  0.37402529  0.71246887  0.04193605  1  0.0363  0  0.07979  0.148585  0  1.027222  0
C  C96  1  0.05563182  0.07646761  0.73434450  1  1.558798  0  0.225299  0.602503  0  4.174551  0
C  C97  1  0.44446904  0.42355754  0.73434922  1  1.559112  0  0.225479  0.602955  0  4.173893  0
C  C98  1  0.92370384  0.55649239  0.23374468  1  1.553054  0  0.226589  0.603334  0  4.176705  0
C  C99  1  0.57618438  0.94343874  0.23378459  1  1.552493  0  0.226978  0.604113  0  4.176257  0
C  C100  1  0.94395880  0.92420010  0.26498983  1  1.566876  0  0.226357  0.604344  0  4.174288  0
C  C101  1  0.55602740  0.57577813  0.26500791  1  1.567703  0  0.226546  0.604454  0  4.173724  0
C  C102  1  0.07712288  0.44504784  0.76518655  1  1.548547  0  0.226128  0.60359  0  4.17494  0
C  C103  1  0.42301040  0.05495444  0.76516456  1  1.548983  0  0.226381  0.603798  0  4.174837  0
C  C104  1  0.97029392  0.01470240  0.71923533  1  0.019959  0  -0.022231  -0.052564  0  3.99125  0
C  C105  1  0.52981400  0.48532099  0.71923219  1  0.020828  0  -0.02238  -0.052867  0  3.991403  0
C  C106  1  0.98523388  0.47110423  0.21854882  1  0.022176  0  -0.022557  -0.05105  0  3.989758  0
C  C107  1  0.51466693  0.02884433  0.21859091  1  0.023926  0  -0.02244  -0.050978  0  3.989187  0
C  C108  1  0.02929742  0.98597551  0.28001390  1  -0.055684  0  -0.021949  -0.052551  0  3.991425  0
C  C109  1  0.47067007  0.51402270  0.28002926  1  -0.054718  0  -0.022034  -0.053161  0  3.991872  0
C  C110  1  0.01581135  0.53053733  0.78057867  1  0.000287  0  -0.022002  -0.052236  0  3.990486  0
C  C111  1  0.48430716  0.96945773  0.78055775  1  0.001369  0  -0.02221  -0.052273  0  3.990566  0
C  C112  1  0.87899515  0.02938145  0.74356250  1  -0.072146  0  -0.079464  -0.080732  0  3.971811  0
C  C113  1  0.62112326  0.47061839  0.74353898  1  -0.071345  0  -0.07901  -0.079852  0  3.971758  0
C  C114  1  0.97011737  0.37974859  0.24277938  1  -0.056214  0  -0.079202  -0.080202  0  3.972067  0
C  C115  1  0.52980267  0.12019100  0.24282492  1  -0.059776  0  -0.079362  -0.080994  0  3.972705  0
C  C116  1  0.12036972  0.97155077  0.25538176  1  -0.00421  0  -0.0795  -0.079308  0  3.971659  0
C  C117  1  0.37961276  0.52843675  0.25537841  1  -0.005359  0  -0.079544  -0.079071  0  3.97222  0
C  C118  1  0.03049089  0.62202117  0.75639005  1  -0.013466  0  -0.08002  -0.079774  0  3.971533  0
C  C119  1  0.46959164  0.87797557  0.75636771  1  -0.012221  0  -0.079839  -0.079806  0  3.972089  0
C  C120  1  0.79983744  0.97216606  0.72822971  1  -0.063167  0  -0.093678  -0.144903  0  3.989551  0
C  C121  1  0.70028841  0.52781956  0.72820206  1  -0.065849  0  -0.094095  -0.145689  0  3.989937  0
C  C122  1  0.02730103  0.30051315  0.22758445  1  -0.076383  0  -0.094541  -0.147206  0  3.989617  0
C  C123  1  0.47263852  0.19944817  0.22762656  1  -0.075156  0  -0.094634  -0.147031  0  3.989773  0
C  C124  1  0.19967015  0.02848852  0.27075730  1  -0.047214  0  -0.095366  -0.147627  0  3.990898  0
C  C125  1  0.30029179  0.47152269  0.27074586  1  -0.085886  0  -0.095531  -0.148003  0  3.991537  0
C  C126  1  0.97302824  0.70103065  0.77167985  1  -0.078866  0  -0.094664  -0.147242  0  3.988002  0
C  C127  1  0.52702093  0.79894873  0.77166542  1  -0.077847  0  -0.09469  -0.147521  0  3.988635  0
C  C128  1  0.81073108  0.89912488  0.68866891  1  -0.079668  0  -0.008555  0.092671  0  3.96765  0
C  C129  1  0.68938409  0.60088297  0.68865486  1  -0.083545  0  -0.008114  0.093345  0  3.967235  0
C  C130  1  0.10069783  0.31142041  0.18826388  1  -0.081003  0  -0.008653  0.094165  0  3.966153  0
C  C131  1  0.39925508  0.18854930  0.18829842  1  -0.085118  0  -0.008523  0.094506  0  3.965705  0
C  C132  1  0.18907869  0.10110999  0.31057421  1  -0.070905  0  -0.008335  0.094441  0  3.966237  0
C  C133  1  0.31084586  0.39892927  0.31057686  1  -0.071156  0  -0.008306  0.094845  0  3.966787  0
C  C134  1  0.89977560  0.68980057  0.81107208  1  -0.078904  0  -0.007992  0.095555  0  3.962689  0
C  C135  1  0.60027624  0.81016532  0.81105586  1  -0.08113  0  -0.007923  0.095684  0  3.962016  0
C  C136  1  0.90185079  0.88509731  0.66438328  1  -0.031734  0  -0.092471  -0.143117  0  3.993696  0
C  C137  1  0.59825244  0.61493262  0.66438227  1  -0.030669  0  -0.09264  -0.14358  0  3.994189  0
C  C138  1  0.11501388  0.40256240  0.16397998  1  -0.017455  0  -0.092983  -0.143983  0  3.993748  0
C  C139  1  0.38492272  0.09741190  0.16400781  1  -0.012594  0  -0.093179  -0.144635  0  3.994169  0
C  C140  1  0.09815415  0.11496851  0.33511555  1  -0.051468  0  -0.092775  -0.144182  0  3.994222  0
C  C141  1  0.40175686  0.38506761  0.33513854  1  -0.050517  0  -0.0929  -0.144393  0  3.994216  0
C  C142  1  0.88605021  0.59859454  0.83541380  1  -0.004021  0  -0.092803  -0.144141  0  3.993481  0
C  C143  1  0.61402960  0.90136239  0.83540103  1  -0.005746  0  -0.09285  -0.143738  0  3.992882  0
C  C144  1  0.98102926  0.94247251  0.67937057  1  -0.011012  0  -0.078215  -0.078637  0  3.974192  0
C  C145  1  0.51906395  0.55756457  0.67937268  1  -0.010644  0  -0.078274  -0.078591  0  3.974236  0
C  C146  1  0.05765327  0.48182960  0.17881877  1  -0.07457  0  -0.078168  -0.079874  0  3.973787  0
C  C147  1  0.44225947  0.01813071  0.17885030  1  -0.07528  0  -0.078017  -0.079224  0  3.973435  0
C  C148  1  0.01886500  0.05775070  0.32015636  1  0.012816  0  -0.077742  -0.078181  0  3.975193  0
C  C149  1  0.48106549  0.44226661  0.32018600  1  0.013394  0  -0.077822  -0.077916  0  3.975058  0
C  C150  1  0.94367451  0.51956277  0.82045286  1  -0.054796  0  -0.078646  -0.079539  0  3.97423  0
C  C151  1  0.55643207  0.98040524  0.82043843  1  -0.053457  0  -0.078488  -0.079498  0  3.974349  0
C  C152  1  0.72423797  0.83650729  0.67299431  1  0.305385  0  -0.048586  -0.111241  0  3.927598  0
C  C153  1  0.77588138  0.66348831  0.67299140  1  0.313049  0  -0.048279  -0.110956  0  3.92729  0
C  C154  1  0.16324587  0.22477092  0.17291208  1  0.339628  0  -0.048411  -0.111221  0  3.929706  0
C  C155  1  0.33672652  0.27521205  0.17293554  1  0.338561  0  -0.048304  -0.111241  0  3.929325  0
C  C156  1  0.27568029  0.16351989  0.32623945  1  0.34525  0  -0.048215  -0.109218  0  3.926437  0
C  C157  1  0.22422843  0.33653379  0.32623422  1  0.344775  0  -0.048246  -0.109988  0  3.926862  0
C  C158  1  0.83648751  0.77601997  0.82637299  1  0.312606  0  -0.048075  -0.110347  0  3.926566  0
C  C159  1  0.66353100  0.72392245  0.82636459  1  0.310744  0  -0.048102  -0.110715  0  3.926072  0
C  C160  1  0.75008246  0.75000185  0.58681389  1  0.473315  0  0.120194  0.231784  0  4.044652  0
C  C161  1  0.25001808  0.24999116  0.08687127  1  0.469338  0  0.120559  0.233077  0  4.043698  0
C  C162  1  0.24993485  0.25002535  0.41242598  1  0.445013  0  0.120538  0.233209  0  4.044236  0
C  C163  1  0.75000068  0.74999377  0.91248627  1  0.347539  0  0.120255  0.233058  0  4.046517  0
C  C164  1  0.73290033  0.83441910  0.55319632  1  0.128092  0  -0.138795  -0.315059  0  4.081009  0
C  C165  1  0.76724816  0.66558564  0.55319785  1  0.128334  0  -0.138616  -0.31517  0  4.081869  0
C  C166  1  0.16508149  0.23573744  0.05327977  1  0.098016  0  -0.13752  -0.315045  0  4.078366  0
C  C167  1  0.33497248  0.26424301  0.05329553  1  0.097292  0  -0.137605  -0.315002  0  4.077953  0
C  C168  1  0.26671130  0.16551257  0.44604314  1  0.074831  0  -0.138296  -0.314494  0  4.081334  0
C  C169  1  0.23317557  0.33452324  0.44604731  1  0.075887  0  -0.138455  -0.314892  0  4.081859  0
C  C170  1  0.83424810  0.76778625  0.94609486  1  0.128892  0  -0.13831  -0.314284  0  4.082182  0
C  C171  1  0.66574202  0.73223012  0.94609459  1  0.128609  0  -0.138453  -0.314416  0  4.082008  0
C  C172  1  0.73831962  0.80724175  0.49977040  1  -0.272539  0  -0.018543  0.044998  0  3.867247  0
C  C173  1  0.76186682  0.69276786  0.49977916  1  -0.272438  0  -0.018188  0.045511  0  3.867678  0
C  C174  1  0.19257268  0.24016964  0.99987258  1  -0.286399  0  -0.017898  0.044843  0  3.87395  0
C  C175  1  0.30752922  0.25980788  0.99988132  1  -0.28786  0  -0.017681  0.045155  0  3.873344  0
C  C176  1  0.26145880  0.19277084  0.49946581  1  -0.262419  0  -0.018848  0.045629  0  3.86811  0
C  C177  1  0.23847387  0.30725210  0.49946763  1  -0.263897  0  -0.018728  0.046021  0  3.867935  0
C  C178  1  0.80719835  0.76220023  0.99952446  1  -0.266187  0  -0.019386  0.045122  0  3.863629  0
C  C179  1  0.69278442  0.73786666  0.99952712  1  -0.265904  0  -0.019086  0.045381  0  3.863261  0
C  C180  1  0.76396317  0.06600865  0.43996351  1  -0.142943  0  -0.337048  -0.607698  0  3.884272  0
C  C181  1  0.73578084  0.43407484  0.44000324  1  -0.14586  0  -0.336978  -0.607784  0  3.883619  0
C  C182  1  0.94092849  0.26365856  0.94570490  1  -0.182318  0  -0.338075  -0.606521  0  3.88652  0
C  C183  1  0.55913411  0.23632629  0.94575389  1  -0.184078  0  -0.337992  -0.606247  0  3.885586  0
C  C184  1  0.23586327  0.93364539  0.56023688  1  -0.143447  0  -0.337298  -0.608836  0  3.883937  0
C  C185  1  0.26406757  0.56637719  0.56023705  1  -0.14306  0  -0.337035  -0.608444  0  3.884241  0
C  C186  1  0.07551247  0.73576336  0.06101924  1  -0.095698  0  -0.336119  -0.608772  0  3.884412  0
C  C187  1  0.42434456  0.76424488  0.06104999  1  -0.096627  0  -0.336137  -0.608904  0  3.884157  0
C  C188  1  0.75007292  0.74999590  0.45503726  1  0.125802  0  -0.002533  -0.105003  0  4.105841  0
C  C189  1  0.25005541  0.24999662  0.95509261  1  0.156397  0  -0.002778  -0.10601  0  4.098576  0
C  C190  1  0.24996479  0.25001090  0.54424129  1  0.114298  0  -0.002692  -0.107297  0  4.106404  0
C  C191  1  0.74999323  0.75004589  0.04421607  1  0.112812  0  -0.003075  -0.106472  0  4.112706  0
C  C192  1  0.75005653  0.74999399  0.39521053  1  1.574233  0  0.229611  0.63518  0  4.206038  0
C  C193  1  0.25005650  0.24999034  0.89524674  1  1.568281  0  0.230635  0.636308  0  4.204668  0
C  C194  1  0.24998481  0.24999896  0.60409286  1  1.605178  0  0.230379  0.637471  0  4.20667  0
C  C195  1  0.75003000  0.75000626  0.10401919  1  1.605205  0  0.229072  0.636648  0  4.207911  0
N  N196  1  0.75006095  0.75000232  0.64204201  1  -1.245121  0  -0.281581  -0.066175  0  3.689904  0
N  N197  1  0.24999730  0.24999892  0.14207619  1  -1.285649  0  -0.282637  -0.06792  0  3.692399  0
N  N198  1  0.24993743  0.25002633  0.35720600  1  -1.179504  0  -0.282396  -0.070676  0  3.692785  0
N  N199  1  0.75000908  0.74995905  0.85726466  1  -1.17632  0  -0.282997  -0.071136  0  3.693728  0
O  O200  1  0.13475205  0.06026576  0.70870826  1  -1.179988  0  -0.314932  -0.549848  0  2.35263  0
O  O201  1  0.36534995  0.43975089  0.70871874  1  -1.179426  0  -0.315293  -0.550509  0  2.352818  0
O  O202  1  0.93992041  0.63570412  0.20814726  1  -1.177042  0  -0.315707  -0.550396  0  2.351453  0
O  O203  1  0.55994346  0.86421850  0.20819711  1  -1.176528  0  -0.315999  -0.550879  0  2.350971  0
O  O204  1  0.86506790  0.93977379  0.29098764  1  -1.178589  0  -0.315169  -0.551267  0  2.351593  0
O  O205  1  0.63488149  0.56025957  0.29104435  1  -1.178965  0  -0.315264  -0.551117  0  2.351303  0
O  O206  1  0.06048385  0.36565895  0.79053152  1  -1.180349  0  -0.315689  -0.551534  0  2.353959  0
O  O207  1  0.43966576  0.13434820  0.79049959  1  -1.18176  0  -0.316277  -0.551958  0  2.353482  0
O  O208  1  0.04252340  0.14057385  0.77141585  1  -1.172884  0  -0.315283  -0.544735  0  2.329729  0
O  O209  1  0.45758374  0.35944441  0.77142325  1  -1.172804  0  -0.315442  -0.545104  0  2.329074  0
O  O210  1  0.85980838  0.54330850  0.27089951  1  -1.172253  0  -0.315823  -0.545486  0  2.333311  0
O  O211  1  0.64010870  0.95662958  0.27092497  1  -1.171131  0  -0.315832  -0.545682  0  2.333678  0
O  O212  1  0.95687575  0.86061927  0.22763631  1  -1.179353  0  -0.315755  -0.545252  0  2.331282  0
O  O213  1  0.54313694  0.63930319  0.22761548  1  -1.179365  0  -0.31582  -0.545175  0  2.33109  0
O  O214  1  0.14115962  0.45818001  0.72810012  1  -1.160425  0  -0.315393  -0.544599  0  2.329618  0
O  O215  1  0.35894844  0.04182699  0.72808851  1  -1.160598  0  -0.315017  -0.544427  0  2.329867  0
O  O216  1  0.72623293  0.83005362  0.37233947  1  -1.164883  0  -0.309206  -0.541943  0  2.314483  0
O  O217  1  0.77388568  0.66994987  0.37232920  1  -1.165215  0  -0.309133  -0.542045  0  2.315472  0
O  O218  1  0.16943267  0.22825941  0.87241032  1  -1.16024  0  -0.309274  -0.540852  0  2.313102  0
O  O219  1  0.33067786  0.27171127  0.87241138  1  -1.159782  0  -0.309201  -0.54092  0  2.314007  0
O  O220  1  0.27319295  0.16975996  0.62695863  1  -1.162096  0  -0.309242  -0.542863  0  2.316432  0
O  O221  1  0.22681556  0.33022974  0.62697256  1  -1.163004  0  -0.309212  -0.542726  0  2.316404  0
O  O222  1  0.82998632  0.77413471  0.12685560  1  -1.161557  0  -0.309915  -0.543237  0  2.315483  0
O  O223  1  0.67008196  0.72587760  0.12686758  1  -1.161428  0  -0.309897  -0.543239  0  2.315566  0
O  O224  1  0.25004979  0.25000121  0.74968690  1  -1.235766  0  -0.572752  -1.031489  0  2.533374  0
O  O225  1  0.74998208  0.74999684  0.24957048  1  -1.237395  0  -0.573535  -1.033193  0  2.536771  0
