# generated using pymatgen
data_CoH16C20S3(N2O)4
_symmetry_space_group_name_H-M   'P 1'
_cell_length_a   11.06437865
_cell_length_b   11.06421753
_cell_length_c   12.47443653
_cell_angle_alpha   89.88543562
_cell_angle_beta   89.87750861
_cell_angle_gamma   72.13750550
_symmetry_Int_Tables_number   1
_chemical_formula_structural   CoH16C20S3(N2O)4
_chemical_formula_sum   'Co2 H32 C40 S6 N16 O8'
_cell_volume   1453.48597858
_cell_formula_units_Z   2
loop_
 _symmetry_equiv_pos_site_id
 _symmetry_equiv_pos_as_xyz
  1  'x, y, z'
loop_
 _atom_site_type_symbol
 _atom_site_label
 _atom_site_symmetry_multiplicity
 _atom_site_fract_x
 _atom_site_fract_y
 _atom_site_fract_z
 _atom_site_occupancy
 _atom_site_pbe_bader_charge
 _atom_site_pbe_bader_spin_density
 _atom_site_pbe_cm5_charge
 _atom_site_pbe_ddec_charge
 _atom_site_pbe_ddec_spin_density
 _atom_site_pbe_ddec_sum_bond_order
 _atom_site_pbe_magmom
Co  Co0  1  0.00000286  0.00000010  0.00000155  1  1.292523  2.612151  0.692366  0.857915  2.820807  2.581031  2.598
Co  Co1  1  0.99999553  0.00000419  0.50000119  1  1.292502  2.612058  0.691962  0.857731  2.820547  2.578459  2.598
H  H2  1  0.16209436  0.96871564  0.77275981  1  0.198941  0.000361  0.137227  0.112557  -0.000248  1.029313  0.0
H  H3  1  0.03135219  0.83785978  0.72729652  1  0.196225  0.000356  0.137006  0.112368  -0.000248  1.029469  0.0
H  H4  1  0.83790946  0.03128145  0.22723918  1  0.198903  0.000361  0.137188  0.112491  -0.000248  1.029312  0.0
H  H5  1  0.96864580  0.16214993  0.27270554  1  0.196387  0.000356  0.137048  0.112359  -0.000248  1.029526  0.0
H  H6  1  0.29567063  0.83913321  0.08225383  1  0.19254  0.000734  0.118263  0.129603  0.000198  1.039308  0.001
H  H7  1  0.16090337  0.70429525  0.41775931  1  0.19248  0.000733  0.118294  0.129683  0.000197  1.039099  0.001
H  H8  1  0.70433891  0.16085762  0.91774197  1  0.192387  0.000734  0.118297  0.129629  0.000198  1.039135  0.001
H  H9  1  0.83908232  0.29571533  0.58224297  1  0.192491  0.000733  0.118297  0.129622  0.000198  1.039082  0.001
H  H10  1  0.50039823  0.77516182  0.93993914  1  0.076038  0.000965  0.118631  0.118953  0.000402  1.019579  0.0
H  H11  1  0.22486839  0.49956383  0.56004491  1  0.075507  0.000964  0.11859  0.118939  0.000401  1.019366  0.0
H  H12  1  0.49960649  0.22482941  0.06005192  1  0.076071  0.000966  0.118644  0.118979  0.000402  1.0195  0.0
H  H13  1  0.77511914  0.50044615  0.43995415  1  0.075378  0.000964  0.118591  0.118904  0.000401  1.019481  0.0
H  H14  1  0.29796302  0.79683497  0.61956846  1  0.111202  -4.8e-05  0.109958  0.130828  -0.000104  1.046647  0.0
H  H15  1  0.20315371  0.70201526  0.88047318  1  0.111371  -4.8e-05  0.109901  0.130739  -0.000104  1.046727  0.0
H  H16  1  0.70203709  0.20315686  0.38042990  1  0.111073  -4.8e-05  0.109969  0.130817  -0.000104  1.046635  0.0
H  H17  1  0.79685100  0.29798888  0.11952966  1  0.111331  -4.8e-05  0.109891  0.130757  -0.000104  1.046743  0.0
H  H18  1  0.45826069  0.80463763  0.46616514  1  0.09484  -2.2e-05  0.117292  0.144307  -3e-05  0.978221  0.0
H  H19  1  0.19536307  0.54172961  0.03384971  1  0.094659  -2.2e-05  0.117373  0.144607  -3.1e-05  0.978052  0.0
H  H20  1  0.54173843  0.19535536  0.53383161  1  0.094797  -2.2e-05  0.1173  0.144364  -3e-05  0.978075  0.0
H  H21  1  0.80464165  0.45827178  0.96615078  1  0.094718  -2.2e-05  0.117384  0.144647  -3.1e-05  0.978001  0.0
H  H22  1  0.67505991  0.75276096  0.39216555  1  0.085595  0.000975  0.118454  0.114886  0.000403  1.024877  0.0
H  H23  1  0.24721743  0.32491365  0.10783591  1  0.085517  0.000976  0.118421  0.114765  0.000403  1.024813  0.0
H  H24  1  0.32493816  0.24723682  0.60782953  1  0.085702  0.000975  0.118436  0.114894  0.000403  1.024815  0.0
H  H25  1  0.75279108  0.67508570  0.89216375  1  0.08562  0.000976  0.118445  0.114811  0.000403  1.024796  0.0
H  H26  1  0.73828189  0.00479973  0.62828261  1  0.234155  0.000429  0.128628  0.112408  -0.000155  1.078495  0.0
H  H27  1  0.99519912  0.26168725  0.87170235  1  0.234379  0.00043  0.128583  0.112316  -0.000155  1.078718  0.0
H  H28  1  0.26171346  0.99519439  0.37171579  1  0.234624  0.000429  0.128628  0.112397  -0.000155  1.078532  0.0
H  H29  1  0.00479994  0.73831860  0.12830298  1  0.234431  0.00043  0.128557  0.112299  -0.000155  1.078774  0.0
H  H30  1  0.88701305  0.82630922  0.33679579  1  0.150153  0.000707  0.115446  0.112436  7.4e-05  1.039777  0.0
H  H31  1  0.17365604  0.11296113  0.16315489  1  0.150942  0.000708  0.115434  0.112523  7.5e-05  1.039633  0.0
H  H32  1  0.11298502  0.17369133  0.66320245  1  0.150197  0.000707  0.115418  0.112399  7.4e-05  1.039798  0.0
H  H33  1  0.82635343  0.88703888  0.83684634  1  0.150972  0.000708  0.115422  0.112526  7.5e-05  1.039643  0.0
C  C34  1  0.22394348  0.92376650  0.83828438  1  0.894727  -0.006573  0.14052  0.096305  -0.007887  3.875608  -0.004
C  C35  1  0.07626502  0.77602847  0.66174248  1  0.89572  -0.006555  0.140625  0.096527  -0.007868  3.875257  -0.004
C  C36  1  0.77605934  0.07623267  0.16171379  1  0.89441  -0.006575  0.140576  0.096421  -0.007887  3.875465  -0.004
C  C37  1  0.92372728  0.22398105  0.33825810  1  0.895708  -0.006558  0.14072  0.09672  -0.007871  3.875188  -0.004
C  C38  1  0.29816533  0.85433233  0.99620863  1  0.43628  -0.000957  0.002317  -0.014982  -0.001493  3.958971  -0.001
C  C39  1  0.14569122  0.70180679  0.50379670  1  0.436515  -0.000959  0.002305  -0.015061  -0.001493  3.958891  -0.001
C  C40  1  0.70184128  0.14566479  0.00378790  1  0.436286  -0.000957  0.002256  -0.014991  -0.001493  3.958863  -0.001
C  C41  1  0.85429721  0.29820191  0.49619756  1  0.437505  -0.000958  0.002378  -0.014849  -0.001492  3.959052  -0.001
C  C42  1  0.40038573  0.82410022  0.92778725  1  0.243671  0.003266  -0.010068  -0.120796  0.001631  3.927272  0.002
C  C43  1  0.17592977  0.59958679  0.57221299  1  0.244479  0.003262  -0.010046  -0.120958  0.001629  3.926786  0.002
C  C44  1  0.59961990  0.17589715  0.07220769  1  0.24377  0.003266  -0.010082  -0.120818  0.001631  3.927208  0.002
C  C45  1  0.82405792  0.40041780  0.42779017  1  0.244046  0.003263  -0.010102  -0.121013  0.001628  3.927063  0.002
C  C46  1  0.42042402  0.85524859  0.73043294  1  0.167208  0.000469  0.078409  0.059835  0.000127  4.051962  0.0
C  C47  1  0.14475584  0.57955057  0.76958047  1  0.167644  0.000468  0.078423  0.059531  0.000127  4.051881  0.0
C  C48  1  0.57957889  0.14474235  0.26956217  1  0.167222  0.000469  0.07836  0.059758  0.000128  4.051836  0.0
C  C49  1  0.85524128  0.42045579  0.23042248  1  0.167426  0.000468  0.078405  0.059522  0.000127  4.05197  0.0
C  C50  1  0.38451661  0.82148992  0.63252180  1  0.08287  -0.000467  -0.104004  -0.161997  -0.000603  4.025451  0.0
C  C51  1  0.17850064  0.61545936  0.86749519  1  0.082437  -0.000466  -0.103882  -0.161567  -0.000601  4.025489  0.0
C  C52  1  0.61548545  0.17849956  0.36747817  1  0.083332  -0.000468  -0.103999  -0.161959  -0.000603  4.025256  0.0
C  C53  1  0.82150024  0.38454401  0.13250374  1  0.082322  -0.000466  -0.103852  -0.16157  -0.000601  4.025313  0.0
C  C54  1  0.47093662  0.82636874  0.54966955  1  0.059929  -0.000311  -0.108187  -0.184127  -0.000461  4.02445  0.0
C  C55  1  0.17361739  0.52905705  0.95035098  1  0.06019  -0.000311  -0.108343  -0.184747  -0.00046  4.02449  0.0
C  C56  1  0.52906543  0.17361703  0.45032568  1  0.059934  -0.000311  -0.108148  -0.18413  -0.00046  4.024448  0.0
C  C57  1  0.82638632  0.47094824  0.04964946  1  0.060493  -0.000311  -0.108356  -0.184776  -0.00046  4.024467  0.0
C  C58  1  0.57103756  0.86344927  0.58687644  1  0.182926  0.000276  0.087351  0.078035  -4.6e-05  4.043823  0.0
C  C59  1  0.13652921  0.42894989  0.91313728  1  0.182729  0.000276  0.087388  0.07815  -4.6e-05  4.043886  0.0
C  C60  1  0.42896551  0.13653537  0.41312201  1  0.182837  0.000275  0.08734  0.077944  -4.6e-05  4.043965  0.0
C  C61  1  0.86347358  0.57105387  0.08686321  1  0.182709  0.000276  0.087364  0.078061  -4.6e-05  4.044093  0.0
C  C62  1  0.71973635  0.81520774  0.43125429  1  0.258477  0.003115  -0.011133  -0.123368  0.001567  3.937504  0.002
C  C63  1  0.18476199  0.28025844  0.06873840  1  0.259136  0.003116  -0.010921  -0.123007  0.001568  3.937133  0.002
C  C64  1  0.28026468  0.18478563  0.56874402  1  0.258489  0.003115  -0.011048  -0.123374  0.001567  3.937366  0.002
C  C65  1  0.81524460  0.71974422  0.93126284  1  0.259005  0.003117  -0.010978  -0.123118  0.001568  3.937378  0.002
C  C66  1  0.75158268  0.94624700  0.55601206  1  0.90329  -0.006545  0.135847  0.093641  -0.007907  3.856585  -0.004
C  C67  1  0.05374426  0.24840797  0.94397528  1  0.904077  -0.006552  0.135864  0.093613  -0.007913  3.856856  -0.004
C  C68  1  0.24841365  0.05374687  0.44398794  1  0.902488  -0.006546  0.13576  0.093556  -0.007908  3.856746  -0.004
C  C69  1  0.94625861  0.75159495  0.05602923  1  0.903876  -0.006553  0.135865  0.093537  -0.007915  3.856925  -0.004
C  C70  1  0.82240015  0.85388642  0.40424252  1  0.42935  -0.000368  -0.001931  -0.027937  -0.001165  4.007687  0.0
C  C71  1  0.14607449  0.17759778  0.09573912  1  0.428774  -0.000367  -0.001954  -0.028103  -0.001166  4.007385  0.0
C  C72  1  0.17759898  0.14611027  0.59575817  1  0.429334  -0.000367  -0.001882  -0.027811  -0.001164  4.007584  0.0
C  C73  1  0.85393214  0.82240214  0.90426136  1  0.428461  -0.000365  -0.001909  -0.028075  -0.001166  4.007419  0.0
S  S74  1  0.56071309  0.89454406  0.72347437  1  0.245251  -0.000203  0.106214  0.086636  -0.000503  2.765549  0.0
S  S75  1  0.10543438  0.43927047  0.77654277  1  0.245252  -0.000203  0.106233  0.086667  -0.000502  2.765546  0.0
S  S76  1  0.43929184  0.10544183  0.27652321  1  0.2449  -0.000203  0.106192  0.08665  -0.000503  2.765482  0.0
S  S77  1  0.89456653  0.56073293  0.22345776  1  0.245027  -0.000203  0.106204  0.086645  -0.000503  2.765674  0.0
S  S78  1  0.12250613  0.87750249  0.24994559  1  3.794357  0.010518  0.552175  1.413027  0.010581  6.426777  0.017
S  S79  1  0.87749196  0.12250178  0.75005739  1  3.793859  0.010519  0.552068  1.412856  0.010581  6.427002  0.017
N  N80  1  0.18914939  0.91524248  0.93914273  1  -1.186264  0.051433  -0.340035  -0.290245  0.027444  3.571482  0.046
N  N81  1  0.08477693  0.81083184  0.56088098  1  -1.185261  0.051377  -0.339995  -0.290526  0.027408  3.571174  0.046
N  N82  1  0.81085627  0.08475677  0.06085538  1  -1.186027  0.051438  -0.340015  -0.290324  0.027446  3.571512  0.046
N  N83  1  0.91521446  0.18917616  0.43912044  1  -1.185851  0.051371  -0.340118  -0.290715  0.027405  3.571202  0.046
N  N84  1  0.35256099  0.86814578  0.82712716  1  -1.252983  0.000676  -0.232856  0.015139  -0.000207  3.859658  0.001
N  N85  1  0.13188776  0.64740327  0.67288365  1  -1.253168  0.00068  -0.232705  0.01566  -0.000206  3.85901  0.001
N  N86  1  0.64744280  0.13185037  0.17286945  1  -1.25275  0.000676  -0.232804  0.015216  -0.000208  3.859401  0.001
N  N87  1  0.86810358  0.35260744  0.32711692  1  -1.252736  0.000678  -0.232719  0.0156  -0.000206  3.859195  0.001
N  N88  1  0.67552045  0.87390982  0.52843836  1  -1.264308  0.001111  -0.231782  0.018588  0.000112  3.856966  0.001
N  N89  1  0.12607760  0.32447202  0.97155727  1  -1.264431  0.001114  -0.231934  0.018527  0.000113  3.857113  0.001
N  N90  1  0.32448060  0.12608172  0.47155919  1  -1.264194  0.001111  -0.231823  0.018642  0.000112  3.857052  0.001
N  N91  1  0.87392523  0.67553085  0.02844484  1  -1.264562  0.001113  -0.231888  0.018717  0.000112  3.857225  0.001
N  N92  1  0.84065758  0.93516651  0.48227139  1  -1.193838  0.053685  -0.344044  -0.281358  0.0289  3.58561  0.046
N  N93  1  0.06480304  0.15935630  0.01771126  1  -1.195605  0.053736  -0.344209  -0.281461  0.028927  3.58625  0.046
N  N94  1  0.15933867  0.06483190  0.51772852  1  -1.193752  0.053685  -0.344033  -0.281382  0.0289  3.585709  0.046
N  N95  1  0.93520168  0.84064694  0.98229160  1  -1.195164  0.053735  -0.3442  -0.281443  0.028928  3.586149  0.046
O  O96  1  0.05197465  0.94791734  0.15452990  1  -1.344924  0.075592  -0.370481  -0.683347  0.039447  2.427916  0.06
O  O97  1  0.05204225  0.94811511  0.34533727  1  -1.344154  0.07545  -0.370098  -0.682961  0.039368  2.426497  0.06
O  O98  1  0.94802439  0.05208757  0.84547384  1  -1.344886  0.075589  -0.370472  -0.683258  0.039445  2.427809  0.06
O  O99  1  0.94795578  0.05189280  0.65466563  1  -1.344058  0.075451  -0.370061  -0.682948  0.039367  2.426849  0.06
O  O100  1  0.25441293  0.88285865  0.25066686  1  -1.348674  0.010466  -0.382458  -0.671521  0.004918  2.133682  0.009
O  O101  1  0.11711515  0.74559871  0.24922113  1  -1.348742  0.01045  -0.382261  -0.67154  0.004912  2.134125  0.009
O  O102  1  0.74558714  0.11713961  0.74933538  1  -1.348679  0.010466  -0.38245  -0.671486  0.004919  2.133666  0.009
O  O103  1  0.88287726  0.25440816  0.75078350  1  -1.348374  0.010451  -0.382237  -0.671534  0.004912  2.133991  0.009
