# generated using pymatgen
data_CuH13C12(NO2)2
_symmetry_space_group_name_H-M   'P 1'
_cell_length_a   8.53811688
_cell_length_b   13.21871805
_cell_length_c   15.75533245
_cell_angle_alpha   114.79553656
_cell_angle_beta   91.77558228
_cell_angle_gamma   89.99813319
_symmetry_Int_Tables_number   1
_chemical_formula_structural   CuH13C12(NO2)2
_chemical_formula_sum   'Cu4 H52 C48 N8 O16'
_cell_volume   1613.32235453
_cell_formula_units_Z   4
loop_
 _symmetry_equiv_pos_site_id
 _symmetry_equiv_pos_as_xyz
  1  'x, y, z'
loop_
 _atom_site_type_symbol
 _atom_site_label
 _atom_site_symmetry_multiplicity
 _atom_site_fract_x
 _atom_site_fract_y
 _atom_site_fract_z
 _atom_site_occupancy
 _atom_site_pbe_bader_charge
 _atom_site_pbe_bader_spin_density
 _atom_site_pbe_cm5_charge
 _atom_site_pbe_ddec_charge
 _atom_site_pbe_ddec_spin_density
 _atom_site_pbe_ddec_sum_bond_order
 _atom_site_pbe_magmom
Cu  Cu0  1  0.45229552  0.49287105  0.57468649  1  1.057775  -0.538348  0.675342  0.743477  -0.691154  2.395883  -0.536
Cu  Cu1  1  0.04770531  0.91818380  0.42529500  1  1.060134  0.538161  0.675105  0.744035  0.691561  2.394608  0.536
Cu  Cu2  1  0.54770492  0.50711490  0.42530749  1  1.057171  0.538329  0.67536  0.743698  0.691126  2.395854  0.536
Cu  Cu3  1  0.95226685  0.08185238  0.57473176  1  1.0602  -0.538204  0.674977  0.743964  -0.691584  2.393861  -0.536
H  H4  1  0.40230623  0.30485631  0.63648708  1  0.099775  1.8e-05  0.118675  0.095786  -3e-06  0.995857  0.0
H  H5  1  0.09760626  0.66830889  0.36347294  1  0.102106  -1.9e-05  0.118641  0.095662  3e-06  0.995045  0.0
H  H6  1  0.59770478  0.69513677  0.36351404  1  0.100026  -1.9e-05  0.118722  0.095836  3e-06  0.995894  0.0
H  H7  1  0.90238637  0.33169011  0.63654996  1  0.102621  1.9e-05  0.118623  0.095778  -3e-06  0.994844  0.0
H  H8  1  0.26107596  0.26636028  0.75513660  1  0.135886  -0.000132  0.108089  0.120609  -0.000179  1.031252  0.0
H  H9  1  0.23891623  0.51128970  0.24479515  1  0.11011  0.000133  0.108127  0.120425  0.000179  1.032142  0.0
H  H10  1  0.73893501  0.73363750  0.24486590  1  0.135516  0.000131  0.108067  0.120592  0.000179  1.031276  0.0
H  H11  1  0.76109014  0.48872459  0.75522471  1  0.110385  -0.000133  0.108183  0.120486  -0.000179  1.032048  0.0
H  H12  1  0.12326197  0.61152109  0.87637589  1  0.121132  3.7e-05  0.106941  0.108034  2e-05  1.018822  0.0
H  H13  1  0.37673670  0.73520895  0.12358710  1  0.095089  -3.7e-05  0.10673  0.1075  -2e-05  1.019208  0.0
H  H14  1  0.87675110  0.38847552  0.12361458  1  0.1214  -3.7e-05  0.106913  0.107941  -2.1e-05  1.018814  0.0
H  H15  1  0.62322967  0.26481947  0.87643688  1  0.094728  3.7e-05  0.106725  0.107538  2e-05  1.019139  0.0
H  H16  1  0.26840244  0.63398066  0.74827269  1  0.080971  9.5e-05  0.116061  0.091422  4.2e-05  0.995837  0.0
H  H17  1  0.23159831  0.88569422  0.25170924  1  0.087784  -9.4e-05  0.116163  0.091405  -4.3e-05  0.995984  0.0
H  H18  1  0.73160838  0.36600706  0.25171472  1  0.080836  -9.5e-05  0.116077  0.09146  -4.3e-05  0.99573  0.0
H  H19  1  0.76836367  0.11432014  0.74831734  1  0.088181  9.4e-05  0.116164  0.091539  4.2e-05  0.995907  0.0
H  H20  1  0.04147927  0.30689004  0.96184391  1  0.072577  -3e-06  0.095651  0.135325  -2e-06  1.03265  0.0
H  H21  1  0.45844541  0.34510033  0.03819590  1  0.068776  2e-06  0.095821  0.135686  1e-06  1.033167  0.0
H  H22  1  0.95852328  0.69311953  0.03815788  1  0.072274  2e-06  0.095646  0.135328  2e-06  1.032599  0.0
H  H23  1  0.54154810  0.65491458  0.96182625  1  0.068443  -3e-06  0.095849  0.135758  -2e-06  1.033265  0.0
H  H24  1  0.23057411  0.28536983  0.91124074  1  0.046866  -9e-06  0.100381  0.148072  -2e-06  0.991546  0.0
H  H25  1  0.26931141  0.37422920  0.08882494  1  0.044749  9e-06  0.100381  0.147702  2e-06  0.992036  0.0
H  H26  1  0.76942985  0.71463546  0.08876927  1  0.046982  9e-06  0.100387  0.148045  2e-06  0.991607  0.0
H  H27  1  0.73068070  0.62579815  0.91119632  1  0.044777  -9e-06  0.100302  0.147703  -2e-06  0.992096  0.0
H  H28  1  0.06100048  0.24410350  0.83748892  1  0.078833  -1e-05  0.101308  0.153579  -2e-06  1.001723  0.0
H  H29  1  0.43890011  0.40668320  0.16254491  1  0.075845  1e-05  0.101696  0.153821  2e-06  1.001812  0.0
H  H30  1  0.93900583  0.75589621  0.16251633  1  0.078749  1e-05  0.101263  0.1535  2e-06  1.001755  0.0
H  H31  1  0.56108734  0.59333802  0.83747271  1  0.076477  -1.1e-05  0.101701  0.153908  -2e-06  1.001689  0.0
H  H32  1  0.08085836  0.36288211  0.29645344  1  0.042662  -0.002182  0.094486  0.107406  -0.001067  0.979899  -0.001
H  H33  1  0.41919087  0.06635136  0.70346242  1  0.049739  0.00216  0.094264  0.106988  0.001067  0.980296  0.001
H  H34  1  0.91917475  0.63709309  0.70352562  1  0.043045  0.002181  0.094431  0.107345  0.001067  0.979848  0.001
H  H35  1  0.58086818  0.93361203  0.29651484  1  0.049422  -0.002159  0.094188  0.106919  -0.001066  0.980354  -0.001
H  H36  1  0.98575349  0.46799507  0.39108132  1  0.105882  0.000625  0.105535  0.130776  0.000366  0.993773  0.0
H  H37  1  0.51421287  0.07690739  0.60885714  1  0.106897  -0.000624  0.105401  0.130642  -0.000366  0.994114  0.0
H  H38  1  0.01425922  0.53199787  0.60888962  1  0.105853  -0.000627  0.105632  0.130878  -0.000367  0.993912  0.0
H  H39  1  0.48579194  0.92307144  0.39111635  1  0.107109  0.000623  0.105507  0.130851  0.000365  0.994028  0.0
H  H40  1  0.98151941  0.35294344  0.47944024  1  0.046884  -0.000494  0.094043  0.094176  -0.000381  0.996865  0.0
H  H41  1  0.51846768  0.87351306  0.52044154  1  0.088799  0.000477  0.094125  0.09417  0.000381  0.996769  0.0
H  H42  1  0.01846546  0.64704984  0.52054353  1  0.046598  0.000492  0.094162  0.094297  0.00038  0.997105  0.0
H  H43  1  0.48154413  0.12644713  0.47951579  1  0.088403  -0.000478  0.094213  0.094332  -0.000382  0.996548  0.0
H  H44  1  0.88877093  0.28198752  0.36824182  1  0.033018  0.000827  0.090715  0.086567  0.000455  1.004645  0.001
H  H45  1  0.61136074  0.91374039  0.63161493  1  0.030899  -0.000825  0.09048  0.086368  -0.000455  1.004365  -0.001
H  H46  1  0.11121726  0.71801230  0.63173850  1  0.032621  -0.000829  0.090731  0.086691  -0.000455  1.004666  -0.001
H  H47  1  0.38866362  0.08624801  0.36834896  1  0.03171  0.000823  0.090444  0.086145  0.000455  1.004189  0.001
H  H48  1  0.13262372  0.16833362  0.31049682  1  0.017079  -0.00155  0.096287  0.110435  -0.000732  0.971716  -0.001
H  H49  1  0.36753272  0.85783150  0.68944365  1  0.062838  0.00155  0.096192  0.1108  0.000731  0.971447  0.001
H  H50  1  0.86735580  0.83164236  0.68949716  1  0.01716  0.001552  0.096219  0.110301  0.000733  0.97165  0.001
H  H51  1  0.63254470  0.14216434  0.31054193  1  0.06263  -0.001552  0.096152  0.110726  -0.000732  0.971559  -0.001
H  H52  1  0.22969079  0.24949678  0.41936763  1  0.076381  0.000493  0.106542  0.130252  0.000245  0.989782  0.0
H  H53  1  0.27037349  0.83011005  0.58058509  1  0.065816  -0.000488  0.106518  0.130181  -0.000243  0.989517  0.0
H  H54  1  0.77028699  0.75050353  0.58061901  1  0.076121  -0.000496  0.106485  0.130135  -0.000247  0.989851  0.0
H  H55  1  0.72964245  0.16988432  0.41942817  1  0.065788  0.000487  0.106423  0.129985  0.000243  0.989695  0.0
C  C56  1  0.33941979  0.37062198  0.69130080  1  0.476236  0.000619  0.050207  0.105659  0.000409  3.929033  0.0
C  C57  1  0.16053709  0.67938646  0.30870509  1  0.497681  -0.000618  0.050312  0.105535  -0.000409  3.930081  0.0
C  C58  1  0.66059118  0.62937092  0.30869847  1  0.476368  -0.000618  0.050246  0.105615  -0.000409  3.929061  0.0
C  C59  1  0.83945422  0.32062482  0.69132092  1  0.497894  0.000618  0.050548  0.105618  0.000409  3.930021  0.0
C  C60  1  0.26131808  0.35040469  0.75894710  1  -0.053388  -0.00042  -0.07835  -0.153925  -0.000268  3.919159  0.0
C  C61  1  0.23860685  0.59154282  0.24104770  1  -0.026326  0.000415  -0.078478  -0.153756  0.000267  3.920899  0.0
C  C62  1  0.73869290  0.64959192  0.24105505  1  -0.05214  0.000419  -0.078421  -0.15385  0.000268  3.919264  0.0
C  C63  1  0.76139021  0.40847169  0.75897573  1  -0.026976  -0.000416  -0.078731  -0.154115  -0.000268  3.920925  0.0
C  C64  1  0.18281585  0.43768967  0.82845458  1  -0.017586  0.00063  0.007705  0.055606  0.000402  3.972286  0.0
C  C65  1  0.31723178  0.60928315  0.17156257  1  -0.04446  -0.000629  0.008305  0.057088  -0.000402  3.97084  0.0
C  C66  1  0.81719501  0.56230946  0.17154425  1  -0.018753  -0.000629  0.007698  0.055501  -0.000402  3.972418  0.0
C  C67  1  0.68275220  0.39073703  0.82845651  1  -0.04389  0.000631  0.008451  0.057365  0.000403  3.97102  0.0
C  C68  1  0.18403879  0.54185436  0.82417380  1  -0.01809  -0.000245  -0.079887  -0.157274  -0.000152  3.958587  0.0
C  C69  1  0.31600013  0.71769438  0.17577426  1  -0.008798  0.000245  -0.079467  -0.157049  0.000152  3.957607  0.0
C  C70  1  0.81597320  0.45814206  0.17582065  1  -0.018241  0.000245  -0.079691  -0.156978  0.000152  3.958375  0.0
C  C71  1  0.68398040  0.28232666  0.82424817  1  -0.009878  -0.000246  -0.079549  -0.157308  -0.000152  3.957674  0.0
C  C72  1  0.26422103  0.55448739  0.75395807  1  0.4871  0.000611  0.041243  0.082837  0.000418  3.971449  0.0
C  C73  1  0.23576443  0.80051958  0.24596936  1  0.469028  -0.000613  0.041753  0.083851  -0.000419  3.971414  0.0
C  C74  1  0.73578981  0.44550540  0.24603442  1  0.487916  -0.000611  0.041192  0.0827  -0.000418  3.971224  0.0
C  C75  1  0.76420570  0.19949272  0.75405267  1  0.468867  0.000614  0.041712  0.083638  0.000419  3.970659  0.0
C  C76  1  0.10330536  0.42079398  0.90350218  1  0.608625  -0.000315  0.152637  0.271106  -0.00022  3.897956  0.0
C  C77  1  0.39669268  0.51732167  0.09652224  1  0.660144  0.000315  0.152586  0.270252  0.000221  3.898038  0.0
C  C78  1  0.89670195  0.57921106  0.09649924  1  0.608651  0.000315  0.152632  0.271184  0.000221  3.897921  0.0
C  C79  1  0.60329015  0.48269297  0.90349296  1  0.660481  -0.000314  0.152278  0.270134  -0.00022  3.897493  0.0
C  C80  1  0.10835535  0.30782083  0.90412954  1  -0.06863  1e-05  -0.240085  -0.463546  5e-06  3.941605  0.0
C  C81  1  0.39155264  0.40373293  0.09590235  1  -0.069737  -9e-06  -0.24045  -0.463472  -5e-06  3.942598  0.0
C  C82  1  0.89165196  0.69218547  0.09587315  1  -0.068472  -1e-05  -0.240048  -0.463466  -5e-06  3.941559  0.0
C  C83  1  0.60843489  0.59628622  0.90411736  1  -0.070086  1e-05  -0.240358  -0.463664  5e-06  3.942396  0.0
C  C84  1  0.22669583  0.44515280  0.41944960  1  1.546045  -0.000663  0.213426  0.623996  -0.000569  4.117594  -0.001
C  C85  1  0.27334569  0.02567813  0.58050332  1  1.549334  0.000678  0.212913  0.624657  0.000564  4.117773  0.001
C  C86  1  0.77330922  0.55483095  0.58053883  1  1.546304  0.000658  0.213377  0.623959  0.000566  4.117792  0.001
C  C87  1  0.72665231  0.97432587  0.41950039  1  1.54865  -0.000681  0.212912  0.624834  -0.000567  4.117462  -0.001
C  C88  1  0.06806374  0.39834765  0.37262702  1  -0.063957  0.00101  -0.16133  -0.290996  0.000711  3.899101  0.001
C  C89  1  0.43198693  0.02566061  0.62729264  1  -0.080328  -0.001014  -0.161215  -0.290806  -0.000718  3.899717  -0.001
C  C90  1  0.93194335  0.60164143  0.62735173  1  -0.064274  -0.001007  -0.161317  -0.290952  -0.000711  3.899149  -0.001
C  C91  1  0.56803203  0.97431084  0.37267931  1  -0.08016  0.001007  -0.161304  -0.291217  0.000714  3.899887  0.001
C  C92  1  0.00274596  0.31248490  0.40432034  1  0.005716  0.003101  -0.165371  -0.100412  0.001946  3.928948  0.002
C  C93  1  0.49732865  0.90812701  0.59557181  1  -0.025802  -0.003098  -0.164947  -0.099877  -0.001949  3.928993  -0.002
C  C94  1  0.99723756  0.68750997  0.59565668  1  0.006222  -0.0031  -0.165593  -0.100765  -0.001944  3.929293  -0.002
C  C95  1  0.50269600  0.09184613  0.40439349  1  -0.026568  0.003098  -0.164873  -0.099489  0.001949  3.928428  0.002
C  C96  1  0.11458577  0.21573604  0.38562948  1  -0.015818  0.001096  -0.162901  -0.286631  0.000831  3.897456  0.001
C  C97  1  0.38551844  0.83009155  0.61431095  1  -0.053579  -0.001084  -0.162934  -0.2872  -0.000826  3.899011  -0.001
C  C98  1  0.88538741  0.78426159  0.61435948  1  -0.015676  -0.001102  -0.162695  -0.286203  -0.000835  3.897137  -0.001
C  C99  1  0.61452287  0.16989309  0.38567590  1  -0.052439  0.001085  -0.162775  -0.28701  0.000827  3.899164  0.001
C  C100  1  0.06719221  0.13476962  0.42619834  1  1.543696  -0.00028  0.21527  0.628173  -0.000179  4.115773  -0.001
C  C101  1  0.43281304  0.70857438  0.57376684  1  1.546722  0.000315  0.215766  0.628222  0.000176  4.117365  0.001
C  C102  1  0.93277169  0.86525621  0.57381721  1  1.543606  0.000277  0.215211  0.628163  0.000175  4.116228  0.001
C  C103  1  0.56720019  0.29141004  0.42622143  1  1.546573  -0.000321  0.21592  0.628328  -0.00018  4.117237  -0.001
N  N104  1  0.34307094  0.47089666  0.68886591  1  -1.216704  0.001322  -0.335409  -0.239276  0.000537  3.503602  0.0
N  N105  1  0.15699103  0.78208749  0.31113682  1  -1.20814  -0.001325  -0.336033  -0.2401  -0.000536  3.504176  0.0
N  N106  1  0.65694114  0.52909343  0.31112805  1  -1.217629  -0.001321  -0.335474  -0.23936  -0.000536  3.503342  0.0
N  N107  1  0.84298141  0.21792593  0.68888465  1  -1.207446  0.001321  -0.33615  -0.240079  0.000533  3.503663  0.0
N  N108  1  0.03537552  0.50829527  0.96480564  1  -0.741914  0.000381  -0.209154  -0.218103  0.000254  3.311541  0.0
N  N109  1  0.46461547  0.54348452  0.03519586  1  -0.76203  -0.000379  -0.209698  -0.218413  -0.000253  3.31135  0.0
N  N110  1  0.96462939  0.49170946  0.03519296  1  -0.766453  -0.000381  -0.20911  -0.218106  -0.000254  3.311467  0.0
N  N111  1  0.53536855  0.45653892  0.96482732  1  -0.789951  0.00038  -0.209539  -0.218246  0.000254  3.310817  0.0
O  O112  1  0.32891952  0.46406475  0.37044128  1  -1.118671  0.082344  -0.317518  -0.531373  0.053466  2.34376  0.075
O  O113  1  0.17119766  0.09363202  0.62954440  1  -1.116853  -0.082356  -0.317184  -0.531779  -0.053551  2.342892  -0.075
O  O114  1  0.67109384  0.53592837  0.62955989  1  -1.118444  -0.08235  -0.317538  -0.531356  -0.053468  2.343522  -0.075
O  O115  1  0.82883608  0.90640738  0.37046059  1  -1.11662  0.082384  -0.317284  -0.531868  0.053566  2.343198  0.075
O  O116  1  0.09256310  0.03201292  0.37619613  1  -1.111399  0.090417  -0.317232  -0.532904  0.058891  2.358225  0.082
O  O117  1  0.40731518  0.65581258  0.62377111  1  -1.112704  -0.090413  -0.317528  -0.533002  -0.058961  2.357724  -0.082
O  O118  1  0.90740934  0.96801046  0.62383365  1  -1.111625  -0.090405  -0.3172  -0.53296  -0.058877  2.358158  -0.082
O  O119  1  0.59266626  0.34417550  0.37621247  1  -1.112591  0.090444  -0.317637  -0.533092  0.058979  2.35766  0.082
O  O120  1  0.24519410  0.45951909  0.50421309  1  -1.119046  -0.077514  -0.311163  -0.522144  -0.05046  2.382214  -0.07
O  O121  1  0.25482523  0.95529477  0.49574513  1  -1.124695  0.077484  -0.310851  -0.52248  0.050477  2.38229  0.07
O  O122  1  0.75479715  0.54044783  0.49577432  1  -1.119306  0.077512  -0.311153  -0.522209  0.05046  2.382457  0.07
O  O123  1  0.74512623  0.04469292  0.50426139  1  -1.124102  -0.077456  -0.310821  -0.522538  -0.050456  2.382032  -0.07
O  O124  1  0.01042278  0.17566411  0.50743126  1  -1.126887  -0.078037  -0.312277  -0.527107  -0.051008  2.351655  -0.071
O  O125  1  0.48966041  0.66820792  0.49254562  1  -1.123986  0.07808  -0.312268  -0.526658  0.050944  2.352429  0.071
O  O126  1  0.98952681  0.82437207  0.49258128  1  -1.126705  0.078038  -0.3122  -0.527153  0.051011  2.352144  0.071
O  O127  1  0.51037410  0.33176905  0.50744522  1  -1.124434  -0.078067  -0.312355  -0.526735  -0.050935  2.352481  -0.071
