# generated using pymatgen
data_YbH21(C9O2)3
_symmetry_space_group_name_H-M   'P 1'
_cell_length_a   7.80495226
_cell_length_b   11.36174849
_cell_length_c   12.91314920
_cell_angle_alpha   93.41254322
_cell_angle_beta   90.00015179
_cell_angle_gamma   90.00023129
_symmetry_Int_Tables_number   1
_chemical_formula_structural   YbH21(C9O2)3
_chemical_formula_sum   'Yb2 H42 C54 O12'
_cell_volume   1143.08052505
_cell_formula_units_Z   2
loop_
 _symmetry_equiv_pos_site_id
 _symmetry_equiv_pos_as_xyz
  1  'x, y, z'
loop_
 _atom_site_type_symbol
 _atom_site_label
 _atom_site_symmetry_multiplicity
 _atom_site_fract_x
 _atom_site_fract_y
 _atom_site_fract_z
 _atom_site_occupancy
 _atom_site_hle17_bader_spin_density
 _atom_site_hle17_ddec_charge
 _atom_site_hle17_ddec_spin_density
 _atom_site_hle17_ddec_sum_bond_order
 _atom_site_hle17_magmom
 _atom_site_hse06_10hf_bader_spin_density
 _atom_site_hse06_10hf_ddec_charge
 _atom_site_hse06_10hf_ddec_spin_density
 _atom_site_hse06_10hf_ddec_sum_bond_order
 _atom_site_hse06_10hf_magmom
 _atom_site_hse06_bader_spin_density
 _atom_site_hse06_ddec_charge
 _atom_site_hse06_ddec_spin_density
 _atom_site_hse06_ddec_sum_bond_order
 _atom_site_hse06_magmom
 _atom_site_pbe_bader_spin_density
 _atom_site_pbe_cm5_charge
 _atom_site_pbe_ddec_charge
 _atom_site_pbe_ddec_spin_density
 _atom_site_pbe_ddec_sum_bond_order
 _atom_site_pbe_magmom
Yb  Yb0  1  0.57501960  0.53986647  0.47407814  1  0  2.267296  0  1.72332  0  0  2.129547  0  2.201389  0  0  2.260716  0  2.007562  0  0  1.620476  2.093258  0  2.233868  0
Yb  Yb1  1  0.07501898  0.46013408  0.52592388  1  0  2.267304  0  1.723287  0  0  2.129553  0  2.201328  0  0  2.260711  0  2.007529  0  0  1.620458  2.093263  0  2.233803  0
H  H2  1  0.75214213  0.12860076  0.60929526  1  0  0.112568  0  0.95481  0  0  0.124548  0  1.011564  0  0  0.128535  0  1.010318  0  0  0.103183  0.121831  0  1.012236  0
H  H3  1  0.25215102  0.87139864  0.39069699  1  0  0.112657  0  0.954734  0  0  0.124536  0  1.011585  0  0  0.128521  0  1.010344  0  0  0.103219  0.121822  0  1.012252  0
H  H4  1  0.41110136  0.26607424  0.60399138  1  0  0.103813  0  0.960845  0  0  0.109923  0  1.028924  0  0  0.113162  0  1.026135  0  0  0.111189  0.10762  0  1.030931  0
H  H5  1  0.91111046  0.73393098  0.39601353  1  0  0.10382  0  0.960818  0  0  0.109943  0  1.02892  0  0  0.113201  0  1.026085  0  0  0.111165  0.107639  0  1.03093  0
H  H6  1  0.61865750  0.96127439  0.59572330  1  0  0.089025  0  0.957301  0  0  0.101242  0  1.017263  0  0  0.103828  0  1.016482  0  0  0.100206  0.099425  0  1.017798  0
H  H7  1  0.11866413  0.03872787  0.40427646  1  0  0.089104  0  0.95721  0  0  0.101311  0  1.017183  0  0  0.103896  0  1.0164  0  0  0.100266  0.099493  0  1.017721  0
H  H8  1  0.45629217  0.78022783  0.62442146  1  0  0.094471  0  0.985925  0  0  0.098853  0  1.05773  0  0  0.102433  0  1.055729  0  0  0.100258  0.096117  0  1.059777  0
H  H9  1  0.95630072  0.21977370  0.37557967  1  0  0.094436  0  0.985916  0  0  0.098814  0  1.057729  0  0  0.102395  0  1.055725  0  0  0.100237  0.096077  0  1.059777  0
H  H10  1  0.14463119  0.79016307  0.66400148  1  0  0.091055  0  0.979013  0  0  0.100792  0  1.041277  0  0  0.102951  0  1.041298  0  0  0.097796  0.099394  0  1.040941  0
H  H11  1  0.64463823  0.20983598  0.33600145  1  0  0.091087  0  0.978979  0  0  0.100771  0  1.041317  0  0  0.102962  0  1.041304  0  0  0.097801  0.099373  0  1.040979  0
H  H12  1  0.99293677  0.98355790  0.66993174  1  0  0.080522  0  0.953954  0  0  0.093365  0  1.011961  0  0  0.095916  0  1.0114  0  0  0.096156  0.091538  0  1.012455  0
H  H13  1  0.49294421  0.01643958  0.33007259  1  0  0.080501  0  0.954038  0  0  0.093312  0  1.012083  0  0  0.095859  0  1.011525  0  0  0.096162  0.091487  0  1.012573  0
H  H14  1  0.15585551  0.16695551  0.63895987  1  0  0.10603  0  0.952996  0  0  0.114721  0  1.017399  0  0  0.11833  0  1.014906  0  0  0.108215  0.112104  0  1.019346  0
H  H15  1  0.65586760  0.83304363  0.36104386  1  0  0.106038  0  0.952989  0  0  0.114743  0  1.017363  0  0  0.118344  0  1.014888  0  0  0.108239  0.112128  0  1.019307  0
H  H16  1  0.48639213  0.62518458  0.75540668  1  0  0.118181  0  0.956741  0  0  0.127025  0  1.019258  0  0  0.130772  0  1.018552  0  0  0.107046  0.124501  0  1.019444  0
H  H17  1  0.98638692  0.37481703  0.24459451  1  0  0.118076  0  0.95663  0  0  0.126865  0  1.01925  0  0  0.130611  0  1.018545  0  0  0.10697  0.12434  0  1.019436  0
H  H18  1  0.25156147  0.45243203  0.86440484  1  0  0.098291  0  0.948861  0  0  0.109095  0  1.010605  0  0  0.111526  0  1.00916  0  0  0.108202  0.107418  0  1.01136  0
H  H19  1  0.75155423  0.54756655  0.13558820  1  0  0.098331  0  0.948981  0  0  0.109142  0  1.010696  0  0  0.111577  0  1.009231  0  0  0.108211  0.107467  0  1.011448  0
H  H20  1  0.52443656  0.73174173  0.90158639  1  0  0.086858  0  0.95895  0  0  0.099437  0  1.018954  0  0  0.101633  0  1.018763  0  0  0.099233  0.097873  0  1.019157  0
H  H21  1  0.02442780  0.26825403  0.09841248  1  0  0.086901  0  0.958973  0  0  0.0995  0  1.018943  0  0  0.101699  0  1.018747  0  0  0.099231  0.097936  0  1.019145  0
H  H22  1  0.58614455  0.82715144  0.07422585  1  0  0.087147  0  0.978019  0  0  0.097279  0  1.039621  0  0  0.099033  0  1.041457  0  0  0.096358  0.09595  0  1.038509  0
H  H23  1  0.08614401  0.17284802  0.92577309  1  0  0.087172  0  0.977999  0  0  0.097294  0  1.039614  0  0  0.099048  0  1.041452  0  0  0.096357  0.095965  0  1.038502  0
H  H24  1  0.48385061  0.73565126  0.23419688  1  0  0.098407  0  0.960824  0  0  0.108419  0  1.021513  0  0  0.111489  0  1.019339  0  0  0.104147  0.106374  0  1.022761  0
H  H25  1  0.98385217  0.26434823  0.76579966  1  0  0.098458  0  0.960835  0  0  0.108481  0  1.021498  0  0  0.111549  0  1.019329  0  0  0.10416  0.106436  0  1.022747  0
H  H26  1  0.31710846  0.54992357  0.21991736  1  0  0.101238  0  0.950567  0  0  0.110437  0  1.010233  0  0  0.113016  0  1.010023  0  0  0.104884  0.108713  0  1.010216  0
H  H27  1  0.81711246  0.45007216  0.78008202  1  0  0.101245  0  0.950619  0  0  0.110403  0  1.01032  0  0  0.112982  0  1.010109  0  0  0.104869  0.108682  0  1.010302  0
H  H28  1  0.25457698  0.45313348  0.04589028  1  0  0.08613  0  0.980633  0  0  0.09533  0  1.047439  0  0  0.097024  0  1.048925  0  0  0.096274  0.094107  0  1.046485  0
H  H29  1  0.75457719  0.54686370  0.95410742  1  0  0.086205  0  0.980551  0  0  0.095422  0  1.04735  0  0  0.0971  0  1.048852  0  0  0.096299  0.094198  0  1.046397  0
H  H30  1  0.21573211  0.18439569  0.26584733  1  0  0.112863  0  0.96673  0  0  0.121726  0  1.030819  0  0  0.125604  0  1.02958  0  0  0.102945  0.119093  0  1.03144  0
H  H31  1  0.71573293  0.81560087  0.73415497  1  0  0.112927  0  0.96668  0  0  0.121773  0  1.030784  0  0  0.125654  0  1.029533  0  0  0.102961  0.119138  0  1.031411  0
H  H32  1  0.51486039  0.33138418  0.18615060  1  0  0.096837  0  0.939043  0  0  0.107303  0  1.001591  0  0  0.109803  0  0.999638  0  0  0.108352  0.1056  0  1.002711  0
H  H33  1  0.01486227  0.66861877  0.81385052  1  0  0.096884  0  0.939015  0  0  0.10732  0  1.001606  0  0  0.109819  0  0.999653  0  0  0.108381  0.105619  0  1.002724  0
H  H34  1  0.26929101  0.04275575  0.14294971  1  0  0.086823  0  0.956173  0  0  0.099296  0  1.015692  0  0  0.10185  0  1.014828  0  0  0.099712  0.097417  0  1.016425  0
H  H35  1  0.76929064  0.95724454  0.85705343  1  0  0.086829  0  0.956128  0  0  0.099306  0  1.015647  0  0  0.101856  0  1.014786  0  0  0.099714  0.097432  0  1.016374  0
H  H36  1  0.26009743  0.92844522  0.97481034  1  0  0.08686  0  0.974057  0  0  0.096022  0  1.036422  0  0  0.097818  0  1.037739  0  0  0.096547  0.09472  0  1.035617  0
H  H37  1  0.76010101  0.07155604  0.02519433  1  0  0.086906  0  0.974077  0  0  0.096051  0  1.036441  0  0  0.097846  0  1.037758  0  0  0.09654  0.094748  0  1.035636  0
H  H38  1  0.39978518  0.00534685  0.81928144  1  0  0.079889  0  0.996157  0  0  0.087981  0  1.062022  0  0  0.08923  0  1.063945  0  0  0.093709  0.087043  0  1.06079  0
H  H39  1  0.89979101  0.99465212  0.18072272  1  0  0.07986  0  0.996219  0  0  0.087952  0  1.062086  0  0  0.089203  0  1.064004  0  0  0.093707  0.087014  0  1.060852  0
H  H40  1  0.55154455  0.19909895  0.83363943  1  0  0.089865  0  0.957808  0  0  0.099427  0  1.018059  0  0  0.101274  0  1.019229  0  0  0.09853  0.09813  0  1.017276  0
H  H41  1  0.05154563  0.80089801  0.16636257  1  0  0.089845  0  0.957801  0  0  0.099385  0  1.018077  0  0  0.101231  0  1.019247  0  0  0.098507  0.098088  0  1.017293  0
H  H42  1  0.56256555  0.31390111  0.00286599  1  0  0.088153  0  0.975711  0  0  0.096166  0  1.042541  0  0  0.09778  0  1.043915  0  0  0.096844  0.095003  0  1.041617  0
H  H43  1  0.06256321  0.68610022  0.99713523  1  0  0.088176  0  0.975764  0  0  0.096194  0  1.042566  0  0  0.097805  0  1.043958  0  0  0.096837  0.095034  0  1.041633  0
C  C44  1  0.73987864  0.31746629  0.59147988  1  0  0.761343  0  3.868291  0  0  0.721404  0  4.148702  0  0  0.759457  0  4.14108  0  0  0.224314  0.695936  0  4.156736  0
C  C45  1  0.23988522  0.68253432  0.40851700  1  0  0.761394  0  3.868114  0  0  0.721307  0  4.148742  0  0  0.759359  0  4.141125  0  0  0.224297  0.695839  0  4.156776  0
C  C46  1  0.66247106  0.20167976  0.60476539  1  0  -0.263444  0  3.679895  0  0  -0.275436  0  3.929452  0  0  -0.289512  0  3.945169  0  0  -0.104075  -0.265601  0  3.917241  0
C  C47  1  0.16248083  0.79832214  0.39522824  1  0  -0.263448  0  3.679683  0  0  -0.275271  0  3.929277  0  0  -0.289349  0  3.944996  0  0  -0.104041  -0.265437  0  3.917065  0
C  C48  1  0.49078644  0.18745956  0.60815229  1  0  -0.008312  0  3.698398  0  0  -0.033239  0  3.94367  0  0  -0.026206  0  3.958813  0  0  -0.061571  -0.037438  0  3.932248  0
C  C49  1  0.99079727  0.81254265  0.39184502  1  0  -0.008304  0  3.698418  0  0  -0.033334  0  3.943624  0  0  -0.026297  0  3.958772  0  0  -0.061582  -0.03753  0  3.932202  0
C  C50  1  0.39945311  0.07762157  0.61913212  1  0  0.060003  0  3.830584  0  0  0.083184  0  4.057766  0  0  0.080297  0  4.083094  0  0  -0.014715  0.085033  0  4.040447  0
C  C51  1  0.89946325  0.92237956  0.38086581  1  0  0.059827  0  3.830911  0  0  0.083187  0  4.05788  0  0  0.080298  0  4.083213  0  0  -0.014704  0.085033  0  4.040561  0
C  C52  1  0.48243123  0.96717032  0.61428023  1  0  -0.109179  0  3.726514  0  0  -0.127176  0  3.96713  0  0  -0.128815  0  3.988201  0  0  -0.086812  -0.125835  0  3.952561  0
C  C53  1  0.98244129  0.03283198  0.38571862  1  0  -0.109195  0  3.726724  0  0  -0.127234  0  3.967298  0  0  -0.128873  0  3.988366  0  0  -0.086882  -0.125895  0  3.952731  0
C  C54  1  0.39094546  0.86500825  0.63051901  1  0  -0.077453  0  3.774667  0  0  -0.090012  0  4.026334  0  0  -0.09267  0  4.046527  0  0  -0.093514  -0.088038  0  4.012118  0
C  C55  1  0.89095349  0.13499315  0.36948279  1  0  -0.077544  0  3.774637  0  0  -0.090094  0  4.026296  0  0  -0.092754  0  4.0465  0  0  -0.093561  -0.088121  0  4.012079  0
C  C56  1  0.21508154  0.87077463  0.65163593  1  0  -0.059676  0  3.744214  0  0  -0.0726  0  3.986996  0  0  -0.074027  0  4.009674  0  0  -0.088078  -0.071269  0  3.970922  0
C  C57  1  0.71509072  0.12922456  0.34836635  1  0  -0.059565  0  3.74408  0  0  -0.072452  0  3.986849  0  0  -0.073902  0  4.009508  0  0  -0.088032  -0.07112  0  3.970772  0
C  C58  1  0.13042664  0.97925473  0.65460142  1  0  -0.075971  0  3.790326  0  0  -0.087264  0  4.038266  0  0  -0.090584  0  4.061722  0  0  -0.093006  -0.084995  0  4.022176  0
C  C59  1  0.63043517  0.02074498  0.34539915  1  0  -0.075907  0  3.790368  0  0  -0.087182  0  4.038325  0  0  -0.090497  0  4.061783  0  0  -0.092971  -0.084915  0  4.022237  0
C  C60  1  0.22134573  0.08194270  0.63749318  1  0  -0.101503  0  3.695441  0  0  -0.120382  0  3.937408  0  0  -0.122087  0  3.957969  0  0  -0.079487  -0.118929  0  3.923142  0
C  C61  1  0.72135320  0.91805721  0.36250678  1  0  -0.101559  0  3.6955  0  0  -0.120489  0  3.937425  0  0  -0.122198  0  3.957986  0  0  -0.079566  -0.119036  0  3.923161  0
C  C62  1  0.31840464  0.49794394  0.67406327  1  0  0.719696  0  3.895581  0  0  0.678062  0  4.17774  0  0  0.714074  0  4.176369  0  0  0.196706  0.652764  0  4.185663  0
C  C63  1  0.81840182  0.50205783  0.32593451  1  0  0.719792  0  3.895673  0  0  0.678033  0  4.178024  0  0  0.714043  0  4.176659  0  0  0.196703  0.652735  0  4.185944  0
C  C64  1  0.39511528  0.55463603  0.76716609  1  0  -0.242276  0  3.647412  0  0  -0.254257  0  3.896869  0  0  -0.268329  0  3.912296  0  0  -0.099448  -0.244297  0  3.885246  0
C  C65  1  0.89511044  0.44536590  0.23283105  1  0  -0.242  0  3.647282  0  0  -0.253894  0  3.896766  0  0  -0.267966  0  3.912197  0  0  -0.099336  -0.243936  0  3.885138  0
C  C66  1  0.34210932  0.52582370  0.86213855  1  0  -0.002379  0  3.690957  0  0  -0.025139  0  3.932617  0  0  -0.016624  0  3.947171  0  0  -0.056068  -0.03044  0  3.921873  0
C  C67  1  0.84210806  0.47417820  0.13786005  1  0  -0.002689  0  3.691247  0  0  -0.025474  0  3.932912  0  0  -0.016954  0  3.947473  0  0  -0.056165  -0.030774  0  3.922166  0
C  C68  1  0.38663913  0.58426885  0.96156232  1  0  0.048261  0  3.848679  0  0  0.068785  0  4.080004  0  0  0.065295  0  4.10465  0  0  -0.018244  0.071021  0  4.063286  0
C  C69  1  0.88663581  0.41572784  0.03843562  1  0  0.04834  0  3.848459  0  0  0.068886  0  4.079768  0  0  0.065393  0  4.104415  0  0  -0.018228  0.071125  0  4.063047  0
C  C70  1  0.48008270  0.69060487  0.97094006  1  0  -0.105119  0  3.727587  0  0  -0.121861  0  3.967355  0  0  -0.12322  0  3.98854  0  0  -0.084907  -0.120783  0  3.952961  0
C  C71  1  0.98008384  0.30938940  0.02905729  1  0  -0.105207  0  3.727752  0  0  -0.121966  0  3.967492  0  0  -0.123325  0  3.98868  0  0  -0.084965  -0.120888  0  3.953097  0
C  C72  1  0.51405545  0.74489806  0.06816577  1  0  -0.077415  0  3.775631  0  0  -0.08821  0  4.021919  0  0  -0.091443  0  4.044528  0  0  -0.09052  -0.085977  0  4.006576  0
C  C73  1  0.01405542  0.25510113  0.93183228  1  0  -0.077448  0  3.775747  0  0  -0.088235  0  4.022031  0  0  -0.091469  0  4.044639  0  0  -0.090516  -0.086001  0  4.006688  0
C  C74  1  0.45554649  0.69446669  0.15791041  1  0  -0.040775  0  3.715516  0  0  -0.057877  0  3.964499  0  0  -0.057731  0  3.983057  0  0  -0.07895  -0.057683  0  3.951331  0
C  C75  1  0.95555889  0.30553448  0.84208607  1  0  -0.040798  0  3.715633  0  0  -0.057914  0  3.964606  0  0  -0.057769  0  3.98316  0  0  -0.078918  -0.057721  0  3.95144  0
C  C76  1  0.36225924  0.58932411  0.15001819  1  0  -0.065346  0  3.745516  0  0  -0.078121  0  3.996662  0  0  -0.081101  0  4.018299  0  0  -0.08758  -0.076006  0  3.981522  0
C  C77  1  0.86226332  0.41067515  0.84997969  1  0  -0.065318  0  3.745628  0  0  -0.078038  0  3.996739  0  0  -0.081015  0  4.018369  0  0  -0.087595  -0.075926  0  3.981603  0
C  C78  1  0.32796782  0.53491872  0.05274082  1  0  -0.111152  0  3.729665  0  0  -0.12895  0  3.973009  0  0  -0.131311  0  3.996017  0  0  -0.085878  -0.127195  0  3.957377  0
C  C79  1  0.82797136  0.46507698  0.94725781  1  0  -0.111235  0  3.729621  0  0  -0.129061  0  3.972957  0  0  -0.131408  0  3.995974  0  0  -0.085867  -0.127306  0  3.957326  0
C  C80  1  0.33301340  0.32905780  0.35896034  1  0  0.766864  0  3.867352  0  0  0.726719  0  4.149739  0  0  0.764896  0  4.141479  0  0  0.22937  0.701122  0  4.158536  0
C  C81  1  0.83301296  0.67094067  0.64103982  1  0  0.766925  0  3.867303  0  0  0.726783  0  4.149675  0  0  0.764967  0  4.141405  0  0  0.22942  0.701185  0  4.158476  0
C  C82  1  0.31821595  0.24961264  0.26514064  1  0  -0.274743  0  3.668155  0  0  -0.286886  0  3.919225  0  0  -0.300742  0  3.932675  0  0  -0.10654  -0.277145  0  3.908416  0
C  C83  1  0.81821767  0.75038591  0.73486105  1  0  -0.274851  0  3.668264  0  0  -0.286979  0  3.919339  0  0  -0.300834  0  3.932781  0  0  -0.10658  -0.277243  0  3.908538  0
C  C84  1  0.42038042  0.26008521  0.18164269  1  0  -0.005979  0  3.710429  0  0  -0.029457  0  3.956584  0  0  -0.020813  0  3.970825  0  0  -0.058924  -0.034834  0  3.94601  0
C  C85  1  0.92037988  0.73991446  0.81835840  1  0  -0.006039  0  3.710569  0  0  -0.029508  0  3.956733  0  0  -0.020862  0  3.970972  0  0  -0.058967  -0.034883  0  3.946157  0
C  C86  1  0.41466951  0.18798597  0.08474654  1  0  0.054156  0  3.831709  0  0  0.075253  0  4.062187  0  0  0.071616  0  4.087696  0  0  -0.015706  0.077586  0  4.044847  0
C  C87  1  0.91466983  0.81201280  0.91525454  1  0  0.054254  0  3.831628  0  0  0.07534  0  4.062122  0  0  0.071704  0  4.08763  0  0  -0.015691  0.077672  0  4.044785  0
C  C88  1  0.33032657  0.07811222  0.07543325  1  0  -0.101514  0  3.717139  0  0  -0.119729  0  3.956762  0  0  -0.121406  0  3.978172  0  0  -0.083479  -0.118371  0  3.942196  0
C  C89  1  0.83032629  0.92188812  0.92456845  1  0  -0.101498  0  3.717105  0  0  -0.119711  0  3.95672  0  0  -0.121388  0  3.97813  0  0  -0.08346  -0.118357  0  3.942153  0
C  C90  1  0.32597729  0.01312263  0.98072770  1  0  -0.070554  0  3.777817  0  0  -0.08061  0  4.023154  0  0  -0.082996  0  4.044476  0  0  -0.089389  -0.078992  0  4.008609  0
C  C91  1  0.82597340  0.98687682  0.01927400  1  0  -0.070614  0  3.778044  0  0  -0.080648  0  4.023358  0  0  -0.083033  0  4.044679  0  0  -0.089374  -0.079031  0  4.008815  0
C  C92  1  0.40497835  0.05632177  0.89337488  1  0  -0.063285  0  3.750847  0  0  -0.077093  0  3.995845  0  0  -0.077866  0  4.016638  0  0  -0.085466  -0.076394  0  3.981623  0
C  C93  1  0.90497971  0.94367709  0.10662773  1  0  -0.063348  0  3.751067  0  0  -0.077168  0  3.996057  0  0  -0.077941  0  4.016851  0  0  -0.085557  -0.076468  0  3.981831  0
C  C94  1  0.48992091  0.16478786  0.90138118  1  0  -0.066568  0  3.76207  0  0  -0.076415  0  4.005405  0  0  -0.07915  0  4.026804  0  0  -0.089431  -0.074587  0  3.990839  0
C  C95  1  0.98992160  0.83521025  0.09862004  1  0  -0.066449  0  3.762099  0  0  -0.076259  0  4.005392  0  0  -0.078993  0  4.026793  0  0  -0.089345  -0.074431  0  3.990824  0
C  C96  1  0.49576247  0.22950254  0.99644935  1  0  -0.104637  0  3.718135  0  0  -0.122468  0  3.960096  0  0  -0.124207  0  3.98207  0  0  -0.083595  -0.121125  0  3.945181  0
C  C97  1  0.99576621  0.77049734  0.00355187  1  0  -0.10472  0  3.718239  0  0  -0.122554  0  3.960191  0  0  -0.124297  0  3.982166  0  0  -0.083575  -0.121209  0  3.94528  0
O  O98  1  0.64282000  0.40794116  0.58612776  1  0  -0.796814  0  2.086964  0  0  -0.741735  0  2.345625  0  0  -0.782458  0  2.332959  0  0  -0.438975  -0.722708  0  2.352694  0
O  O99  1  0.14282607  0.59205852  0.41387206  1  0  -0.7968  0  2.086894  0  0  -0.741668  0  2.345595  0  0  -0.782393  0  2.332936  0  0  -0.438905  -0.72264  0  2.352663  0
O  O100  1  0.90336459  0.32295169  0.58603570  1  0  -0.741484  0  2.004276  0  0  -0.689641  0  2.263421  0  0  -0.727451  0  2.246488  0  0  -0.417497  -0.672016  0  2.272303  0
O  O101  1  0.40337116  0.67704963  0.41396456  1  0  -0.741558  0  2.004218  0  0  -0.689658  0  2.263388  0  0  -0.727465  0  2.24645  0  0  -0.417591  -0.672035  0  2.272273  0
O  O102  1  0.34616515  0.54286825  0.58451606  1  0  -0.877439  0  2.138589  0  0  -0.816669  0  2.409081  0  0  -0.864968  0  2.395277  0  0  -0.476207  -0.798203  0  2.418457  0
O  O103  1  0.84616503  0.45713625  0.41548176  1  0  -0.877534  0  2.138604  0  0  -0.816668  0  2.409058  0  0  -0.864967  0  2.395259  0  0  -0.476159  -0.798203  0  2.418431  0
O  O104  1  0.21264206  0.41313978  0.67673976  1  0  -0.685007  0  1.972181  0  0  -0.636144  0  2.215124  0  0  -0.670274  0  2.204524  0  0  -0.380387  -0.619257  0  2.221559  0
O  O105  1  0.71264100  0.58686281  0.32326094  1  0  -0.684976  0  1.97235  0  0  -0.636105  0  2.215372  0  0  -0.670237  0  2.204768  0  0  -0.380364  -0.619218  0  2.221808  0
O  O106  1  0.21071683  0.32688409  0.42530188  1  0  -0.773206  0  2.011795  0  0  -0.721502  0  2.274847  0  0  -0.761291  0  2.256454  0  0  -0.430376  -0.703805  0  2.284846  0
O  O107  1  0.71071739  0.67311848  0.57469881  1  0  -0.773236  0  2.011765  0  0  -0.721541  0  2.274847  0  0  -0.761337  0  2.256449  0  0  -0.430432  -0.703844  0  2.284849  0
O  O108  1  0.46289014  0.39665935  0.37077724  1  0  -0.771435  0  2.052618  0  0  -0.72248  0  2.318697  0  0  -0.762086  0  2.302533  0  0  -0.421806  -0.704778  0  2.327334  0
O  O109  1  0.96289182  0.60334044  0.62922392  1  0  -0.771436  0  2.052614  0  0  -0.722489  0  2.318713  0  0  -0.762097  0  2.302546  0  0  -0.421799  -0.704787  0  2.327352  0
