# generated using pymatgen
data_InH9(C7O3)2
_symmetry_space_group_name_H-M   'P 1'
_cell_length_a   13.92563940
_cell_length_b   13.92567568
_cell_length_c   25.35319053
_cell_angle_alpha   105.12075338
_cell_angle_beta   105.12081099
_cell_angle_gamma   92.77383573
_symmetry_Int_Tables_number   1
_chemical_formula_structural   InH9(C7O3)2
_chemical_formula_sum   'In8 H72 C112 O48'
_cell_volume   4546.13658565
_cell_formula_units_Z   8
loop_
 _symmetry_equiv_pos_site_id
 _symmetry_equiv_pos_as_xyz
  1  'x, y, z'
loop_
 _atom_site_type_symbol
 _atom_site_label
 _atom_site_symmetry_multiplicity
 _atom_site_fract_x
 _atom_site_fract_y
 _atom_site_fract_z
 _atom_site_occupancy
 _atom_site_pbe_bader_charge
 _atom_site_pbe_bader_spin_density
 _atom_site_pbe_cm5_charge
 _atom_site_pbe_ddec_charge
 _atom_site_pbe_ddec_spin_density
 _atom_site_pbe_ddec_sum_bond_order
 _atom_site_pbe_magmom
In  In0  1  0.62499894  0.87499789  0.74999979  1  1.95074  0  0.760174  1.519692  0  2.81439  0
In  In1  1  0.12500008  0.37500135  0.25000117  1  1.950632  0  0.760171  1.519697  0  2.814382  0
In  In2  1  0.12499960  0.87500122  0.25000063  1  1.948557  0  0.760997  1.519908  0  2.813067  0
In  In3  1  0.12500080  0.87500119  0.74999766  1  1.948574  0  0.761006  1.519951  0  2.81312  0
In  In4  1  0.36029693  0.86021966  0.72042193  1  1.93464  0  0.761564  1.514034  0  2.780243  0
In  In5  1  0.13978163  0.63970402  0.27957901  1  1.934643  0  0.761592  1.514069  0  2.780261  0
In  In6  1  0.88970297  0.88978357  0.77957736  1  1.934651  0  0.761609  1.514122  0  2.780224  0
In  In7  1  0.11021788  0.11029515  0.22042197  1  1.934644  0  0.761578  1.514086  0  2.780202  0
H  H8  1  0.90566520  0.35903129  0.33580043  1  0.098883  0  0.107505  0.10805  0  1.002676  0
H  H9  1  0.96200783  0.67998184  0.39992154  1  0.10135  0  0.111165  0.115752  0  0.98698  0
H  H10  1  0.88596875  0.57163851  0.53361913  1  0.066539  0  0.106513  0.121488  0  1.006936  0
H  H11  1  0.88992998  0.67356456  0.63094031  1  0.086646  0  0.106535  0.106574  0  1.013932  0
H  H12  1  0.57336910  0.68773799  0.57464025  1  0.105884  0  0.112598  0.118381  0  0.981833  0
H  H13  1  0.77503528  0.35722142  0.38769586  1  0.084641  0  0.113612  0.129793  0  0.978213  0
H  H14  1  0.56795413  0.58280594  0.47624819  1  0.084486  0  0.111346  0.127149  0  0.983352  0
H  H15  1  0.83074873  0.67939309  0.45110795  1  0.10379  0  0.104524  0.117826  0  1.01753  0
H  H16  1  0.64096978  0.09433512  0.66419919  1  0.098858  0  0.107519  0.108101  0  1.002619  0
H  H17  1  0.32001771  0.03799212  0.60008037  1  0.101614  0  0.111147  0.115699  0  0.987019  0
H  H18  1  0.42836099  0.11403096  0.46638009  1  0.066529  0  0.106535  0.121546  0  1.006931  0
H  H19  1  0.32643485  0.11006867  0.36905903  1  0.086621  0  0.106524  0.106587  0  1.013889  0
H  H20  1  0.31225949  0.42662811  0.42535939  1  0.105893  0  0.112614  0.118413  0  0.981769  0
H  H21  1  0.64277764  0.22496281  0.61230225  1  0.084658  0  0.113613  0.129795  0  0.978153  0
H  H22  1  0.41719091  0.43204352  0.52375161  1  0.084466  0  0.111359  0.127176  0  0.983354  0
H  H23  1  0.32060632  0.16925034  0.54889345  1  0.103785  0  0.104513  0.117821  0  1.017546  0
H  H24  1  0.02319405  0.56998559  0.66405729  1  0.083325  0  0.107795  0.108395  0  1.002213  0
H  H25  1  0.28030092  0.56227506  0.60005946  1  0.106236  0  0.111319  0.115869  0  0.988203  0
H  H26  1  0.03827134  0.35259748  0.46623513  1  0.085264  0  0.106274  0.120622  0  1.005636  0
H  H27  1  0.04264676  0.25904307  0.36887844  1  0.120642  0  0.105466  0.105475  0  1.013766  0
H  H28  1  0.11302753  0.99889700  0.42541773  1  0.103556  0  0.112531  0.118833  0  0.982795  0
H  H29  1  0.96958975  0.38755519  0.61216311  1  0.089156  0  0.113386  0.129875  0  0.977771  0
H  H30  1  0.10673643  0.09205354  0.52382984  1  0.082926  0  0.110572  0.125881  0  0.983351  0
H  H31  1  0.22863299  0.37990822  0.54889944  1  0.07588  0  0.104333  0.116697  0  1.017537  0
H  H32  1  0.43001324  0.97680372  0.33594309  1  0.083356  0  0.107759  0.108357  0  1.002174  0
H  H33  1  0.43772943  0.71969745  0.39994051  1  0.106224  0  0.11132  0.115892  0  0.988179  0
H  H34  1  0.64740496  0.96172999  0.53376238  1  0.085276  0  0.106305  0.120618  0  1.005645  0
H  H35  1  0.74095827  0.95735233  0.63111933  1  0.120266  0  0.105481  0.1055  0  1.013845  0
H  H36  1  0.00110670  0.88697104  0.57458161  1  0.103485  0  0.112557  0.118842  0  0.982717  0
H  H37  1  0.61244451  0.03040623  0.38783383  1  0.089166  0  0.113367  0.129836  0  0.977805  0
H  H38  1  0.90795140  0.89326539  0.47616913  1  0.082849  0  0.110565  0.125802  0  0.983421  0
H  H39  1  0.62009554  0.77136567  0.45109966  1  0.075805  0  0.104347  0.116701  0  1.017605  0
H  H40  1  0.25845195  0.00971988  0.74456835  1  0.620925  0  0.319521  0.400736  0  0.89798  0
H  H41  1  0.34433963  0.39096963  0.16419954  1  0.098854  0  0.107532  0.10809  0  1.002691  0
H  H42  1  0.28799271  0.07001868  0.10007940  1  0.101366  0  0.111153  0.115733  0  0.98696  0
H  H43  1  0.36403391  0.17836235  0.96638308  1  0.066511  0  0.106523  0.121517  0  1.006961  0
H  H44  1  0.36006846  0.07643841  0.86906067  1  0.086642  0  0.106536  0.106571  0  1.013918  0
H  H45  1  0.67662838  0.06226064  0.92535681  1  0.10589  0  0.112619  0.118412  0  0.981807  0
H  H46  1  0.47496863  0.39277850  0.11230395  1  0.084634  0  0.113601  0.129742  0  0.978208  0
H  H47  1  0.68204719  0.16718909  0.02374982  1  0.084465  0  0.111331  0.127101  0  0.983436  0
H  H48  1  0.41925056  0.07060749  0.04889323  1  0.103781  0  0.10453  0.117829  0  1.017559  0
H  H49  1  0.76374766  0.01527889  0.75553344  1  0.606812  0  0.318498  0.399873  0  0.898895  0
H  H50  1  0.60903184  0.65566559  0.83580049  1  0.098883  0  0.107505  0.108042  0  1.002695  0
H  H51  1  0.92998377  0.71200754  0.89992066  1  0.101316  0  0.111144  0.115703  0  0.986985  0
H  H52  1  0.82163836  0.63596837  0.03361966  1  0.066509  0  0.106531  0.121545  0  1.006941  0
H  H53  1  0.92356440  0.63993130  0.13094062  1  0.086624  0  0.106517  0.106568  0  1.013911  0
H  H54  1  0.93773901  0.32337168  0.07464101  1  0.105895  0  0.112606  0.118376  0  0.981772  0
H  H55  1  0.60722226  0.52503611  0.88769648  1  0.084665  0  0.1136  0.12979  0  0.978178  0
H  H56  1  0.83280778  0.31795608  0.97624890  1  0.08454  0  0.111335  0.127131  0  0.983352  0
H  H57  1  0.92939516  0.58074933  0.95110758  1  0.103768  0  0.104523  0.117838  0  1.017465  0
H  H58  1  0.22680553  0.18001319  0.83594443  1  0.083364  0  0.10776  0.108323  0  1.002211  0
H  H59  1  0.96969788  0.18772391  0.89994116  1  0.106209  0  0.11129  0.11584  0  0.988229  0
H  H60  1  0.21172739  0.39740174  0.03376433  1  0.085248  0  0.106269  0.120624  0  1.005666  0
H  H61  1  0.20735146  0.49095554  0.13112125  1  0.120246  0  0.105448  0.105431  0  1.013809  0
H  H62  1  0.13697132  0.75110295  0.07458243  1  0.103548  0  0.112532  0.118838  0  0.982795  0
H  H63  1  0.28040895  0.36244441  0.88783740  1  0.08883  0  0.113408  0.129909  0  0.977762  0
H  H64  1  0.14326382  0.65794689  0.97617028  1  0.082927  0  0.110561  0.125895  0  0.983344  0
H  H65  1  0.02136621  0.37009100  0.95110114  1  0.075871  0  0.104349  0.116693  0  1.017599  0
H  H66  1  0.81998826  0.77319351  0.16405644  1  0.083308  0  0.107785  0.108329  0  1.002221  0
H  H67  1  0.81227174  0.03030304  0.10006031  1  0.106245  0  0.111343  0.115946  0  0.988134  0
H  H68  1  0.60259604  0.78827318  0.96623502  1  0.085302  0  0.10628  0.120621  0  1.005627  0
H  H69  1  0.50904057  0.79265347  0.86887965  1  0.120711  0  0.105488  0.105521  0  1.013799  0
H  H70  1  0.24889327  0.86302973  0.92541883  1  0.103474  0  0.112552  0.118848  0  0.982743  0
H  H71  1  0.63755778  0.71958770  0.11216365  1  0.089047  0  0.113396  0.129939  0  0.977693  0
H  H72  1  0.34205104  0.85673368  0.02382982  1  0.082929  0  0.110571  0.125823  0  0.983454  0
H  H73  1  0.62990458  0.97863142  0.04890073  1  0.075857  0  0.104318  0.116703  0  1.017595  0
H  H74  1  0.99028081  0.74154779  0.25543389  1  0.583418  0  0.319517  0.400749  0  0.897951  0
H  H75  1  0.98471818  0.23625026  0.24446608  1  0.606789  0  0.318431  0.399769  0  0.89903  0
H  H76  1  0.26528197  0.51374986  0.25553446  1  0.606723  0  0.318427  0.39976  0  0.899045  0
H  H77  1  0.25971976  0.00845356  0.24456631  1  0.620931  0  0.319522  0.400729  0  0.897987  0
H  H78  1  0.48624899  0.73471998  0.74446653  1  0.606799  0  0.318422  0.399749  0  0.899049  0
H  H79  1  0.99154881  0.74028129  0.75543197  1  0.620953  0  0.319509  0.400779  0  0.89792  0
C  C80  1  0.01636701  0.51902442  0.33214158  1  1.563536  0  0.240116  0.616274  0  4.166329  0
C  C81  1  0.88907956  0.42854974  0.36142025  1  -0.065229  0  -0.078128  -0.061493  0  3.989534  0
C  C82  1  0.92112038  0.60964859  0.39777340  1  -0.039409  0  -0.075721  -0.060411  0  3.971002  0
C  C83  1  0.73163088  0.68585256  0.60884871  1  -0.027503  0  -0.027201  -0.064502  0  3.988588  0
C  C84  1  0.72635452  0.57259927  0.49969825  1  0.384658  0  0.090574  0.269705  0  4.046083  0
C  C85  1  0.81760504  0.59686038  0.54271454  1  0.050661  0  -0.104415  -0.21559  0  4.003123  0
C  C86  1  0.94183578  0.51942021  0.36492754  1  -0.025746  0  -0.025247  -0.065723  0  3.991746  0
C  C87  1  0.81948372  0.65314596  0.59709412  1  -0.041754  0  -0.078558  -0.056964  0  3.97814  0
C  C88  1  0.73488181  0.74841824  0.66680247  1  1.557814  0  0.232358  0.606706  0  4.182829  0
C  C89  1  0.64095549  0.66106444  0.56513424  1  -0.035174  0  -0.076331  -0.061179  0  3.975319  0
C  C90  1  0.81657630  0.42716610  0.38991686  1  0.013863  0  -0.098659  -0.201319  0  3.996512  0
C  C91  1  0.63776873  0.60397611  0.51066882  1  -0.005076  0  -0.100338  -0.206248  0  4.002303  0
C  C92  1  0.79599579  0.51775571  0.42184628  1  0.414716  0  0.090357  0.268753  0  4.046786  0
C  C93  1  0.84808566  0.60941422  0.42616708  1  -0.014778  0  -0.100929  -0.209195  0  3.996865  0
C  C94  1  0.48097812  0.98363484  0.66785947  1  1.563391  0  0.24015  0.616326  0  4.166364  0
C  C95  1  0.57145197  0.11091946  0.63857940  1  -0.065191  0  -0.078169  -0.061618  0  3.989504  0
C  C96  1  0.39035033  0.07887926  0.60222708  1  -0.03967  0  -0.075725  -0.06035  0  3.970958  0
C  C97  1  0.31414583  0.26836709  0.39115188  1  -0.027492  0  -0.027129  -0.064402  0  3.988579  0
C  C98  1  0.42739910  0.27364337  0.50030139  1  0.384649  0  0.090596  0.269796  0  4.045797  0
C  C99  1  0.40313935  0.18239300  0.45728487  1  0.050676  0  -0.10445  -0.21569  0  4.002943  0
C  C100  1  0.48058242  0.05816379  0.63507344  1  -0.025593  0  -0.025214  -0.065682  0  3.991584  0
C  C101  1  0.34685343  0.18051494  0.40290516  1  -0.041798  0  -0.078555  -0.057011  0  3.978048  0
C  C102  1  0.25157999  0.26511578  0.33319761  1  1.557394  0  0.232392  0.60686  0  4.182637  0
C  C103  1  0.33893250  0.35904293  0.43486537  1  -0.034957  0  -0.076359  -0.061257  0  3.975476  0
C  C104  1  0.57283292  0.18342149  0.61008128  1  0.013839  0  -0.098615  -0.201221  0  3.996474  0
C  C105  1  0.39601931  0.36222953  0.48933065  1  -0.005181  0  -0.100356  -0.206293  0  4.002323  0
C  C106  1  0.48224365  0.20400243  0.57815268  1  0.414655  0  0.090366  0.268745  0  4.046805  0
C  C107  1  0.39058400  0.15191262  0.57383261  1  -0.014768  0  -0.100918  -0.209208  0  3.996832  0
C  C108  1  0.18697280  0.68431553  0.66783397  1  1.529079  0  0.241209  0.619529  0  4.165765  0
C  C109  1  0.06720182  0.52782512  0.63848501  1  -0.079152  0  -0.078688  -0.060586  0  3.989955  0
C  C110  1  0.21210917  0.52354387  0.60221467  1  -0.04323  0  -0.076452  -0.060802  0  3.973917  0
C  C111  1  0.07698874  0.12289405  0.39109876  1  -0.041713  0  -0.028273  -0.068348  0  3.99241  0
C  C112  1  0.07318660  0.22696414  0.50027938  1  0.394354  0  0.089458  0.269002  0  4.048934  0
C  C113  1  0.05439631  0.27513246  0.45719609  1  -0.051122  0  -0.103229  -0.213184  0  4.002241  0
C  C114  1  0.15463497  0.57706937  0.63503898  1  0.01474  0  -0.025206  -0.068384  0  3.993344  0
C  C115  1  0.05614316  0.22252546  0.40279677  1  -0.005318  0  -0.077047  -0.055043  0  3.976804  0
C  C116  1  0.08141931  0.06804021  0.33313570  1  1.5739  0  0.231931  0.607351  0  4.18081  0
C  C117  1  0.09595329  0.07600184  0.43487631  1  0.021752  0  -0.075588  -0.060304  0  3.977559  0
C  C118  1  0.03736675  0.42687011  0.60997760  1  0.034496  0  -0.099385  -0.203586  0  3.997875  0
C  C119  1  0.09348383  0.12738569  0.48935288  1  -0.061044  0  -0.100292  -0.205612  0  4.003471  0
C  C120  1  0.09615961  0.37440934  0.57811007  1  0.37468  0  0.090885  0.269732  0  4.044649  0
C  C121  1  0.18353116  0.42217083  0.57381709  1  0.049885  0  -0.100603  -0.206842  0  3.996357  0
C  C122  1  0.31568648  0.81302470  0.33216698  1  1.52954  0  0.241192  0.619537  0  4.16573  0
C  C123  1  0.47217564  0.93279477  0.36151420  1  -0.079167  0  -0.078659  -0.060651  0  3.989791  0
C  C124  1  0.47645862  0.78788972  0.39778501  1  -0.043201  0  -0.076475  -0.060842  0  3.973883  0
C  C125  1  0.87710791  0.92301208  0.60890040  1  -0.042032  0  -0.028299  -0.068422  0  3.992449  0
C  C126  1  0.77303866  0.92681613  0.49971964  1  0.394376  0  0.089419  0.268864  0  4.048739  0
C  C127  1  0.72487046  0.94560558  0.54280188  1  -0.050756  0  -0.103243  -0.213091  0  4.002212  0
C  C128  1  0.42293050  0.84536130  0.36496053  1  0.014772  0  -0.02519  -0.068354  0  3.993245  0
C  C129  1  0.77747726  0.94385823  0.59720142  1  -0.0051  0  -0.077032  -0.055029  0  3.976923  0
C  C130  1  0.93196110  0.91858003  0.66686342  1  1.574441  0  0.23195  0.607354  0  4.180807  0
C  C131  1  0.92400104  0.90404819  0.56512260  1  0.022025  0  -0.075592  -0.0603  0  3.977387  0
C  C132  1  0.57312981  0.96263115  0.39001993  1  0.034493  0  -0.099356  -0.203492  0  3.997902  0
C  C133  1  0.87261777  0.90651787  0.51064581  1  -0.0611  0  -0.100324  -0.205495  0  4.003314  0
C  C134  1  0.62559326  0.90384003  0.42188892  1  0.374408  0  0.090918  0.26982  0  4.044501  0
C  C135  1  0.57783353  0.81646819  0.42618220  1  0.049918  0  -0.100599  -0.206849  0  3.996367  0
C  C136  1  0.23363527  0.23097859  0.16785914  1  1.56348  0  0.240146  0.616372  0  4.166526  0
C  C137  1  0.36092356  0.32145211  0.13858099  1  -0.065204  0  -0.078136  -0.061528  0  3.989592  0
C  C138  1  0.32888182  0.14035226  0.10222769  1  -0.039359  0  -0.075699  -0.060352  0  3.970944  0
C  C139  1  0.51836626  0.06414986  0.89115098  1  -0.027492  0  -0.027196  -0.064482  0  3.98843  0
C  C140  1  0.52364708  0.17739868  0.00030300  1  0.384622  0  0.090499  0.269637  0  4.046163  0
C  C141  1  0.43239507  0.15313998  0.95728663  1  0.050641  0  -0.104433  -0.215662  0  4.003154  0
C  C142  1  0.30816700  0.23058271  0.13507411  1  -0.025655  0  -0.025226  -0.065732  0  3.991702  0
C  C143  1  0.43051558  0.09685655  0.90290622  1  -0.041738  0  -0.078577  -0.056981  0  3.978049  0
C  C144  1  0.51511402  0.00158278  0.83319667  1  1.557474  0  0.232474  0.606935  0  4.182551  0
C  C145  1  0.60904329  0.08893475  0.93486411  1  -0.034987  0  -0.076321  -0.061212  0  3.975343  0
C  C146  1  0.43342679  0.32283219  0.11008289  1  0.013982  0  -0.098738  -0.20131  0  3.99643  0
C  C147  1  0.61223325  0.14602060  0.98933050  1  -0.005157  0  -0.100303  -0.206135  0  4.002339  0
C  C148  1  0.45400689  0.23224135  0.07815382  1  0.414631  0  0.090418  0.268756  0  4.046576  0
C  C149  1  0.40191606  0.14058393  0.07383354  1  -0.014791  0  -0.101004  -0.209245  0  3.996944  0
C  C150  1  0.76902355  0.76636515  0.83214013  1  1.563534  0  0.24019  0.616365  0  4.166622  0
C  C151  1  0.67855010  0.63907955  0.86141998  1  -0.065292  0  -0.078144  -0.061457  0  3.989599  0
C  C152  1  0.85964985  0.67111984  0.89777267  1  -0.039403  0  -0.075728  -0.060307  0  3.970979  0
C  C153  1  0.93585254  0.48163249  0.10884914  1  -0.027566  0  -0.027174  -0.064479  0  3.988579  0
C  C154  1  0.82260023  0.47635620  0.99969900  1  0.384684  0  0.090587  0.269779  0  4.045856  0
C  C155  1  0.84686011  0.56760569  0.04271500  1  0.050222  0  -0.104442  -0.215684  0  4.002956  0
C  C156  1  0.76941975  0.69183458  0.86492605  1  -0.025728  0  -0.025249  -0.065811  0  3.991805  0
C  C157  1  0.90314580  0.56948418  0.09709522  1  -0.041296  0  -0.078577  -0.057011  0  3.978084  0
C  C158  1  0.99841902  0.48488461  0.16680255  1  1.557381  0  0.232377  0.60676  0  4.18277  0
C  C159  1  0.91106600  0.39095685  0.06513502  1  -0.034959  0  -0.076319  -0.061108  0  3.975301  0
C  C160  1  0.67716811  0.56657715  0.88991783  1  0.01394  0  -0.098623  -0.201322  0  3.996529  0
C  C161  1  0.85397929  0.38776962  0.01066986  1  -0.005269  0  -0.10036  -0.206304  0  4.002276  0
C  C162  1  0.76775642  0.54599731  0.92184696  1  0.414653  0  0.090312  0.268757  0  4.046864  0
C  C163  1  0.85941492  0.59808655  0.92616738  1  -0.014748  0  -0.100935  -0.209257  0  3.996792  0
C  C164  1  0.06302879  0.06568713  0.83216597  1  1.52883  0  0.2412  0.619506  0  4.166025  0
C  C165  1  0.18279789  0.22217386  0.86151608  1  -0.079428  0  -0.078604  -0.060413  0  3.989889  0
C  C166  1  0.03789106  0.22645572  0.89778619  1  -0.043186  0  -0.076412  -0.060773  0  3.973868  0
C  C167  1  0.17301054  0.62710555  0.10890273  1  -0.041381  0  -0.028263  -0.068397  0  3.992363  0
C  C168  1  0.17681192  0.52303365  0.99972053  1  0.394345  0  0.089477  0.26905  0  4.048994  0
C  C169  1  0.19560191  0.47486615  0.04280359  1  -0.051141  0  -0.103259  -0.213242  0  4.002331  0
C  C170  1  0.09536623  0.17292912  0.86496134  1  0.015146  0  -0.025212  -0.068446  0  3.993423  0
C  C171  1  0.19385545  0.52747355  0.09720331  1  -0.00516  0  -0.077026  -0.054951  0  3.976818  0
C  C172  1  0.16858072  0.68195956  0.16686504  1  1.573831  0  0.231933  0.607468  0  4.180772  0
C  C173  1  0.15404584  0.67399777  0.06512353  1  0.021722  0  -0.075613  -0.060298  0  3.9775  0
C  C174  1  0.21263246  0.32312911  0.89002298  1  0.034895  0  -0.099425  -0.203661  0  3.997958  0
C  C175  1  0.15651501  0.62261289  0.01064668  1  -0.061018  0  -0.100301  -0.2057  0  4.003449  0
C  C176  1  0.15383999  0.37559028  0.92189091  1  0.374659  0  0.09088  0.269691  0  4.044607  0
C  C177  1  0.06646742  0.32782842  0.92618362  1  0.04986  0  -0.100615  -0.20679  0  3.996346  0
C  C178  1  0.93431319  0.93697409  0.16783371  1  1.529151  0  0.241271  0.619632  0  4.165811  0
C  C179  1  0.77782638  0.81720306  0.13848509  1  -0.079115  0  -0.078629  -0.060405  0  3.989873  0
C  C180  1  0.77354077  0.96210804  0.10221540  1  -0.043147  0  -0.07647  -0.060855  0  3.973836  0
C  C181  1  0.37289156  0.82699369  0.89109845  1  -0.041729  0  -0.028277  -0.068342  0  3.992225  0
C  C182  1  0.47696271  0.82318468  0.00027973  1  0.394364  0  0.089456  0.268933  0  4.048595  0
C  C183  1  0.52513133  0.80439839  0.95719631  1  -0.051392  0  -0.103306  -0.213274  0  4.002192  0
C  C184  1  0.82707002  0.90463619  0.13504026  1  0.014674  0  -0.025235  -0.068459  0  3.993397  0
C  C185  1  0.47252284  0.80614751  0.90279732  1  -0.00497  0  -0.077011  -0.054994  0  3.976731  0
C  C186  1  0.31803753  0.83142326  0.83313612  1  1.573851  0  0.232009  0.607486  0  4.180507  0
C  C187  1  0.32599986  0.84595456  0.93487769  1  0.021723  0  -0.07562  -0.060388  0  3.977504  0
C  C188  1  0.67687152  0.78736526  0.10997869  1  0.034579  0  -0.099374  -0.203712  0  3.997926  0
C  C189  1  0.37738346  0.84348382  0.98935408  1  -0.061111  0  -0.100316  -0.205525  0  4.003391  0
C  C190  1  0.62440669  0.84615623  0.07811057  1  0.374394  0  0.090869  0.269733  0  4.044714  0
C  C191  1  0.67216638  0.93353017  0.07381798  1  0.049928  0  -0.100586  -0.206848  0  3.996408  0
O  O192  1  0.48607142  0.77876769  0.72023601  1  -1.188108  0  -0.519298  -0.862583  0  2.030307  0
O  O193  1  0.65807825  0.79264454  0.67165124  1  -1.172737  0  -0.287125  -0.573873  0  2.300137  0
O  O194  1  0.81395394  0.75454093  0.70753366  1  -1.197554  0  -0.303303  -0.615109  0  2.308938  0
O  O195  1  0.06849182  0.60225904  0.33981645  1  -1.162387  0  -0.285354  -0.561114  0  2.250337  0
O  O196  1  0.02129107  0.43494863  0.29813368  1  -1.193404  0  -0.291921  -0.590903  0  2.322967  0
O  O197  1  0.71773543  0.51246357  0.44553235  1  -1.098408  0  -0.153327  -0.216397  0  2.552716  0
O  O198  1  0.22123302  0.51392728  0.27976354  1  -1.188051  0  -0.519311  -0.862611  0  2.030283  0
O  O199  1  0.20735097  0.34191902  0.32834764  1  -1.172733  0  -0.287107  -0.573913  0  2.300082  0
O  O200  1  0.24545810  0.18604257  0.29246656  1  -1.197128  0  -0.303324  -0.615196  0  2.30895  0
O  O201  1  0.39774340  0.93151003  0.66018514  1  -1.16231  0  -0.285371  -0.561158  0  2.250407  0
O  O202  1  0.56505464  0.97871011  0.70186691  1  -1.193584  0  -0.29197  -0.590979  0  2.322944  0
O  O203  1  0.48753482  0.28226097  0.55446765  1  -1.098353  0  -0.153365  -0.216448  0  2.552745  0
O  O204  1  0.05849138  0.76560861  0.27969125  1  -1.164466  0  -0.521175  -0.863934  0  2.028993  0
O  O205  1  0.12058170  0.98627517  0.32829880  1  -1.172993  0  -0.286935  -0.573298  0  2.298421  0
O  O206  1  0.04688450  0.10640364  0.29237978  1  -1.193391  0  -0.302906  -0.614888  0  2.308097  0
O  O207  1  0.26270507  0.72869868  0.66027704  1  -1.162142  0  -0.286409  -0.562088  0  2.250194  0
O  O208  1  0.13664595  0.72326332  0.70171587  1  -1.187837  0  -0.291935  -0.591967  0  2.32515  0
O  O209  1  0.06729144  0.27249050  0.55445608  1  -1.102035  0  -0.15249  -0.216606  0  2.551599  0
O  O210  1  0.23439028  0.94151163  0.72030951  1  -1.202008  0  -0.521171  -0.863892  0  2.029096  0
O  O211  1  0.01372769  0.87942038  0.67170169  1  -1.173051  0  -0.286974  -0.573369  0  2.298436  0
O  O212  1  0.89359404  0.95311278  0.70761764  1  -1.19386  0  -0.302892  -0.61484  0  2.308143  0
O  O213  1  0.27130491  0.73729274  0.33972412  1  -1.162199  0  -0.2864  -0.562088  0  2.250268  0
O  O214  1  0.27673551  0.86335064  0.29828637  1  -1.188306  0  -0.291934  -0.591932  0  2.324978  0
O  O215  1  0.72751295  0.93271031  0.44554294  1  -1.101858  0  -0.152524  -0.216665  0  2.55146  0
O  O216  1  0.76392633  0.97123167  0.77976341  1  -1.188119  0  -0.519377  -0.862735  0  2.030189  0
O  O217  1  0.59191447  0.95735236  0.82834693  1  -1.173065  0  -0.287189  -0.573963  0  2.299991  0
O  O218  1  0.43604113  0.99546423  0.79246678  1  -1.196942  0  -0.303302  -0.615179  0  2.308998  0
O  O219  1  0.18150979  0.14774609  0.16018509  1  -1.162361  0  -0.285415  -0.561227  0  2.250482  0
O  O220  1  0.22871125  0.31505606  0.20186558  1  -1.19348  0  -0.29192  -0.59093  0  2.322961  0
O  O221  1  0.53226796  0.23753197  0.05446846  1  -1.098434  0  -0.153261  -0.216344  0  2.552665  0
O  O222  1  0.02876908  0.23607406  0.22023700  1  -1.188087  0  -0.519318  -0.862637  0  2.030251  0
O  O223  1  0.04264887  0.40808286  0.17165215  1  -1.17272  0  -0.287162  -0.573945  0  2.300074  0
O  O224  1  0.00454216  0.56395677  0.20753366  1  -1.197128  0  -0.303256  -0.615057  0  2.309012  0
O  O225  1  0.85225629  0.81849069  0.83981471  1  -1.162322  0  -0.285366  -0.561138  0  2.250546  0
O  O226  1  0.68494644  0.77128697  0.79813285  1  -1.193468  0  -0.291955  -0.590945  0  2.322999  0
O  O227  1  0.76246428  0.46773903  0.94553325  1  -1.098346  0  -0.153297  -0.216415  0  2.552822  0
O  O228  1  0.19151071  0.98439326  0.22031064  1  -1.201976  0  -0.521155  -0.863861  0  2.029061  0
O  O229  1  0.12941981  0.76372464  0.17170252  1  -1.173041  0  -0.286919  -0.573343  0  2.298432  0
O  O230  1  0.20311618  0.64359694  0.20762011  1  -1.193382  0  -0.302914  -0.614935  0  2.308071  0
O  O231  1  0.98729657  0.02130287  0.83972190  1  -1.16208  0  -0.286411  -0.562106  0  2.250385  0
O  O232  1  0.11335467  0.02674044  0.79828460  1  -1.18795  0  -0.291957  -0.591932  0  2.325105  0
O  O233  1  0.18270743  0.47750978  0.94554491  1  -1.102015  0  -0.152488  -0.216589  0  2.551695  0
O  O234  1  0.01560762  0.80849134  0.77969035  1  -1.202016  0  -0.521171  -0.863987  0  2.028955  0
O  O235  1  0.23627346  0.87058535  0.82829916  1  -1.173178  0  -0.286991  -0.573392  0  2.298207  0
O  O236  1  0.35640130  0.79688985  0.79238160  1  -1.193236  0  -0.302899  -0.614874  0  2.308082  0
O  O237  1  0.97869516  0.01270508  0.16027636  1  -1.162161  0  -0.286464  -0.562164  0  2.250286  0
O  O238  1  0.97326342  0.88664798  0.20171507  1  -1.187964  0  -0.291942  -0.591989  0  2.325124  0
O  O239  1  0.52248930  0.81728710  0.05445584  1  -1.1018  0  -0.152504  -0.21657  0  2.551483  0
