# generated using pymatgen
data_NaP2H8C2NO6
_symmetry_space_group_name_H-M   'P 1'
_cell_length_a   5.49708403
_cell_length_b   8.11405515
_cell_length_c   9.00076361
_cell_angle_alpha   99.19710282
_cell_angle_beta   102.79098300
_cell_angle_gamma   100.70155516
_symmetry_Int_Tables_number   1
_chemical_formula_structural   NaP2H8C2NO6
_chemical_formula_sum   'Na2 P4 H16 C4 N2 O12'
_cell_volume   376.14130923
_cell_formula_units_Z   2
loop_
 _symmetry_equiv_pos_site_id
 _symmetry_equiv_pos_as_xyz
  1  'x, y, z'
loop_
 _atom_site_type_symbol
 _atom_site_label
 _atom_site_symmetry_multiplicity
 _atom_site_fract_x
 _atom_site_fract_y
 _atom_site_fract_z
 _atom_site_occupancy
 _atom_site_hle17_bader_spin_density
 _atom_site_hle17_ddec_charge
 _atom_site_hle17_ddec_spin_density
 _atom_site_hle17_ddec_sum_bond_order
 _atom_site_hle17_magmom
 _atom_site_hse06_10hf_bader_spin_density
 _atom_site_hse06_10hf_ddec_charge
 _atom_site_hse06_10hf_ddec_spin_density
 _atom_site_hse06_10hf_ddec_sum_bond_order
 _atom_site_hse06_10hf_magmom
 _atom_site_hse06_bader_spin_density
 _atom_site_hse06_ddec_charge
 _atom_site_hse06_ddec_spin_density
 _atom_site_hse06_ddec_sum_bond_order
 _atom_site_hse06_magmom
 _atom_site_pbe_bader_spin_density
 _atom_site_pbe_cm5_charge
 _atom_site_pbe_ddec_charge
 _atom_site_pbe_ddec_spin_density
 _atom_site_pbe_ddec_sum_bond_order
 _atom_site_pbe_magmom
Na  Na0  1  0.44341527  0.62623992  0.15742990  1  0  0.91832  0  0.359984  0  0  0.883834  0  0.498764  0  0  0.892591  0  0.47877  0  0  0.719749  0.877679  0  0.512134  0
Na  Na1  1  0.55658632  0.37375663  0.84256615  1  0  0.918327  0  0.359981  0  0  0.883831  0  0.498781  0  0  0.892592  0  0.478785  0  0  0.719774  0.877676  0  0.512149  0
P  P2  1  0.85848783  0.99556459  0.26735132  1  0  1.443739  0  4.779454  0  0  1.277412  0  5.286901  0  0  1.32624  0  5.249694  0  0  0.362302  1.24374  0  5.312042  0
P  P3  1  0.14154118  0.00445138  0.73266538  1  0  1.443719  0  4.77949  0  0  1.277319  0  5.286993  0  0  1.326123  0  5.249798  0  0  0.362271  1.243646  0  5.312149  0
P  P4  1  0.90391824  0.34540658  0.15667162  1  0  1.434228  0  4.885614  0  0  1.285111  0  5.390131  0  0  1.333749  0  5.351711  0  0  0.324318  1.251554  0  5.415833  0
P  P5  1  0.09607682  0.65459259  0.84332614  1  0  1.43415  0  4.885736  0  0  1.285035  0  5.390243  0  0  1.33367  0  5.351833  0  0  0.324259  1.251478  0  5.415942  0
H  H6  1  0.75169982  0.91593144  0.47263123  1  0  0.446052  0  0.86051  0  0  0.411576  0  0.9284  0  0  0.423056  0  0.912211  0  0  0.30996  0.403494  0  0.93982  0
H  H7  1  0.24829473  0.08407159  0.52736809  1  0  0.446062  0  0.860489  0  0  0.411613  0  0.928337  0  0  0.423102  0  0.912136  0  0  0.309998  0.40353  0  0.939759  0
H  H8  1  0.37169431  0.07998869  0.25919685  1  0  0.342747  0  0.877541  0  0  0.321079  0  0.939273  0  0  0.329445  0  0.93295  0  0  0.312752  0.315089  0  0.944017  0
H  H9  1  0.62830500  0.92000661  0.74080095  1  0  0.342775  0  0.877545  0  0  0.321067  0  0.939331  0  0  0.32942  0  0.933024  0  0  0.312754  0.315076  0  0.944079  0
H  H10  1  0.39714354  0.26966382  0.21262637  1  0  0.34474  0  0.87594  0  0  0.324271  0  0.938723  0  0  0.333002  0  0.932029  0  0  0.311146  0.31808  0  0.943562  0
H  H11  1  0.60285200  0.73033144  0.78736759  1  0  0.344696  0  0.875918  0  0  0.324261  0  0.938668  0  0  0.332993  0  0.931968  0  0  0.311124  0.31807  0  0.943507  0
H  H12  1  0.01187619  0.33473273  0.49554137  1  0  0.124512  0  0.950229  0  0  0.144215  0  1.011435  0  0  0.146045  0  1.011018  0  0  0.105161  0.142574  0  1.012111  0
H  H13  1  0.98811764  0.66525746  0.50445614  1  0  0.124551  0  0.950149  0  0  0.144259  0  1.011378  0  0  0.146091  0  1.010962  0  0  0.105152  0.142622  0  1.01205  0
H  H14  1  0.72607569  0.40938872  0.44559932  1  0  0.123894  0  0.934681  0  0  0.146394  0  0.991349  0  0  0.148415  0  0.990573  0  0  0.105717  0.144724  0  0.992253  0
H  H15  1  0.27392374  0.59060668  0.55440517  1  0  0.123869  0  0.934676  0  0  0.146375  0  0.991342  0  0  0.148396  0  0.990565  0  0  0.105722  0.144705  0  0.992247  0
H  H16  1  0.71764623  0.21299209  0.50929818  1  0  0.123888  0  0.945356  0  0  0.143884  0  1.006087  0  0  0.146229  0  1.005058  0  0  0.102702  0.142297  0  1.006046  0
H  H17  1  0.28234617  0.78699939  0.49069931  1  0  0.123873  0  0.945439  0  0  0.143897  0  1.006124  0  0  0.146243  0  1.005095  0  0  0.10272  0.142311  0  1.006082  0
H  H18  1  0.41445942  0.10535291  0.08196369  1  0  0.343125  0  0.87244  0  0  0.321166  0  0.937033  0  0  0.329375  0  0.930487  0  0  0.316534  0.31533  0  0.941875  0
H  H19  1  0.58554304  0.89464619  0.91803171  1  0  0.343105  0  0.872421  0  0  0.321135  0  0.937033  0  0  0.329341  0  0.93049  0  0  0.316545  0.315293  0  0.941896  0
H  H20  1  0.99017727  0.18192097  0.95501149  1  0  0.444126  0  0.857424  0  0  0.411509  0  0.922992  0  0  0.423038  0  0.906452  0  0  0.313417  0.403498  0  0.934429  0
H  H21  1  0.00981793  0.81807311  0.04498894  1  0  0.444202  0  0.857322  0  0  0.411512  0  0.922992  0  0  0.423039  0  0.906454  0  0  0.313433  0.403501  0  0.934428  0
C  C22  1  0.75538203  0.20041385  0.27130850  1  0  -0.234379  0  3.569259  0  0  -0.1974  0  3.823334  0  0  -0.207315  0  3.837815  0  0  0.062248  -0.191083  0  3.81385  0
C  C23  1  0.24461344  0.79958656  0.72868726  1  0  -0.234398  0  3.569289  0  0  -0.197414  0  3.82337  0  0  -0.207326  0  3.837853  0  0  0.062222  -0.191099  0  3.81389  0
C  C24  1  0.80600696  0.29496323  0.44062961  1  0  -0.308745  0  3.679875  0  0  -0.39513  0  3.925777  0  0  -0.396879  0  3.935436  0  0  -0.229553  -0.393616  0  3.919117  0
C  C25  1  0.19398810  0.70503593  0.55936815  1  0  -0.308734  0  3.679913  0  0  -0.395194  0  3.925863  0  0  -0.39693  0  3.935488  0  0  -0.229552  -0.393684  0  3.919199  0
N  N26  1  0.47261597  0.15899081  0.20094352  1  0  -0.507642  0  3.229251  0  0  -0.458843  0  3.428151  0  0  -0.473541  0  3.42681  0  0  -0.604694  -0.448956  0  3.429885  0
N  N27  1  0.52738682  0.84101467  0.79905055  1  0  -0.507611  0  3.229243  0  0  -0.45881  0  3.428161  0  0  -0.473508  0  3.426834  0  0  -0.604718  -0.448916  0  3.429874  0
O  O28  1  0.67844480  0.88787146  0.35173108  1  0  -0.790183  0  1.991589  0  0  -0.724449  0  2.233371  0  0  -0.743989  0  2.206494  0  0  -0.427824  -0.710426  0  2.251055  0
O  O29  1  0.32155736  0.11212649  0.64827300  1  0  -0.790124  0  1.991695  0  0  -0.724404  0  2.233494  0  0  -0.743941  0  2.206613  0  0  -0.427831  -0.710384  0  2.251175  0
O  O30  1  0.79718276  0.89726810  0.10054817  1  0  -0.83815  0  1.980847  0  0  -0.759381  0  2.228412  0  0  -0.784105  0  2.209601  0  0  -0.365101  -0.742406  0  2.241663  0
O  O31  1  0.20282678  0.10272976  0.89945243  1  0  -0.838072  0  1.981368  0  0  -0.7593  0  2.228916  0  0  -0.784023  0  2.210114  0  0  -0.365003  -0.742275  0  2.242063  0
O  O32  1  0.13800302  0.03428678  0.35858084  1  0  -0.822826  0  1.998259  0  0  -0.735802  0  2.23192  0  0  -0.761697  0  2.214651  0  0  -0.354512  -0.717237  0  2.242998  0
O  O33  1  0.86198377  0.96573683  0.64142247  1  0  -0.822995  0  1.997779  0  0  -0.735844  0  2.231354  0  0  -0.761709  0  2.214091  0  0  -0.354565  -0.717297  0  2.242447  0
O  O34  1  0.74330237  0.47599930  0.13959620  1  0  -0.9129  0  1.868451  0  0  -0.856954  0  2.133367  0  0  -0.878604  0  2.111411  0  0  -0.489416  -0.841643  0  2.147752  0
O  O35  1  0.25671310  0.52401016  0.86041007  1  0  -0.912895  0  1.868449  0  0  -0.856899  0  2.133283  0  0  -0.878547  0  2.111326  0  0  -0.489369  -0.841589  0  2.147669  0
O  O36  1  0.84325094  0.22816670  0.98500330  1  0  -0.807346  0  2.047233  0  0  -0.743838  0  2.291378  0  0  -0.763344  0  2.263925  0  0  -0.443667  -0.730545  0  2.309302  0
O  O37  1  0.15673428  0.77183635  0.01499481  1  0  -0.807315  0  2.047068  0  0  -0.743737  0  2.291277  0  0  -0.763242  0  2.263822  0  0  -0.443677  -0.73044  0  2.309202  0
O  O38  1  0.18959890  0.40379460  0.22992307  1  0  -0.86722  0  1.891121  0  0  -0.798697  0  2.134065  0  0  -0.821764  0  2.11487  0  0  -0.431254  -0.782205  0  2.146378  0
O  O39  1  0.81040840  0.59619684  0.77007526  1  0  -0.867163  0  1.891154  0  0  -0.798659  0  2.134102  0  0  -0.821731  0  2.114914  0  0  -0.431243  -0.782166  0  2.14641  0
