# generated using pymatgen
data_MnH19C25(NO2)2
_symmetry_space_group_name_H-M   'P 1'
_cell_length_a   9.93670084
_cell_length_b   10.81592465
_cell_length_c   11.23169652
_cell_angle_alpha   112.24073386
_cell_angle_beta   102.99935245
_cell_angle_gamma   101.29361070
_symmetry_Int_Tables_number   1
_chemical_formula_structural   MnH19C25(NO2)2
_chemical_formula_sum   'Mn2 H38 C50 N4 O8'
_cell_volume   1034.49847284
_cell_formula_units_Z   2
loop_
 _symmetry_equiv_pos_site_id
 _symmetry_equiv_pos_as_xyz
  1  'x, y, z'
loop_
 _atom_site_type_symbol
 _atom_site_label
 _atom_site_symmetry_multiplicity
 _atom_site_fract_x
 _atom_site_fract_y
 _atom_site_fract_z
 _atom_site_occupancy
 _atom_site_hle17_ddec_charge
 _atom_site_hle17_ddec_spin_density
 _atom_site_hle17_ddec_sum_bond_order
 _atom_site_hle17_magmom
 _atom_site_hse06_10hf_ddec_charge
 _atom_site_hse06_10hf_ddec_spin_density
 _atom_site_hse06_10hf_ddec_sum_bond_order
 _atom_site_hse06_10hf_magmom
 _atom_site_hse06_ddec_charge
 _atom_site_hse06_ddec_spin_density
 _atom_site_hse06_ddec_sum_bond_order
 _atom_site_hse06_magmom
 _atom_site_pbe_cm5_charge
 _atom_site_pbe_ddec_charge
 _atom_site_pbe_ddec_spin_density
 _atom_site_pbe_ddec_sum_bond_order
 _atom_site_pbe_magmom
Mn  Mn0  1  0.95596021  0.08808015  0.60348622  1  1.090353  -4.712982  1.953179  -4.599  0.919865  -4.565378  2.517202  -4.399  0.992892  -4.656541  2.419559  -4.505  0.597291  0.859265  -4.460376  2.59226  -4.282
Mn  Mn1  1  0.04403718  0.91191227  0.39651019  1  1.090355  4.713018  1.953095  4.599  0.919899  4.565393  2.517114  4.399  0.992931  4.656551  2.41947  4.505  0.597292  0.859292  4.4604  2.592172  4.283
H  H2  1  0.78875057  0.00390813  0.06638779  1  0.099147  4.5e-05  0.964369  0.0  0.107929  -4.4e-05  1.033059  0.0  0.11101  -5.8e-05  1.031267  0.0  0.103992  0.105388  -3.9e-05  1.034985  0.0
H  H3  1  0.21124584  0.99609063  0.93361071  1  0.099125  -4.8e-05  0.964365  0.0  0.107893  4.4e-05  1.03308  0.0  0.110974  5.8e-05  1.031285  0.0  0.103963  0.105351  3.9e-05  1.035005  0.0
H  H4  1  0.32292289  0.01079472  0.16204378  1  0.096256  -8.9e-05  0.956245  0.0  0.107222  -3.6e-05  1.018115  0.0  0.109924  -5.3e-05  1.017431  0.0  0.102283  0.104935  -2.4e-05  1.019318  0.0
H  H5  1  0.67707625  0.98920298  0.83795845  1  0.096277  9e-05  0.956173  0.0  0.107241  3.6e-05  1.018047  0.0  0.109942  5.3e-05  1.017362  0.0  0.102288  0.104948  2.4e-05  1.019268  0.0
H  H6  1  0.54268785  0.03697398  0.34061218  1  0.101868  0.000132  0.937366  0.0  0.11301  9.4e-05  0.994647  0.0  0.116822  0.000116  0.991991  0.0  0.106146  0.110188  5.8e-05  0.996612  0.0
H  H7  1  0.45731059  0.96302162  0.65938826  1  0.101905  -0.000134  0.937292  0.0  0.112982  -9.5e-05  0.994641  0.0  0.116793  -0.000115  0.991986  0.0  0.106121  0.11016  -5.8e-05  0.996606  0.0
H  H8  1  0.38219869  0.20942709  0.39636157  1  0.1068  -0.000157  0.958885  0.0  0.116086  -0.000132  1.023138  0.0  0.11946  -0.000171  1.020755  0.0  0.10596  0.1137  -8.7e-05  1.024749  0.0
H  H9  1  0.61779634  0.79057067  0.60364164  1  0.106851  0.000145  0.958812  0.0  0.116147  0.000132  1.023039  0.0  0.119522  0.000171  1.020653  0.0  0.106  0.113763  8.7e-05  1.024648  0.0
H  H10  1  0.44742206  0.70480582  0.70977397  1  0.095435  5.5e-05  0.971015  0.0  0.106459  6.3e-05  1.030972  0.0  0.10853  4.3e-05  1.031838  0.0  0.098637  0.105079  3.6e-05  1.030438  0.0
H  H11  1  0.55255958  0.29519205  0.29021770  1  0.095269  -7e-05  0.971178  0.0  0.106367  -6.4e-05  1.031068  0.0  0.108438  -4.3e-05  1.031933  0.0  0.09861  0.104988  -3.6e-05  1.030539  0.0
H  H12  1  0.28469833  0.50572256  0.72001067  1  0.099927  6.3e-05  0.966111  0.0  0.110673  4.8e-05  1.027867  0.0  0.11376  7.8e-05  1.026392  0.0  0.104894  0.108242  2e-06  1.029298  0.0
H  H13  1  0.71529052  0.49427524  0.27998598  1  0.099916  -6.6e-05  0.966167  0.0  0.110714  -4.9e-05  1.027862  0.0  0.113798  -7.8e-05  1.026389  0.0  0.104921  0.108297  -2e-06  1.029258  0.0
H  H14  1  0.74246196  0.28548432  0.62223108  1  0.102908  0.000423  0.923729  0.0  0.113  6.2e-05  0.985913  0.0  0.115975  0.000128  0.981643  0.0  0.144336  0.110997  -3e-06  0.98848  0.0
H  H15  1  0.25753786  0.71451229  0.37776732  1  0.102895  -0.000423  0.923755  0.0  0.112999  -6.2e-05  0.985917  0.0  0.115973  -0.000129  0.981651  0.0  0.144341  0.110996  4e-06  0.988495  0.0
H  H16  1  0.02787495  0.11231741  0.91308343  1  0.116344  7.8e-05  0.978037  0.0  0.126376  -5.5e-05  1.042564  0.0  0.1296  9e-06  1.040619  0.0  0.105272  0.123953  -0.000118  1.044231  0.0
H  H17  1  0.97213249  0.88768966  0.08691937  1  0.116332  -8.3e-05  0.978029  0.0  0.12637  5.4e-05  1.042568  0.0  0.12962  -9e-06  1.04059  0.0  0.105267  0.123943  0.000118  1.044236  0.0
H  H18  1  0.83151336  0.50364339  0.13235502  1  0.118231  -0.000243  0.961635  0.0  0.127612  -0.000308  1.025573  0.0  0.130746  -0.000286  1.024034  0.0  0.106135  0.125275  -0.000345  1.026766  0.0
H  H19  1  0.16848924  0.49635844  0.86764225  1  0.118283  0.000268  0.961565  0.0  0.127648  0.000308  1.025525  0.0  0.130783  0.000286  1.023985  0.0  0.106132  0.125315  0.000345  1.026721  0.0
H  H20  1  0.12690770  0.11362182  0.12343057  1  0.097302  -9e-06  0.964146  0.0  0.119612  1e-05  1.027308  0.0  0.120469  3e-06  1.027493  0.0  0.086649  0.118997  1.5e-05  1.027371  0.0
H  H21  1  0.87309594  0.88638004  0.87657315  1  0.097286  7e-06  0.964157  0.0  0.119611  -1e-05  1.027304  0.0  0.120468  -3e-06  1.027489  0.0  0.086652  0.118997  -1.5e-05  1.027369  0.0
H  H22  1  0.03733847  0.16350343  0.24540467  1  0.119751  -0.000308  0.956161  0.0  0.140885  -0.000344  1.015435  0.0  0.141727  -0.000347  1.016407  0.0  0.093997  0.140095  -0.000336  1.01509  0.0
H  H23  1  0.96265933  0.83649953  0.75459473  1  0.119741  0.000311  0.956201  0.0  0.140884  0.000345  1.015465  0.0  0.141726  0.000347  1.016437  0.0  0.093998  0.140092  0.000336  1.015125  0.0
H  H24  1  0.19500720  0.28428707  0.26134821  1  0.099501  4e-06  0.979453  0.0  0.120207  -8e-06  1.04409  0.0  0.120559  -5e-06  1.045865  0.0  0.085842  0.120058  -1.9e-05  1.042582  0.0
H  H25  1  0.80499437  0.71571483  0.73865601  1  0.099523  8e-06  0.979472  0.0  0.120232  8e-06  1.044106  0.0  0.120584  4e-06  1.045881  0.0  0.085856  0.120083  1.9e-05  1.042596  0.0
H  H26  1  0.95625801  0.52851197  0.35061440  1  0.115826  -0.000224  0.967035  0.0  0.133936  -0.000274  1.031759  0.0  0.136006  -0.000284  1.030894  0.0  0.092255  0.132442  -0.000259  1.032286  0.0
H  H27  1  0.04374014  0.47149201  0.64938010  1  0.115875  0.000239  0.966938  0.0  0.134008  0.000274  1.031623  0.0  0.136078  0.000284  1.030756  0.0  0.09228  0.132514  0.000259  1.032156  0.0
H  H28  1  0.10374682  0.45936690  0.36824504  1  0.102111  1.4e-05  0.950714  0.0  0.12285  -0.0  1.013645  0.0  0.123476  8e-06  1.014903  0.0  0.087947  0.122287  1e-06  1.012898  0.0
H  H29  1  0.89625374  0.54063814  0.63175477  1  0.102132  2e-06  0.950712  0.0  0.122871  1e-06  1.013632  0.0  0.123497  -8e-06  1.014892  0.0  0.08796  0.122308  -1e-06  1.012885  0.0
H  H30  1  0.93069749  0.36011776  0.34914087  1  0.113824  7.1e-05  0.932357  0.0  0.137965  3.2e-05  0.986739  0.0  0.138628  4.7e-05  0.987778  0.0  0.093076  0.137322  1.6e-05  0.986238  0.0
H  H31  1  0.06930134  0.63988517  0.65085427  1  0.113834  -4.4e-05  0.932297  0.0  0.137935  -3.2e-05  0.986735  0.0  0.138605  -4.7e-05  0.987766  0.0  0.093054  0.137291  -1.6e-05  0.986237  0.0
H  H32  1  0.64046910  0.46101735  0.73931166  1  0.08209  1.3e-05  0.932625  0.0  0.095912  1e-06  0.999941  0.0  0.095253  6e-06  1.002029  0.0  0.113159  0.096694  -1.6e-05  0.997647  0.0
H  H33  1  0.35953381  0.53898237  0.26068403  1  0.08214  -7e-06  0.932688  0.0  0.096001  -1e-06  0.999946  0.0  0.095341  -6e-06  1.002034  0.0  0.11318  0.096784  1.6e-05  0.997651  0.0
H  H34  1  0.78377525  0.58620844  0.89000719  1  0.07766  -0.000149  0.968937  0.0  0.092999  -0.000247  1.031205  0.0  0.092908  -0.000194  1.032672  0.0  0.108471  0.093002  -0.000297  1.030381  0.0
H  H35  1  0.21623111  0.41379227  0.10998776  1  0.077745  0.00013  0.968901  0.0  0.093051  0.000247  1.031205  0.0  0.092958  0.000194  1.032673  0.0  0.108479  0.093057  0.000297  1.030383  0.0
H  H36  1  0.69393109  0.71484748  0.05127127  1  0.09754  -0.000134  0.957287  0.0  0.10688  -0.000186  1.02086  0.0  0.109299  -0.000189  1.020556  0.0  0.100622  0.105097  -0.00019  1.021046  0.0
H  H37  1  0.30607663  0.28515115  0.94872943  1  0.097542  0.000149  0.957237  0.0  0.106918  0.000186  1.020771  0.0  0.109338  0.000189  1.020469  0.0  0.100619  0.105137  0.000189  1.020962  0.0
H  H38  1  0.47843066  0.26833511  0.81949772  1  0.09182  2.4e-05  0.952889  0.0  0.102064  1.4e-05  1.01525  0.0  0.104118  2e-05  1.015475  0.0  0.099032  0.100675  3.3e-05  1.014873  0.0
H  H39  1  0.52158152  0.73166452  0.18050423  1  0.091864  -2.2e-05  0.952842  0.0  0.102116  -1.3e-05  1.015191  0.0  0.104169  -2e-05  1.01542  0.0  0.099021  0.100727  -3.3e-05  1.014813  0.0
C  C40  1  0.80844874  0.03643265  0.31968474  1  0.65485  0.000594  3.894127  0.001  0.601167  0.000569  4.185354  0.001  0.639013  0.000315  4.177494  0.001  0.219923  0.574677  -0.000627  4.189392  0.0
C  C41  1  0.19155005  0.96356398  0.68031436  1  0.654962  -0.000594  3.893764  -0.001  0.60116  -0.000576  4.185204  -0.001  0.639003  -0.000317  4.177346  -0.001  0.219917  0.574672  0.000622  4.189239  0.0
C  C42  1  0.67859009  0.02236819  0.21272354  1  -0.054691  0.002731  3.771033  0.002  -0.032162  0.002091  4.007794  0.002  -0.038443  0.002168  4.027372  0.002  -0.015745  -0.028643  0.002293  3.995985  0.002
C  C43  1  0.32140699  0.97762952  0.78727650  1  -0.054742  -0.002782  3.770985  -0.002  -0.032216  -0.002089  4.007815  -0.002  -0.038496  -0.002169  4.027393  -0.002  -0.015733  -0.028697  -0.002295  3.996006  -0.002
C  C44  1  0.68712389  0.00717090  0.08693550  1  -0.110125  -0.003842  3.70295  -0.003  -0.142636  -0.003432  3.950889  -0.003  -0.141419  -0.003033  3.968471  -0.002  -0.080213  -0.143925  -0.004995  3.939855  -0.004
C  C45  1  0.31287389  0.99282891  0.91306544  1  -0.110086  0.003895  3.702998  0.003  -0.142603  0.003429  3.950939  0.003  -0.141387  0.003032  3.968522  0.002  -0.080192  -0.143892  0.004994  3.939904  0.004
C  C46  1  0.56689361  0.99894234  0.98592150  1  0.061384  0.001936  3.785161  0.002  0.079157  0.001502  4.009256  0.001  0.078736  0.00152  4.032654  0.001  -0.002668  0.079601  0.001855  3.993077  0.002
C  C47  1  0.43310245  0.00105538  0.01407834  1  0.061229  -0.00194  3.785287  -0.002  0.079104  -0.001501  4.009277  -0.001  0.078684  -0.001519  4.032675  -0.001  -0.002708  0.079546  -0.001855  3.993098  -0.002
C  C48  1  0.42582368  0.01224288  0.14257591  1  -0.110291  0.002314  3.741352  0.002  -0.131354  0.001412  3.995715  0.001  -0.133119  0.001586  4.015222  0.001  -0.08783  -0.130513  0.00164  3.983147  0.001
C  C49  1  0.57417443  0.98775483  0.85742523  1  -0.11032  -0.002361  3.741271  -0.002  -0.131356  -0.001415  3.995643  -0.001  -0.13312  -0.001587  4.01515  -0.001  -0.087783  -0.130515  -0.001641  3.983082  -0.001
C  C50  1  0.54649075  0.02540413  0.24076963  1  -0.081919  -0.001474  3.75827  -0.001  -0.10775  -0.000564  4.015038  0.0  -0.107842  -0.000926  4.032755  -0.001  -0.08635  -0.10797  -0.000548  4.003904  0.0
C  C51  1  0.45350699  0.97458936  0.75922992  1  -0.081919  0.001523  3.758206  0.001  -0.107672  0.000567  4.014935  0.001  -0.107763  0.000927  4.032652  0.001  -0.086335  -0.10789  0.000548  4.003801  0.0
C  C52  1  0.21303605  0.22549693  0.55114692  1  0.652526  0.000864  3.890228  0.001  0.602418  0.001246  4.175852  0.002  0.639292  0.000829  4.170395  0.001  0.220215  0.576938  0.002109  4.177437  0.002
C  C53  1  0.78695628  0.77450512  0.44886174  1  0.652338  -0.000887  3.890543  -0.001  0.602312  -0.001253  4.176057  -0.002  0.639187  -0.000835  4.170604  -0.001  0.220268  0.576832  -0.002116  4.177636  -0.002
C  C54  1  0.32194108  0.34567879  0.55561665  1  -0.062843  6e-05  3.767227  0.0  -0.041164  -4.9e-05  4.004713  0.0  -0.048117  -0.000115  4.025351  0.0  -0.017725  -0.037206  -0.000111  3.990805  0.0
C  C55  1  0.67805054  0.65432113  0.44438754  1  -0.062922  -1.9e-05  3.767316  0.0  -0.041264  5e-05  4.004797  0.0  -0.04822  0.000121  4.025439  0.0  -0.017781  -0.037309  0.00011  3.990884  0.0
C  C56  1  0.39836418  0.31833905  0.46441547  1  -0.120588  0.000667  3.722999  0.001  -0.151375  0.000726  3.971711  0.001  -0.150244  0.000619  3.988527  0.001  -0.083058  -0.151659  0.000833  3.959435  0.001
C  C57  1  0.60162811  0.68165978  0.53558402  1  -0.120629  -0.000682  3.722871  -0.001  -0.15143  -0.00073  3.97162  -0.001  -0.150299  -0.000622  3.988439  -0.001  -0.083068  -0.151714  -0.000834  3.959344  -0.001
C  C58  1  0.49198147  0.42875133  0.45552078  1  0.041876  -0.000207  3.817602  0.0  0.056449  -2e-06  4.051088  0.0  0.056242  -8.3e-05  4.074282  0.0  -0.012353  0.056556  -0.000512  4.034538  -0.001
C  C59  1  0.50800704  0.57124543  0.54447811  1  0.041882  0.000221  3.817587  0.0  0.056429  5e-06  4.051077  0.0  0.056223  8.2e-05  4.074272  0.0  -0.01238  0.056535  0.000511  4.034532  0.001
C  C60  1  0.43236947  0.59649085  0.64049683  1  -0.11465  -0.000653  3.737102  -0.001  -0.131118  -0.000661  3.982649  0.0  -0.134215  -0.000627  4.003434  0.0  -0.092369  -0.128967  -0.000393  3.968368  0.0
C  C61  1  0.56761871  0.40350803  0.35950274  1  -0.114468  0.000686  3.737053  0.001  -0.131014  0.000657  3.982608  0.0  -0.134111  0.000632  4.003392  0.0  -0.092351  -0.128868  0.000393  3.968336  0.0
C  C62  1  0.34189721  0.48648870  0.64618830  1  -0.06806  0.000606  3.752722  0.0  -0.0938  0.000379  4.003486  0.0  -0.093587  0.000463  4.023335  0.0  -0.082488  -0.093501  0.000613  3.989922  0.0
C  C63  1  0.65809955  0.51351114  0.35381423  1  -0.068029  -0.00062  3.75259  0.0  -0.093805  -0.000375  4.00336  0.0  -0.09359  -0.000469  4.023205  0.0  -0.082499  -0.093504  -0.000614  3.989805  0.0
C  C64  1  0.78732142  0.28822929  0.72112067  1  0.209828  -0.007502  3.63894  -0.007  0.145106  -0.010055  3.908238  -0.009  0.16307  -0.008805  3.918919  -0.008  0.169969  0.133106  -0.011343  3.90011  -0.01
C  C65  1  0.21267945  0.71177047  0.27887819  1  0.209892  0.007539  3.639075  0.007  0.145136  0.010052  3.908358  0.009  0.163098  0.008809  3.919037  0.008  0.170007  0.133136  0.011344  3.900244  0.01
C  C66  1  0.84346508  0.35311860  0.94341485  1  0.096476  -0.000512  3.790172  -0.001  0.08085  -0.001025  4.044857  -0.001  0.084465  -0.000558  4.067599  -0.001  0.085677  0.078338  -0.001382  4.029436  -0.001
C  C67  1  0.15654066  0.64688958  0.05659335  1  0.096293  0.000589  3.79032  0.001  0.080712  0.001025  4.044868  0.001  0.084336  0.000556  4.067596  0.001  0.085576  0.078187  0.001381  4.029474  0.001
C  C68  1  0.90193470  0.24569649  0.88271585  1  0.149435  -0.002863  3.856417  -0.003  0.144668  -0.004504  4.109342  -0.005  0.148215  -0.003803  4.133975  -0.004  0.088604  0.142094  -0.00516  4.092261  -0.005
C  C69  1  0.09806789  0.75430535  0.11728321  1  0.149518  0.002815  3.856424  0.003  0.14473  0.004502  4.109352  0.005  0.148271  0.003805  4.133988  0.004  0.08864  0.142165  0.005159  4.092262  0.005
C  C70  1  0.98192895  0.19398868  0.96091528  1  -0.215772  0.000345  3.742236  0.0  -0.242285  -0.000309  3.994528  0.0  -0.246132  -4.2e-05  4.013688  0.0  -0.099177  -0.239475  -0.000558  3.981588  0.0
C  C71  1  0.01807606  0.80601420  0.03908552  1  -0.215762  -0.0002  3.742263  0.0  -0.242281  0.000307  3.994566  0.0  -0.246151  4.4e-05  4.013719  0.0  -0.099205  -0.239471  0.000557  3.981621  0.0
C  C72  1  0.00544662  0.25237481  0.10064913  1  0.07309  -0.00035  3.762844  0.0  0.092472  -0.000328  4.002545  0.0  0.091892  -0.000308  4.027964  0.0  -0.020663  0.092939  -0.000377  3.985254  0.0
C  C73  1  0.99455839  0.74762807  0.89935257  1  0.07309  0.000203  3.762751  0.0  0.092454  0.000331  4.002533  0.0  0.091869  0.000303  4.027958  0.0  -0.020653  0.092917  0.000377  3.98524  0.0
C  C74  1  0.95165877  0.36524887  0.16294346  1  0.088819  0.00075  3.716735  0.001  0.109702  0.00038  3.955803  0.0  0.108826  0.00056  3.981832  0.0  -0.012266  0.110019  0.000215  3.938188  0.0
C  C75  1  0.04834694  0.63475612  0.83705913  1  0.0888  -0.000588  3.71664  0.0  0.109645  -0.000381  3.955761  0.0  0.108771  -0.000558  3.981788  0.0  -0.012231  0.109961  -0.000216  3.938145  0.0
C  C76  1  0.86986993  0.41574860  0.08406429  1  -0.19664  -0.000748  3.71679  -0.001  -0.224464  -0.000614  3.972565  0.0  -0.227593  -0.000623  3.992436  0.0  -0.096415  -0.222132  -0.000636  3.958893  0.0
C  C77  1  0.13013780  0.58425316  0.91593220  1  -0.196532  0.000564  3.716365  0.0  -0.224341  0.000614  3.972091  0.0  -0.227473  0.000623  3.991954  0.0  -0.09634  -0.222007  0.000636  3.95843  0.0
C  C78  1  0.09497681  0.20066700  0.18659235  1  -0.331016  2.8e-05  3.7314  0.0  -0.410279  1.3e-05  3.966843  0.0  -0.412308  -1e-06  3.977988  0.0  -0.244201  -0.408775  2.3e-05  3.959369  0.0
C  C79  1  0.90502543  0.79933381  0.81340805  1  -0.331043  -4.7e-05  3.731417  0.0  -0.410323  -1.4e-05  3.96685  0.0  -0.412349  2e-06  3.97799  0.0  -0.244246  -0.408815  -2.4e-05  3.959378  0.0
C  C80  1  0.98690144  0.43219733  0.31523335  1  -0.332937  -5.7e-05  3.727598  0.0  -0.40951  -1.9e-05  3.960462  0.0  -0.411958  -2.2e-05  3.971395  0.0  -0.241147  -0.40757  -4e-06  3.953271  0.0
C  C81  1  0.01310082  0.56780661  0.68476373  1  -0.333023  -4.1e-05  3.727481  0.0  -0.409558  1.9e-05  3.9603  0.0  -0.41201  2e-05  3.971229  0.0  -0.241184  -0.407617  4e-06  3.953112  0.0
C  C82  1  0.69893215  0.48419679  0.84475878  1  -0.034617  -0.000297  3.661365  0.0  -0.101846  -0.000474  3.909449  0.0  -0.096686  -0.000357  3.920369  0.0  -0.046814  -0.105297  -0.000587  3.901781  0.0
C  C83  1  0.30107420  0.51580393  0.15523706  1  -0.034817  0.000324  3.661626  0.0  -0.102065  0.000473  3.909648  0.0  -0.096904  0.000358  3.920573  0.0  -0.046787  -0.105505  0.000587  3.901985  0.0
C  C84  1  0.59653270  0.49076815  0.92569769  1  0.058915  -3.4e-05  3.770393  0.0  0.079568  -9.5e-05  4.008771  0.0  0.078613  -6.5e-05  4.032811  0.0  -0.01384  0.079912  -8.1e-05  3.992497  0.0
C  C85  1  0.40347401  0.50923365  0.07430218  1  0.059026  5.4e-05  3.77039  0.0  0.079615  9.5e-05  4.008858  0.0  0.078663  6.7e-05  4.032891  0.0  -0.013866  0.079956  8.1e-05  3.992593  0.0
C  C86  1  0.60807657  0.62058207  0.02781909  1  -0.108679  -0.000217  3.740076  0.0  -0.125423  -0.000251  3.983232  0.0  -0.128005  -0.000217  4.004977  0.0  -0.088446  -0.123368  -0.000222  3.968621  0.0
C  C87  1  0.39193290  0.37942181  0.97218296  1  -0.108805  0.000168  3.74007  0.0  -0.125573  0.000252  3.983267  0.0  -0.128157  0.000216  4.005012  0.0  -0.088482  -0.123518  0.000222  3.968665  0.0
C  C88  1  0.48817519  0.37014913  0.89858802  1  -0.0982  -1.6e-05  3.746055  0.0  -0.121519  -1.8e-05  3.998016  0.0  -0.123995  6e-06  4.020465  0.0  -0.089882  -0.120117  -3e-06  3.982753  0.0
C  C89  1  0.51183770  0.62985260  0.10141393  1  -0.09832  1.8e-05  3.746063  0.0  -0.121639  1.7e-05  3.99805  0.0  -0.124116  -5e-06  4.020501  0.0  -0.089879  -0.120237  3e-06  3.982787  0.0
N  N90  1  0.86665171  0.20884085  0.74410056  1  -0.413237  -0.034178  3.166614  -0.016  -0.345584  -0.036441  3.461143  -0.012  -0.371176  -0.032215  3.471387  -0.008  -0.35233  -0.32623  -0.039584  3.453445  -0.014
N  N91  1  0.13335086  0.79115783  0.25589825  1  -0.413306  0.034148  3.166769  0.016  -0.34568  0.036444  3.461338  0.012  -0.371264  0.032218  3.471574  0.008  -0.352397  -0.326333  0.039588  3.453637  0.014
N  N92  1  0.76925818  0.37600087  0.83645437  1  -0.115393  -0.002936  3.518281  -0.003  -0.025162  -0.004796  3.742222  -0.005  -0.041937  -0.003903  3.766172  -0.004  -0.233794  -0.013975  -0.005706  3.725936  -0.006
N  N93  1  0.23074371  0.62399886  0.16354201  1  -0.115345  0.002906  3.518646  0.003  -0.02503  0.004801  3.742438  0.005  -0.041805  0.003901  3.766389  0.004  -0.233807  -0.013862  0.005706  3.726179  0.006
O  O94  1  0.82323127  0.11217249  0.44327628  1  -0.629891  -0.02829  2.050996  -0.016  -0.564911  -0.029659  2.315663  -0.014  -0.598933  -0.027245  2.301328  -0.012  -0.304324  -0.538252  -0.033996  2.324096  -0.019
O  O95  1  0.17678093  0.88783028  0.55672414  1  -0.629886  0.028278  2.050811  0.016  -0.564863  0.029657  2.315516  0.014  -0.598887  0.027239  2.301192  0.012  -0.304348  -0.538202  0.033993  2.323948  0.019
O  O96  1  0.89677690  0.97160422  0.28046180  1  -0.643932  0.030182  2.077216  0.016  -0.575191  0.033626  2.352879  0.015  -0.609052  0.030148  2.336933  0.011  -0.304361  -0.548558  0.037718  2.362516  0.019
O  O97  1  0.10321253  0.02837985  0.71953003  1  -0.64406  -0.030175  2.077168  -0.016  -0.575247  -0.033628  2.352878  -0.015  -0.609103  -0.03015  2.336929  -0.011  -0.304374  -0.54862  -0.037722  2.362524  -0.019
O  O98  1  0.13377732  0.25197309  0.62675608  1  -0.626541  -0.027561  2.031825  -0.015  -0.561489  -0.029592  2.297624  -0.012  -0.595342  -0.027186  2.284574  -0.01  -0.301052  -0.535218  -0.034583  2.305056  -0.018
O  O99  1  0.86622423  0.74802257  0.37326103  1  -0.626415  0.02756  2.032054  0.015  -0.561428  0.02959  2.297858  0.012  -0.595282  0.027184  2.284808  0.01  -0.301046  -0.535159  0.03458  2.305287  0.018
O  O100  1  0.20428376  0.10256345  0.46786904  1  -0.641723  0.031099  2.083419  0.019  -0.57398  0.032324  2.351999  0.017  -0.609331  0.02921  2.337689  0.013  -0.310791  -0.546409  0.036956  2.360338  0.022
O  O101  1  0.79569898  0.89744389  0.53212448  1  -0.641636  -0.03109  2.083451  -0.019  -0.573897  -0.03232  2.351981  -0.017  -0.609251  -0.029209  2.337679  -0.013  -0.310853  -0.546328  -0.036954  2.36032  -0.022
