# generated using pymatgen
data_ZnH18C22(NO)4
_symmetry_space_group_name_H-M   'P 1'
_cell_length_a   11.80810092
_cell_length_b   11.82372248
_cell_length_c   13.53808115
_cell_angle_alpha   110.89522266
_cell_angle_beta   89.99957334
_cell_angle_gamma   119.95736204
_symmetry_Int_Tables_number   1
_chemical_formula_structural   ZnH18C22(NO)4
_chemical_formula_sum   'Zn2 H36 C44 N8 O8'
_cell_volume   1492.41248825
_cell_formula_units_Z   2
loop_
 _symmetry_equiv_pos_site_id
 _symmetry_equiv_pos_as_xyz
  1  'x, y, z'
loop_
 _atom_site_type_symbol
 _atom_site_label
 _atom_site_symmetry_multiplicity
 _atom_site_fract_x
 _atom_site_fract_y
 _atom_site_fract_z
 _atom_site_occupancy
 _atom_site_hle17_bader_spin_density
 _atom_site_hle17_ddec_charge
 _atom_site_hle17_ddec_spin_density
 _atom_site_hle17_ddec_sum_bond_order
 _atom_site_hle17_magmom
 _atom_site_hse06_10hf_bader_spin_density
 _atom_site_hse06_10hf_ddec_charge
 _atom_site_hse06_10hf_ddec_spin_density
 _atom_site_hse06_10hf_ddec_sum_bond_order
 _atom_site_hse06_10hf_magmom
 _atom_site_hse06_bader_spin_density
 _atom_site_hse06_ddec_charge
 _atom_site_hse06_ddec_spin_density
 _atom_site_hse06_ddec_sum_bond_order
 _atom_site_hse06_magmom
 _atom_site_pbe_bader_spin_density
 _atom_site_pbe_cm5_charge
 _atom_site_pbe_ddec_charge
 _atom_site_pbe_ddec_spin_density
 _atom_site_pbe_ddec_sum_bond_order
 _atom_site_pbe_magmom
Zn  Zn0  1  0.97948896  0.00000222  0.75000056  1  0  0.998523  0  1.904234  0  0  0.8081  0  2.392035  0  0  0.853321  0  2.338013  0  0  0.6969  0.776514  0  2.429433  0
Zn  Zn1  1  0.02050664  0.99999105  0.24999871  1  0  0.998554  0  1.904333  0  0  0.808126  0  2.392104  0  0  0.853347  0  2.338074  0  0  0.696918  0.776537  0  2.429507  0
H  H2  1  0.20810152  0.17168778  0.96861449  1  0  0.112521  0  0.947368  0  0  0.120659  0  1.011181  0  0  0.123838  0  1.006975  0  0  0.137846  0.118202  0  1.014356  0
H  H3  1  0.03641533  0.82831674  0.53138651  1  0  0.11248  0  0.947426  0  0  0.120632  0  1.011225  0  0  0.123778  0  1.007062  0  0  0.137858  0.118171  0  1.014402  0
H  H4  1  0.79190077  0.82830870  0.03138580  1  0  0.112451  0  0.947432  0  0  0.120587  0  1.011258  0  0  0.12375  0  1.007078  0  0  0.137806  0.118126  0  1.014436  0
H  H5  1  0.96359000  0.17168414  0.46860854  1  0  0.112468  0  0.947391  0  0  0.120602  0  1.011211  0  0  0.123751  0  1.00705  0  0  0.137841  0.118143  0  1.014386  0
H  H6  1  0.93464965  0.72964727  0.78648304  1  0  0.116501  0  0.952509  0  0  0.127825  0  1.005934  0  0  0.130386  0  1.004773  0  0  0.12051  0.125999  0  1.006769  0
H  H7  1  0.20499817  0.27035502  0.71351356  1  0  0.116474  0  0.952643  0  0  0.127807  0  1.00605  0  0  0.13037  0  1.004889  0  0  0.120503  0.125985  0  1.006881  0
H  H8  1  0.06535772  0.27034921  0.21351725  1  0  0.116575  0  0.952557  0  0  0.127828  0  1.006045  0  0  0.130391  0  1.004891  0  0  0.120552  0.126018  0  1.006861  0
H  H9  1  0.79499790  0.72963920  0.28649340  1  0  0.116426  0  0.952675  0  0  0.127792  0  1.006049  0  0  0.130346  0  1.004888  0  0  0.120481  0.125936  0  1.00692  0
H  H10  1  0.10035278  0.76588595  0.95698152  1  0  0.111388  0  0.975916  0  0  0.121991  0  1.03578  0  0  0.12345  0  1.036929  0  0  0.120733  0.120721  0  1.035492  0
H  H11  1  0.33446283  0.23412483  0.54301421  1  0  0.111417  0  0.975934  0  0  0.121933  0  1.035892  0  0  0.123392  0  1.037043  0  0  0.120741  0.120662  0  1.035604  0
H  H12  1  0.89966175  0.23411809  0.04301750  1  0  0.111287  0  0.975899  0  0  0.121795  0  1.035902  0  0  0.123252  0  1.037053  0  0  0.120656  0.120526  0  1.035611  0
H  H13  1  0.66553455  0.76588554  0.45699273  1  0  0.111499  0  0.975913  0  0  0.121989  0  1.035887  0  0  0.123448  0  1.037037  0  0  0.120753  0.120718  0  1.035599  0
H  H14  1  0.25692010  0.01141336  0.14186563  1  0  0.106086  0  0.930862  0  0  0.118022  0  0.99623  0  0  0.120254  0  0.993498  0  0  0.116272  0.116322  0  0.998272  0
H  H15  1  0.24550867  0.98859768  0.35813496  1  0  0.106113  0  0.930821  0  0  0.11806  0  0.996234  0  0  0.120293  0  0.993493  0  0  0.116277  0.116355  0  0.99827  0
H  H16  1  0.74307389  0.98858515  0.85814270  1  0  0.106033  0  0.931048  0  0  0.117975  0  0.996419  0  0  0.120224  0  0.993695  0  0  0.116247  0.116279  0  0.998463  0
H  H17  1  0.75448853  0.01142251  0.64186404  1  0  0.106087  0  0.931018  0  0  0.11796  0  0.996428  0  0  0.12019  0  0.993703  0  0  0.116231  0.116263  0  0.99847  0
H  H18  1  0.33355435  0.17068442  0.12017719  1  0  0.092515  0  0.903033  0  0  0.109786  0  0.958271  0  0  0.11074  0  0.957395  0  0  0.12045  0.109027  0  0.958969  0
H  H19  1  0.16286740  0.82932976  0.37982294  1  0  0.092513  0  0.90303  0  0  0.109833  0  0.958258  0  0  0.110782  0  0.957377  0  0  0.120464  0.109074  0  0.958954  0
H  H20  1  0.66645272  0.82932164  0.87982985  1  0  0.092467  0  0.903218  0  0  0.109786  0  0.958402  0  0  0.110754  0  0.957539  0  0  0.120468  0.109026  0  0.959102  0
H  H21  1  0.83712864  0.17068303  0.62016852  1  0  0.0925  0  0.903179  0  0  0.109788  0  0.958358  0  0  0.110743  0  0.957484  0  0  0.120454  0.109027  0  0.959058  0
H  H22  1  0.50385380  0.21323055  0.00245980  1  0  0.095096  0  0.935737  0  0  0.109084  0  0.988357  0  0  0.111775  0  0.987541  0  0  0.105547  0.10722  0  0.988932  0
H  H23  1  0.29061080  0.78677008  0.49753133  1  0  0.095097  0  0.935893  0  0  0.109095  0  0.988484  0  0  0.111784  0  0.987671  0  0  0.105546  0.10723  0  0.989061  0
H  H24  1  0.49615889  0.78677318  0.99755758  1  0  0.095096  0  0.93588  0  0  0.10907  0  0.988501  0  0  0.111751  0  0.987696  0  0  0.105556  0.107206  0  0.989076  0
H  H25  1  0.70938853  0.21323742  0.50245401  1  0  0.095035  0  0.935961  0  0  0.109043  0  0.988562  0  0  0.111734  0  0.987747  0  0  0.105534  0.107178  0  0.989137  0
H  H26  1  0.32757177  0.83916865  0.07190177  1  0  0.087756  0  0.970759  0  0  0.099083  0  1.032852  0  0  0.101149  0  1.032578  0  0  0.098239  0.097475  0  1.033305  0
H  H27  1  0.48840836  0.16084171  0.42810718  1  0  0.087761  0  0.970698  0  0  0.099096  0  1.032787  0  0  0.101157  0  1.032513  0  0  0.098249  0.097488  0  1.033239  0
H  H28  1  0.67243522  0.16082876  0.92810769  1  0  0.087734  0  0.970757  0  0  0.099096  0  1.032824  0  0  0.101139  0  1.032574  0  0  0.098223  0.097486  0  1.03328  0
H  H29  1  0.51158710  0.83916143  0.57188121  1  0  0.087822  0  0.970655  0  0  0.099185  0  1.032722  0  0  0.101219  0  1.032479  0  0  0.098271  0.097572  0  1.033183  0
H  H30  1  0.83057350  0.28509952  0.83912585  1  0  0.096428  0  0.953384  0  0  0.107141  0  1.012891  0  0  0.110884  0  1.010408  0  0  0.101687  0.104501  0  1.014762  0
H  H31  1  0.54546210  0.71489783  0.66086987  1  0  0.096388  0  0.953344  0  0  0.107162  0  1.012795  0  0  0.110907  0  1.010308  0  0  0.101683  0.104521  0  1.01467  0
H  H32  1  0.16942539  0.71489696  0.16087518  1  0  0.09645  0  0.953354  0  0  0.107165  0  1.012857  0  0  0.110908  0  1.010375  0  0  0.101689  0.104524  0  1.014733  0
H  H33  1  0.45452983  0.28509658  0.33912533  1  0  0.096423  0  0.95334  0  0  0.107124  0  1.012863  0  0  0.110868  0  1.010378  0  0  0.10165  0.104484  0  1.014737  0
H  H34  1  0.21519220  0.52380018  0.05366834  1  0  0.103979  0  0.93713  0  0  0.1136  0  0.993958  0  0  0.117892  0  0.991106  0  0  0.104218  0.110573  0  0.995978  0
H  H35  1  0.69139785  0.47620191  0.44633988  1  0  0.103987  0  0.937004  0  0  0.113591  0  0.99386  0  0  0.117884  0  0.99101  0  0  0.104213  0.110564  0  0.995879  0
H  H36  1  0.78480720  0.47619731  0.94633597  1  0  0.104032  0  0.93713  0  0  0.113626  0  0.993974  0  0  0.117917  0  0.991125  0  0  0.10424  0.110599  0  0.995994  0
H  H37  1  0.30859299  0.52379032  0.55365758  1  0  0.103957  0  0.937019  0  0  0.113538  0  0.99389  0  0  0.117829  0  0.991041  0  0  0.104195  0.110512  0  0.995909  0
C  C38  1  0.15571538  0.05650495  0.94291942  1  0  0.161064  0  3.645091  0  0  0.096975  0  3.909315  0  0  0.110979  0  3.922078  0  0  0.143917  0.088011  0  3.900476  0
C  C39  1  0.09921174  0.94350389  0.55709105  1  0  0.161162  0  3.645322  0  0  0.097034  0  3.909531  0  0  0.111072  0  3.922321  0  0  0.143934  0.088071  0  3.900691  0
C  C40  1  0.84429179  0.94349791  0.05708587  1  0  0.161279  0  3.645174  0  0  0.09715  0  3.90939  0  0  0.111173  0  3.922167  0  0  0.144024  0.088191  0  3.900544  0
C  C41  1  0.90078960  0.05649577  0.44291247  1  0  0.16119  0  3.645267  0  0  0.097096  0  3.909495  0  0  0.11112  0  3.922288  0  0  0.143987  0.088136  0  3.900652  0
C  C42  1  0.01495119  0.82620562  0.85115385  1  0  -0.002565  0  3.751297  0  0  -0.035062  0  4.010332  0  0  -0.033598  0  4.030853  0  0  -0.00171  -0.035911  0  3.996311  0
C  C43  1  0.18874614  0.17380043  0.64884703  1  0  -0.002581  0  3.751485  0  0  -0.035107  0  4.010489  0  0  -0.03364  0  4.031018  0  0  -0.001731  -0.03596  0  3.996466  0
C  C44  1  0.98505577  0.17379514  0.14884855  1  0  -0.002655  0  3.751584  0  0  -0.035123  0  4.010617  0  0  -0.033659  0  4.031148  0  0  -0.00175  -0.035986  0  3.996588  0
C  C45  1  0.81125295  0.82619813  0.35115762  1  0  -0.002563  0  3.75141  0  0  -0.035118  0  4.010405  0  0  -0.033645  0  4.030923  0  0  -0.001754  -0.03594  0  3.996399  0
C  C46  1  0.09650496  0.84286849  0.93406219  1  0  -0.057972  0  3.679423  0  0  -0.099209  0  3.936  0  0  -0.098851  0  3.957808  0  0  0.002292  -0.099373  0  3.921569  0
C  C47  1  0.25363596  0.15713769  0.56593751  1  0  -0.057974  0  3.679317  0  0  -0.099144  0  3.935929  0  0  -0.098787  0  3.957742  0  0  0.002262  -0.099311  0  3.9215  0
C  C48  1  0.90349860  0.15713224  0.06594167  1  0  -0.057801  0  3.679343  0  0  -0.098968  0  3.93594  0  0  -0.098607  0  3.957744  0  0  0.00234  -0.099134  0  3.921512  0
C  C49  1  0.74636244  0.84286627  0.43406665  1  0  -0.058026  0  3.679335  0  0  -0.099154  0  3.935932  0  0  -0.098798  0  3.957743  0  0  0.002309  -0.099317  0  3.921494  0
C  C50  1  0.29658347  0.05601383  0.08229377  1  0  -0.047422  0  3.637949  0  0  -0.118058  0  3.894848  0  0  -0.112777  0  3.90309  0  0  -0.04489  -0.12139  0  3.88924  0
C  C51  1  0.24057014  0.94399458  0.41770291  1  0  -0.047503  0  3.638076  0  0  -0.118294  0  3.89514  0  0  -0.112989  0  3.903353  0  0  -0.045016  -0.121614  0  3.889519  0
C  C52  1  0.70342027  0.94398049  0.91770731  1  0  -0.047307  0  3.638292  0  0  -0.118002  0  3.895276  0  0  -0.1128  0  3.903615  0  0  -0.044957  -0.121339  0  3.88967  0
C  C53  1  0.75942671  0.05601814  0.58229222  1  0  -0.047455  0  3.638348  0  0  -0.117999  0  3.895123  0  0  -0.112721  0  3.903369  0  0  -0.044897  -0.121339  0  3.889528  0
C  C54  1  0.40460049  0.02997159  0.04279993  1  0  0.064084  0  3.766278  0  0  0.082811  0  4.007852  0  0  0.08136  0  4.033563  0  0  -0.013934  0.083712  0  3.990497  0
C  C55  1  0.37462478  0.97003623  0.45719798  1  0  0.063978  0  3.766504  0  0  0.082742  0  4.008082  0  0  0.081278  0  4.033794  0  0  -0.013985  0.083643  0  3.990727  0
C  C56  1  0.59540773  0.97002151  0.95720962  1  0  0.0639  0  3.766358  0  0  0.08258  0  4.008022  0  0  0.081147  0  4.033749  0  0  -0.013992  0.083483  0  3.990663  0
C  C57  1  0.62536950  0.02997134  0.54278296  1  0  0.063843  0  3.76645  0  0  0.082568  0  4.008005  0  0  0.08111  0  4.033726  0  0  -0.013963  0.083473  0  3.990636  0
C  C58  1  0.50198156  0.11960633  0.00166163  1  0  -0.109434  0  3.761044  0  0  -0.130048  0  4.005929  0  0  -0.132902  0  4.028533  0  0  -0.090086  -0.128053  0  3.99055  0
C  C59  1  0.38236753  0.88039347  0.49833338  1  0  -0.109402  0  3.761209  0  0  -0.130012  0  4.006057  0  0  -0.132863  0  4.028663  0  0  -0.090001  -0.128019  0  3.990681  0
C  C60  1  0.49803001  0.88039515  0.99836168  1  0  -0.109237  0  3.760932  0  0  -0.129804  0  4.005767  0  0  -0.132645  0  4.028374  0  0  -0.089955  -0.127813  0  3.990394  0
C  C61  1  0.61762961  0.11961304  0.50164648  1  0  -0.109224  0  3.761108  0  0  -0.129868  0  4.005984  0  0  -0.132717  0  4.028593  0  0  -0.090067  -0.127874  0  3.990608  0
C  C62  1  0.40367806  0.91027490  0.04080356  1  0  -0.109951  0  3.761054  0  0  -0.128242  0  4.004953  0  0  -0.131047  0  4.028  0  0  -0.09006  -0.126287  0  3.989504  0
C  C63  1  0.49340156  0.08973564  0.45920517  1  0  -0.109866  0  3.76119  0  0  -0.128157  0  4.005077  0  0  -0.130954  0  4.028126  0  0  -0.09  -0.126204  0  3.989629  0
C  C64  1  0.59632856  0.08972347  0.95921284  1  0  -0.109748  0  3.761125  0  0  -0.128037  0  4.005013  0  0  -0.13082  0  4.028075  0  0  -0.089961  -0.126081  0  3.989559  0
C  C65  1  0.50659149  0.91027285  0.54078492  1  0  -0.10967  0  3.761133  0  0  -0.128002  0  4.005006  0  0  -0.130776  0  4.028074  0  0  -0.089958  -0.126045  0  3.989551  0
C  C66  1  0.05126900  0.27765656  0.88116453  1  0  0.620777  0  3.959564  0  0  0.572439  0  4.256884  0  0  0.60559  0  4.250202  0  0  0.193192  0.549708  0  4.261181  0
C  C67  1  0.77361280  0.72234083  0.61883376  1  0  0.620586  0  3.959875  0  0  0.572221  0  4.257233  0  0  0.605374  0  4.250548  0  0  0.193092  0.54949  0  4.261528  0
C  C68  1  0.94872575  0.72233671  0.11883473  1  0  0.620706  0  3.959669  0  0  0.572365  0  4.257006  0  0  0.605516  0  4.250321  0  0  0.193144  0.549632  0  4.261303  0
C  C69  1  0.22638179  0.27765042  0.38115748  1  0  0.62052  0  3.959866  0  0  0.572174  0  4.257212  0  0  0.605328  0  4.25053  0  0  0.193091  0.549439  0  4.26151  0
C  C70  1  0.02539929  0.39388761  0.94063804  1  0  -0.05812  0  3.768173  0  0  -0.0351  0  3.99881  0  0  -0.041365  0  4.021712  0  0  -0.020183  -0.030682  0  3.983339  0
C  C71  1  0.63151181  0.60611573  0.55936492  1  0  -0.058037  0  3.768298  0  0  -0.034996  0  3.998912  0  0  -0.041269  0  4.021822  0  0  -0.020147  -0.030582  0  3.983445  0
C  C72  1  0.97459984  0.60611103  0.05936220  1  0  -0.058114  0  3.768287  0  0  -0.035098  0  3.998914  0  0  -0.041364  0  4.021821  0  0  -0.020215  -0.030679  0  3.983447  0
C  C73  1  0.36847792  0.39387767  0.44062700  1  0  -0.057914  0  3.76803  0  0  -0.03492  0  3.998652  0  0  -0.041191  0  4.021563  0  0  -0.020163  -0.030496  0  3.983176  0
C  C74  1  0.90394437  0.37983932  0.90988532  1  0  -0.090241  0  3.764816  0  0  -0.113051  0  4.01578  0  0  -0.113978  0  4.03558  0  0  -0.091523  -0.112569  0  4.002535  0
C  C75  1  0.52410114  0.62015773  0.59011234  1  0  -0.090288  0  3.764717  0  0  -0.113166  0  4.015721  0  0  -0.114092  0  4.035522  0  0  -0.091595  -0.112682  0  4.002479  0
C  C76  1  0.09605253  0.62015824  0.09011531  1  0  -0.090278  0  3.764824  0  0  -0.113093  0  4.015802  0  0  -0.114021  0  4.035606  0  0  -0.091502  -0.112612  0  4.002561  0
C  C77  1  0.47588888  0.37983454  0.40988217  1  0  -0.090326  0  3.764655  0  0  -0.113116  0  4.015632  0  0  -0.114042  0  4.035435  0  0  -0.091493  -0.11264  0  4.002392  0
C  C78  1  0.12152432  0.51504680  0.03110162  1  0  -0.079594  0  3.750151  0  0  -0.09984  0  3.994341  0  0  -0.101356  0  4.014804  0  0  -0.086214  -0.098663  0  3.980391  0
C  C79  1  0.60647512  0.48495259  0.46890264  1  0  -0.07964  0  3.749909  0  0  -0.099878  0  3.994089  0  0  -0.101392  0  4.014557  0  0  -0.086209  -0.098699  0  3.980145  0
C  C80  1  0.87847425  0.48495073  0.96890049  1  0  -0.07966  0  3.750243  0  0  -0.099879  0  3.994421  0  0  -0.101396  0  4.014887  0  0  -0.086206  -0.098704  0  3.980475  0
C  C81  1  0.39351575  0.51503968  0.53109188  1  0  -0.079582  0  3.749732  0  0  -0.099781  0  3.993949  0  0  -0.101292  0  4.014416  0  0  -0.086139  -0.098603  0  3.979993  0
N  N82  1  0.05301672  0.96034640  0.85766870  1  0  -0.383543  0  3.332988  0  0  -0.302021  0  3.637776  0  0  -0.322088  0  3.649792  0  0  -0.363004  -0.288265  0  3.629291  0
N  N83  1  0.09267062  0.03966510  0.64233855  1  0  -0.383608  0  3.33343  0  0  -0.302031  0  3.638194  0  0  -0.322115  0  3.650212  0  0  -0.363039  -0.288275  0  3.62971  0
N  N84  1  0.94699629  0.03965968  0.14233688  1  0  -0.383758  0  3.333296  0  0  -0.302135  0  3.638006  0  0  -0.322215  0  3.650019  0  0  -0.363084  -0.28838  0  3.629524  0
N  N85  1  0.90733101  0.96033346  0.35766610  1  0  -0.383632  0  3.333377  0  0  -0.302082  0  3.638171  0  0  -0.322146  0  3.650166  0  0  -0.36308  -0.288324  0  3.629676  0
N  N86  1  0.18420488  0.98872492  0.99141912  1  0  -0.050916  0  3.566299  0  0  0.043312  0  3.787588  0  0  0.028228  0  3.814491  0  0  -0.237407  0.053342  0  3.769295  0
N  N87  1  0.19547340  0.01127957  0.50858069  1  0  -0.050924  0  3.566042  0  0  0.043371  0  3.787312  0  0  0.028276  0  3.814203  0  0  -0.237351  0.053403  0  3.769017  0
N  N88  1  0.81580496  0.01127482  0.00858000  1  0  -0.050962  0  3.566215  0  0  0.043288  0  3.787499  0  0  0.028228  0  3.814414  0  0  -0.237362  0.05332  0  3.769206  0
N  N89  1  0.80452418  0.98872443  0.49142126  1  0  -0.050849  0  3.566059  0  0  0.043347  0  3.787304  0  0  0.028267  0  3.814203  0  0  -0.237353  0.053377  0  3.769013  0
O  O90  1  0.94622147  0.15718890  0.81503563  1  0  -0.658908  0  2.052237  0  0  -0.588438  0  2.331433  0  0  -0.616496  0  2.316355  0  0  -0.340819  -0.568806  0  2.34138  0
O  O91  1  0.78903341  0.84280631  0.68496930  1  0  -0.658837  0  2.05239  0  0  -0.588314  0  2.331544  0  0  -0.616375  0  2.316467  0  0  -0.340759  -0.568682  0  2.341487  0
O  O92  1  0.05377150  0.84280757  0.18496540  1  0  -0.658882  0  2.052324  0  0  -0.588383  0  2.331499  0  0  -0.616445  0  2.316426  0  0  -0.340752  -0.568749  0  2.341442  0
O  O93  1  0.21096728  0.15718696  0.31502996  1  0  -0.658817  0  2.052406  0  0  -0.588292  0  2.331524  0  0  -0.616353  0  2.316455  0  0  -0.340737  -0.568657  0  2.341463  0
O  O94  1  0.16587124  0.29921200  0.89835847  1  0  -0.618862  0  1.896668  0  0  -0.577807  0  2.109648  0  0  -0.598818  0  2.099364  0  0  -0.333584  -0.563162  0  2.116479  0
O  O95  1  0.86665166  0.70077474  0.60163204  1  0  -0.61875  0  1.896696  0  0  -0.577703  0  2.1097  0  0  -0.598708  0  2.099411  0  0  -0.333524  -0.563058  0  2.116534  0
O  O96  1  0.83412555  0.70078027  0.10163605  1  0  -0.618801  0  1.896739  0  0  -0.577759  0  2.109741  0  0  -0.598765  0  2.09945  0  0  -0.333586  -0.563115  0  2.116573  0
O  O97  1  0.13334212  0.29921659  0.39835479  1  0  -0.618812  0  1.896681  0  0  -0.577757  0  2.109656  0  0  -0.598766  0  2.099369  0  0  -0.333591  -0.563117  0  2.116497  0
