# generated using pymatgen
data_SmAgH12C14N2O11
_symmetry_space_group_name_H-M   'P 1'
_cell_length_a   7.29390888
_cell_length_b   13.82336029
_cell_length_c   19.50986992
_cell_angle_alpha   103.40512793
_cell_angle_beta   90.00068854
_cell_angle_gamma   90.00054285
_symmetry_Int_Tables_number   1
_chemical_formula_structural   SmAgH12C14N2O11
_chemical_formula_sum   'Sm4 Ag4 H48 C56 N8 O44'
_cell_volume   1913.51497742
_cell_formula_units_Z   4
loop_
 _symmetry_equiv_pos_site_id
 _symmetry_equiv_pos_as_xyz
  1  'x, y, z'
loop_
 _atom_site_type_symbol
 _atom_site_label
 _atom_site_symmetry_multiplicity
 _atom_site_fract_x
 _atom_site_fract_y
 _atom_site_fract_z
 _atom_site_occupancy
 _atom_site_pbe_bader_charge
 _atom_site_pbe_bader_spin_density
 _atom_site_pbe_cm5_charge
 _atom_site_pbe_ddec_charge
 _atom_site_pbe_ddec_spin_density
 _atom_site_pbe_ddec_sum_bond_order
 _atom_site_pbe_magmom
Sm  Sm0  1  0.42908844  0.69983095  0.85548587  1  2.198959  0  1.492091  2.005499  0  2.163119  0
Sm  Sm1  1  0.92909209  0.80016746  0.64450427  1  2.199128  0  1.492169  2.00531  0  2.163471  0
Sm  Sm2  1  0.57090897  0.30016847  0.14451091  1  2.199009  0  1.492104  2.005528  0  2.163191  0
Sm  Sm3  1  0.07092452  0.19983434  0.35549540  1  2.199295  0  1.492115  2.005334  0  2.163403  0
Ag  Ag4  1  0.93855910  0.62361719  0.01842763  1  0.636705  0  0.438609  0.503832  0  1.632078  0
Ag  Ag5  1  0.43856296  0.87637439  0.48157265  1  0.63668  0  0.438568  0.503727  0  1.632242  0
Ag  Ag6  1  0.06144380  0.37635989  0.98157839  1  0.636679  0  0.438583  0.50379  0  1.631942  0
Ag  Ag7  1  0.56144816  0.12362418  0.51842196  1  0.636709  0  0.438588  0.503807  0  1.632178  0
H  H8  1  0.06612248  0.33236570  0.80877060  1  0.137217  0  0.11661  0.132927  0  0.983972  0
H  H9  1  0.56615265  0.16764173  0.69123811  1  0.137113  0  0.116577  0.132863  0  0.983988  0
H  H10  1  0.93386396  0.66764336  0.19124033  1  0.137027  0  0.116578  0.132935  0  0.983948  0
H  H11  1  0.43386533  0.83237025  0.30877220  1  0.137369  0  0.116634  0.132923  0  0.983966  0
H  H12  1  0.30736078  0.23929868  0.86150550  1  0.103051  0  0.111507  0.114406  0  0.989346  0
H  H13  1  0.80737994  0.26069824  0.63848592  1  0.103143  0  0.111494  0.114342  0  0.989486  0
H  H14  1  0.69259825  0.76070767  0.13850967  1  0.103027  0  0.111459  0.114342  0  0.989377  0
H  H15  1  0.19262296  0.73929784  0.36150373  1  0.103257  0  0.111514  0.114381  0  0.989286  0
H  H16  1  0.58778698  0.33402918  0.91665206  1  0.123208  0  0.112777  0.12395  0  1.02857  0
H  H17  1  0.08779963  0.16596924  0.58333808  1  0.122951  0  0.112844  0.124079  0  1.028653  0
H  H18  1  0.41218576  0.66597548  0.08335929  1  0.122934  0  0.112778  0.124061  0  1.028708  0
H  H19  1  0.91219092  0.83402827  0.41665075  1  0.123256  0  0.112708  0.123902  0  1.028517  0
H  H20  1  0.31156099  0.89937584  0.13473547  1  0.091715  0  0.112226  0.122323  0  0.987982  0
H  H21  1  0.81153816  0.60061220  0.36525555  1  0.091532  0  0.112193  0.122248  0  0.988166  0
H  H22  1  0.68841723  0.10059254  0.86526012  1  0.092087  0  0.112208  0.122333  0  0.987935  0
H  H23  1  0.18845926  0.39939122  0.63474691  1  0.091536  0  0.11219  0.122215  0  0.988126  0
H  H24  1  0.59725023  0.00501420  0.15081033  1  0.133167  0  0.111758  0.111451  0  1.020604  0
H  H25  1  0.09724912  0.49499378  0.34917989  1  0.133853  0  0.111752  0.111456  0  1.020651  0
H  H26  1  0.40272113  0.99496602  0.84919921  1  0.13298  0  0.111689  0.111445  0  1.020513  0
H  H27  1  0.90275103  0.50500933  0.65081689  1  0.133914  0  0.111769  0.111456  0  1.020646  0
H  H28  1  0.81909068  0.98549190  0.04866801  1  0.149633  0  0.116545  0.134924  0  1.017213  0
H  H29  1  0.31910051  0.51451995  0.45132581  1  0.150202  0  0.11653  0.134857  0  1.017212  0
H  H30  1  0.18087657  0.01451187  0.95134066  1  0.149344  0  0.11655  0.134957  0  1.017294  0
H  H31  1  0.68092158  0.48548956  0.54866672  1  0.149468  0  0.116562  0.134924  0  1.017092  0
H  H32  1  0.20506240  0.84826523  0.80990060  1  0.651891  0  0.2995  0.388685  0  0.95225  0
H  H33  1  0.70506207  0.65174073  0.69009163  1  0.651992  0  0.299525  0.388717  0  0.952227  0
H  H34  1  0.79492952  0.15173013  0.19010280  1  0.651687  0  0.299421  0.388644  0  0.952282  0
H  H35  1  0.29493534  0.34826409  0.30990949  1  0.651955  0  0.299499  0.388716  0  0.952212  0
H  H36  1  0.10516118  0.85785149  0.88284618  1  0.658137  0  0.295727  0.401045  0  0.937204  0
H  H37  1  0.60515823  0.64214353  0.61714615  1  0.658136  0  0.29569  0.401005  0  0.937233  0
H  H38  1  0.89483212  0.14214610  0.11715753  1  0.658227  0  0.295711  0.401052  0  0.93719  0
H  H39  1  0.39486249  0.35785209  0.38284857  1  0.657894  0  0.295714  0.401071  0  0.93717  0
H  H40  1  0.35006272  0.72912459  0.70478103  1  0.653441  0  0.301533  0.40054  0  0.936079  0
H  H41  1  0.85006538  0.77088504  0.79520774  1  0.653583  0  0.301505  0.400667  0  0.935947  0
H  H42  1  0.64995937  0.27087929  0.29521637  1  0.653428  0  0.3015  0.400511  0  0.936152  0
H  H43  1  0.14994300  0.22912259  0.20479069  1  0.653484  0  0.301517  0.400598  0  0.936053  0
H  H44  1  0.51449839  0.80534171  0.73432351  1  0.641604  0  0.302467  0.401883  0  0.932587  0
H  H45  1  0.01448889  0.69465995  0.76566574  1  0.641669  0  0.302491  0.402001  0  0.93246  0
H  H46  1  0.48551685  0.19466389  0.26567823  1  0.641733  0  0.302449  0.401957  0  0.932536  0
H  H47  1  0.98551400  0.30534173  0.23433187  1  0.641684  0  0.302493  0.401947  0  0.932517  0
H  H48  1  0.56341331  0.53021064  0.73130790  1  0.595837  0  0.33494  0.411437  0  0.861392  0
H  H49  1  0.06343919  0.96979539  0.76867498  1  0.596062  0  0.334915  0.411391  0  0.861464  0
H  H50  1  0.43657862  0.46979464  0.26868815  1  0.595917  0  0.334984  0.411446  0  0.861416  0
H  H51  1  0.93657056  0.03021730  0.23132157  1  0.596155  0  0.334939  0.41139  0  0.861646  0
H  H52  1  0.75394987  0.55144455  0.77154470  1  0.65688  0  0.295539  0.400823  0  0.93657  0
H  H53  1  0.25397813  0.94855011  0.72845082  1  0.657125  0  0.295626  0.400969  0  0.936391  0
H  H54  1  0.24604480  0.44855722  0.22845446  1  0.656698  0  0.295594  0.400868  0  0.936533  0
H  H55  1  0.74603711  0.05145172  0.27154938  1  0.656723  0  0.295679  0.400976  0  0.936374  0
C  C56  1  0.09310830  0.52903926  0.79834373  1  1.611728  0  0.228285  0.575881  0  4.197171  0
C  C57  1  0.59314445  0.97096200  0.70165608  1  1.611849  0  0.228441  0.575984  0  4.197056  0
C  C58  1  0.90689186  0.47096511  0.20164912  1  1.611667  0  0.228308  0.575878  0  4.197541  0
C  C59  1  0.40689409  0.02903551  0.29834609  1  1.611606  0  0.228252  0.575663  0  4.197293  0
C  C60  1  0.22359798  0.46781660  0.83124471  1  0.525406  0  0.119033  0.111116  0  3.993099  0
C  C61  1  0.72363721  0.03218466  0.66875464  1  0.525245  0  0.119236  0.111342  0  3.993324  0
C  C62  1  0.77638024  0.53217931  0.16875519  1  0.525259  0  0.119143  0.111294  0  3.993157  0
C  C63  1  0.27637802  0.96781888  0.33124990  1  0.525261  0  0.119152  0.111291  0  3.993326  0
C  C64  1  0.19161696  0.36827257  0.83199203  1  -0.049937  0  -0.074092  -0.137469  0  3.953077  0
C  C65  1  0.69164294  0.13172573  0.66801087  1  -0.049309  0  -0.074065  -0.137402  0  3.95327  0
C  C66  1  0.80835989  0.63173091  0.16801147  1  -0.049277  0  -0.074161  -0.137795  0  3.953119  0
C  C67  1  0.30837367  0.86827847  0.33199222  1  -0.049941  0  -0.074156  -0.137571  0  3.953436  0
C  C68  1  0.32480483  0.31775659  0.86190403  1  -0.118556  0  -0.06988  -0.041732  0  3.98007  0
C  C69  1  0.82481567  0.18224216  0.63809183  1  -0.118849  0  -0.069909  -0.041682  0  3.980232  0
C  C70  1  0.67515830  0.68224629  0.13810195  1  -0.118616  0  -0.069765  -0.041356  0  3.98027  0
C  C71  1  0.17519546  0.81776315  0.36190474  1  -0.118732  0  -0.069882  -0.041663  0  3.979813  0
C  C72  1  0.48049326  0.36915445  0.89234821  1  0.018715  0  -0.067707  -0.109464  0  3.88185  0
C  C73  1  0.98050486  0.13084669  0.60764663  1  0.019034  0  -0.067725  -0.109602  0  3.88221  0
C  C74  1  0.51948633  0.63085721  0.10765641  1  0.018876  0  -0.067693  -0.109684  0  3.882028  0
C  C75  1  0.01949255  0.86916073  0.39234818  1  0.018838  0  -0.067621  -0.109419  0  3.881587  0
C  C76  1  0.49672418  0.46974657  0.89234669  1  0.544055  0  0.125819  0.14066  0  3.952814  0
C  C77  1  0.99672842  0.03025848  0.60765029  1  0.544666  0  0.125772  0.140515  0  3.952946  0
C  C78  1  0.50326775  0.53025763  0.10765639  1  0.544121  0  0.125825  0.140618  0  3.952554  0
C  C79  1  0.00327310  0.96975057  0.39234731  1  0.544103  0  0.125754  0.140484  0  3.953096  0
C  C80  1  0.64770619  0.53558783  0.92961042  1  1.587357  0  0.21184  0.562814  0  4.19494  0
C  C81  1  0.14772122  0.96441534  0.57039092  1  1.586813  0  0.211919  0.563039  0  4.194551  0
C  C82  1  0.35228574  0.46440717  0.07038627  1  1.58733  0  0.21186  0.562978  0  4.194668  0
C  C83  1  0.85229813  0.03558800  0.42961000  1  1.587392  0  0.21191  0.562843  0  4.194896  0
C  C84  1  0.22041583  0.75836581  0.01259217  1  1.588337  0  0.209236  0.554839  0  4.205298  0
C  C85  1  0.72039971  0.74162567  0.48740456  1  1.58783  0  0.209232  0.554795  0  4.205077  0
C  C86  1  0.77957747  0.24162047  0.98740691  1  1.587827  0  0.209193  0.555027  0  4.205163  0
C  C87  1  0.27960593  0.25837253  0.51259667  1  1.587612  0  0.209305  0.554892  0  4.204821  0
C  C88  1  0.37779189  0.83049588  0.02703355  1  0.500571  0  0.122069  0.122517  0  3.973067  0
C  C89  1  0.87778766  0.66948918  0.47296249  1  0.500954  0  0.122114  0.122661  0  3.973131  0
C  C90  1  0.62219729  0.16948951  0.97296285  1  0.499541  0  0.122106  0.122518  0  3.97313  0
C  C91  1  0.12222621  0.33051139  0.52704163  1  0.501099  0  0.122088  0.122833  0  3.972746  0
C  C92  1  0.40989983  0.89557143  0.09221701  1  0.006562  0  -0.067235  -0.118582  0  3.90979  0
C  C93  1  0.90988124  0.60441644  0.40777289  1  0.006477  0  -0.067189  -0.118523  0  3.910443  0
C  C94  1  0.59007702  0.10440299  0.90778095  1  0.008343  0  -0.067322  -0.118843  0  3.909865  0
C  C95  1  0.09012303  0.39558610  0.59222689  1  0.006393  0  -0.067164  -0.1185  0  3.910391  0
C  C96  1  0.56917176  0.95313125  0.10079137  1  -0.080654  0  -0.061901  -0.024289  0  3.927763  0
C  C97  1  0.06915028  0.54686938  0.39920132  1  -0.081932  0  -0.061955  -0.024373  0  3.928157  0
C  C98  1  0.43079960  0.04685311  0.89921309  1  -0.079594  0  -0.061707  -0.024022  0  3.927791  0
C  C99  1  0.93085398  0.45313313  0.60079794  1  -0.081914  0  -0.061909  -0.024336  0  3.927985  0
C  C100  1  0.69159206  0.94357362  0.04460619  1  0.016455  0  -0.061885  -0.107377  0  3.874149  0
C  C101  1  0.19158224  0.55642855  0.45538726  1  0.019073  0  -0.061822  -0.107259  0  3.873857  0
C  C102  1  0.30838479  0.05641654  0.95539650  1  0.015204  0  -0.061955  -0.107445  0  3.874607  0
C  C103  1  0.80843437  0.44357579  0.54460507  1  0.020498  0  -0.06193  -0.107376  0  3.873688  0
C  C104  1  0.64694247  0.87798743  0.98092387  1  0.48692  0  0.12269  0.112803  0  3.990905  0
C  C105  1  0.14692473  0.62200747  0.51907479  1  0.48416  0  0.12272  0.112628  0  3.991151  0
C  C106  1  0.35304672  0.12201285  0.01907509  1  0.487033  0  0.12267  0.112612  0  3.991193  0
C  C107  1  0.85309187  0.37799561  0.48092147  1  0.483692  0  0.122794  0.112822  0  3.991014  0
C  C108  1  0.76940370  0.86166639  0.91698881  1  1.614552  0  0.229138  0.57014  0  4.203666  0
C  C109  1  0.26939801  0.63833129  0.58300616  1  1.614963  0  0.229157  0.570253  0  4.203775  0
C  C110  1  0.23058412  0.13833418  0.08301531  1  1.614203  0  0.229263  0.570361  0  4.203489  0
C  C111  1  0.73063231  0.36166719  0.41698691  1  1.614839  0  0.228945  0.56985  0  4.204347  0
N  N112  1  0.37332797  0.51656262  0.86060293  1  -1.246045  0  -0.373969  -0.37042  0  3.550521  0
N  N113  1  0.87335130  0.98343436  0.63939447  1  -1.246368  0  -0.37404  -0.370379  0  3.550839  0
N  N114  1  0.62665573  0.48343231  0.13939273  1  -1.246226  0  -0.374004  -0.3704  0  3.550842  0
N  N115  1  0.12665845  0.01656732  0.36060314  1  -1.246345  0  -0.373952  -0.370217  0  3.550595  0
N  N116  1  0.49332460  0.82348430  0.97268172  1  -1.243254  0  -0.380141  -0.358143  0  3.543787  0
N  N117  1  0.99331105  0.67650690  0.52731747  1  -1.243294  0  -0.380248  -0.358101  0  3.543963  0
N  N118  1  0.50667007  0.17650943  0.02731890  1  -1.243647  0  -0.38011  -0.358002  0  3.543728  0
N  N119  1  0.00670418  0.32349353  0.47268407  1  -1.243375  0  -0.380309  -0.358359  0  3.543636  0
O  O120  1  0.15650294  0.61272545  0.79101222  1  -1.190693  0  -0.357493  -0.621225  0  2.270764  0
O  O121  1  0.65652545  0.88727042  0.70897635  1  -1.190823  0  -0.357576  -0.621266  0  2.271033  0
O  O122  1  0.84349858  0.38727209  0.20897712  1  -1.190674  0  -0.35746  -0.621232  0  2.270847  0
O  O123  1  0.34350350  0.11273512  0.29102435  1  -1.190551  0  -0.357419  -0.621121  0  2.270591  0
O  O124  1  0.93654020  0.49360823  0.78088003  1  -1.180177  0  -0.307395  -0.531979  0  2.161745  0
O  O125  1  0.43657637  0.00639197  0.71912935  1  -1.180053  0  -0.307599  -0.532218  0  2.161639  0
O  O126  1  0.06344624  0.50639485  0.21911623  1  -1.179938  0  -0.307503  -0.532033  0  2.162001  0
O  O127  1  0.56344298  0.99360814  0.28087984  1  -1.179983  0  -0.307494  -0.532018  0  2.162217  0
O  O128  1  0.64940149  0.62522018  0.92382347  1  -1.173713  0  -0.374117  -0.63778  0  2.329627  0
O  O129  1  0.14940956  0.87477645  0.57616621  1  -1.173604  0  -0.374157  -0.637804  0  2.329472  0
O  O130  1  0.35059318  0.37477616  0.07617084  1  -1.173748  0  -0.374092  -0.637836  0  2.329753  0
O  O131  1  0.85060156  0.12522161  0.42383244  1  -1.173808  0  -0.374139  -0.637721  0  2.329579  0
O  O132  1  0.75959298  0.49904197  0.96687493  1  -1.127765  0  -0.317766  -0.52022  0  2.366617  0
O  O133  1  0.25962008  0.00096130  0.53312998  1  -1.12782  0  -0.317811  -0.520325  0  2.366593  0
O  O134  1  0.24037976  0.50095691  0.03312537  1  -1.127705  0  -0.317797  -0.520309  0  2.366531  0
O  O135  1  0.74039790  0.99903764  0.46687136  1  -1.127772  0  -0.317825  -0.520267  0  2.366504  0
O  O136  1  0.21144270  0.70161883  0.95113978  1  -1.176015  0  -0.377543  -0.627252  0  2.319071  0
O  O137  1  0.71144859  0.79838566  0.54885176  1  -1.175809  0  -0.377417  -0.627072  0  2.319113  0
O  O138  1  0.78854511  0.29837027  0.04885712  1  -1.175753  0  -0.377494  -0.62723  0  2.31915  0
O  O139  1  0.28856253  0.20161776  0.45115071  1  -1.175851  0  -0.37747  -0.62719  0  2.319307  0
O  O140  1  0.11186990  0.75454296  0.06294166  1  -1.124238  0  -0.327512  -0.511789  0  2.243116  0
O  O141  1  0.61183709  0.74544695  0.43705232  1  -1.124099  0  -0.327586  -0.511832  0  2.242854  0
O  O142  1  0.88813299  0.24543354  0.93705403  1  -1.124093  0  -0.327571  -0.511932  0  2.242728  0
O  O143  1  0.38817404  0.25455351  0.56294974  1  -1.123999  0  -0.327622  -0.511953  0  2.242599  0
O  O144  1  0.70570797  0.80248588  0.86100482  1  -1.189978  0  -0.37009  -0.620442  0  2.282756  0
O  O145  1  0.20570114  0.69752234  0.63898824  1  -1.189998  0  -0.370309  -0.620588  0  2.282761  0
O  O146  1  0.29428533  0.19752197  0.13899774  1  -1.190098  0  -0.370169  -0.620502  0  2.282748  0
O  O147  1  0.79432918  0.30247862  0.36100978  1  -1.19031  0  -0.370209  -0.620386  0  2.283146  0
O  O148  1  0.92099507  0.90538361  0.92260408  1  -1.181451  0  -0.299704  -0.517833  0  2.17882  0
O  O149  1  0.42097330  0.59461075  0.57739368  1  -1.181715  0  -0.299543  -0.517699  0  2.178968  0
O  O150  1  0.07899000  0.09461916  0.07739983  1  -1.180956  0  -0.299755  -0.517966  0  2.178832  0
O  O151  1  0.57904879  0.40539484  0.42259472  1  -1.181446  0  -0.299459  -0.517539  0  2.178801  0
O  O152  1  0.22432850  0.83820608  0.85771683  1  -1.309622  0  -0.662365  -0.869353  0  2.15073  0
O  O153  1  0.72432950  0.66178732  0.64227274  1  -1.309787  0  -0.662353  -0.869345  0  2.150554  0
O  O154  1  0.77566343  0.16178925  0.14228606  1  -1.30956  0  -0.66229  -0.869345  0  2.150607  0
O  O155  1  0.27568574  0.33821233  0.35772818  1  -1.309507  0  -0.662348  -0.869358  0  2.150673  0
O  O156  1  0.43204301  0.75413669  0.74643336  1  -1.296926  0  -0.662875  -0.857474  0  2.100545  0
O  O157  1  0.93204107  0.74586683  0.75355545  1  -1.297296  0  -0.662886  -0.8577  0  2.100304  0
O  O158  1  0.56796400  0.24587257  0.25356786  1  -1.297005  0  -0.662813  -0.857549  0  2.100467  0
O  O159  1  0.06797279  0.25414166  0.24644514  1  -1.297235  0  -0.662873  -0.857592  0  2.100379  0
O  O160  1  0.63276122  0.58270591  0.76234139  1  -1.243037  0  -0.596246  -0.821653  0  2.081219  0
O  O161  1  0.13278920  0.91729518  0.73765087  1  -1.243629  0  -0.596289  -0.821708  0  2.081099  0
O  O162  1  0.36722797  0.41730034  0.23765890  1  -1.243044  0  -0.596336  -0.821717  0  2.081206  0
O  O163  1  0.86721507  0.08270873  0.26234705  1  -1.243395  0  -0.596333  -0.821681  0  2.081249  0
