# generated using pymatgen
data_CuH8C4Br2(N4O3)2
_symmetry_space_group_name_H-M   'P 1'
_cell_length_a   6.88148685
_cell_length_b   9.35507287
_cell_length_c   10.52141345
_cell_angle_alpha   103.21290861
_cell_angle_beta   89.99855285
_cell_angle_gamma   89.99887674
_symmetry_Int_Tables_number   1
_chemical_formula_structural   CuH8C4Br2(N4O3)2
_chemical_formula_sum   'Cu2 H16 C8 Br4 N16 O12'
_cell_volume   659.40424556
_cell_formula_units_Z   2
loop_
 _symmetry_equiv_pos_site_id
 _symmetry_equiv_pos_as_xyz
  1  'x, y, z'
loop_
 _atom_site_type_symbol
 _atom_site_label
 _atom_site_symmetry_multiplicity
 _atom_site_fract_x
 _atom_site_fract_y
 _atom_site_fract_z
 _atom_site_occupancy
 _atom_site_hle17_ddec_charge
 _atom_site_hle17_ddec_spin_density
 _atom_site_hle17_ddec_sum_bond_order
 _atom_site_hle17_magmom
 _atom_site_hse06_10hf_ddec_charge
 _atom_site_hse06_10hf_ddec_spin_density
 _atom_site_hse06_10hf_ddec_sum_bond_order
 _atom_site_hse06_10hf_magmom
 _atom_site_hse06_ddec_charge
 _atom_site_hse06_ddec_spin_density
 _atom_site_hse06_ddec_sum_bond_order
 _atom_site_hse06_magmom
 _atom_site_pbe_cm5_charge
 _atom_site_pbe_ddec_charge
 _atom_site_pbe_ddec_spin_density
 _atom_site_pbe_ddec_sum_bond_order
 _atom_site_pbe_magmom
Cu  Cu0  1  0.99999996  0.99999952  0.99999898  1  0.862119  -0.736424  1.908678  -0.524  0.856538  -0.81798  2.289394  -0.643  0.942039  -0.890684  2.220302  -0.729  0.711652  0.804278  -0.759508  2.335376  -0.581
Cu  Cu1  1  0.50000012  0.50000039  0.00000023  1  0.862064  0.736411  1.909113  0.524  0.856549  0.817943  2.289831  0.643  0.941951  0.890634  2.220754  0.729  0.711671  0.804286  0.75947  2.335796  0.581
H  H2  1  0.62149189  0.11838414  0.38566926  1  0.126524  3e-06  0.924948  0.0  0.14176  1.7e-05  0.993604  0.0  0.142756  3e-06  0.993166  0.0  0.10881  0.140947  2.3e-05  0.993991  0.0
H  H3  1  0.12148887  0.38160490  0.61432639  1  0.12654  -3.3e-05  0.925011  0.0  0.141775  -1.7e-05  0.993668  0.0  0.142771  -3e-06  0.99323  0.0  0.108843  0.140961  -2.3e-05  0.994056  0.0
H  H4  1  0.37850662  0.88161538  0.61433068  1  0.126519  1.7e-05  0.924958  0.0  0.141753  1.7e-05  0.993614  0.0  0.142749  3e-06  0.993178  0.0  0.108804  0.14094  2.3e-05  0.994002  0.0
H  H5  1  0.87850964  0.61839352  0.38567427  1  0.126531  6e-06  0.924979  0.0  0.141765  -1.7e-05  0.993641  0.0  0.142761  -3e-06  0.993204  0.0  0.108845  0.140951  -2.3e-05  0.99403  0.0
H  H6  1  0.44882395  0.17408858  0.51528239  1  0.144969  -0.000228  0.953992  0.0  0.163099  -0.000171  1.014918  0.0  0.165235  -0.000114  1.0137  0.0  0.116314  0.161454  -0.00022  1.015884  0.0
H  H7  1  0.94883510  0.32590831  0.48472553  1  0.144917  0.000218  0.954131  0.0  0.163052  0.000171  1.015065  0.0  0.165191  0.000114  1.013845  0.0  0.116274  0.161406  0.00022  1.01604  0.0
H  H8  1  0.55117456  0.82591203  0.48471681  1  0.144969  -0.00023  0.953937  0.0  0.163099  -0.000171  1.014866  0.0  0.165237  -0.000114  1.013647  0.0  0.116316  0.161454  -0.00022  1.015833  0.0
H  H9  1  0.05116341  0.67409011  0.51527514  1  0.144916  0.000244  0.954065  0.0  0.163046  0.000171  1.015006  0.0  0.165185  0.000114  1.013786  0.0  0.116271  0.1614  0.00022  1.01598  0.0
H  H10  1  0.50437195  0.29487578  0.40979211  1  0.114816  3.6e-05  0.967708  0.0  0.123949  3.6e-05  1.049907  0.0  0.125075  2.1e-05  1.049211  0.0  0.108662  0.122974  3.9e-05  1.050604  0.0
H  H11  1  0.00438472  0.20512326  0.59020655  1  0.114734  -4e-05  0.967768  0.0  0.123866  -3.6e-05  1.049972  0.0  0.124992  -2.1e-05  1.049277  0.0  0.108643  0.122889  -3.9e-05  1.050666  0.0
H  H12  1  0.49562656  0.70512374  0.59020592  1  0.114801  4.1e-05  0.967701  0.0  0.123929  3.6e-05  1.049907  0.0  0.125055  2.1e-05  1.049212  0.0  0.108655  0.122953  3.9e-05  1.050604  0.0
H  H13  1  0.99561525  0.79487517  0.40979506  1  0.114721  -9e-06  0.967826  0.0  0.123863  -3.6e-05  1.050028  0.0  0.12499  -2.1e-05  1.049331  0.0  0.108654  0.122887  -3.9e-05  1.050722  0.0
H  H14  1  0.37658351  0.17721131  0.14640417  1  0.133606  0.000262  0.940847  0.0  0.136327  0.00023  1.012677  0.0  0.139512  0.000133  1.008532  0.0  0.140311  0.133577  0.000309  1.016428  0.0
H  H15  1  0.87657769  0.32279141  0.85360708  1  0.133541  -0.000265  0.940775  0.0  0.136273  -0.00023  1.01263  0.0  0.139459  -0.000133  1.008485  0.0  0.140247  0.133519  -0.000309  1.016378  0.0
H  H16  1  0.62341645  0.82278821  0.85359482  1  0.133639  0.000259  0.94083  0.0  0.13636  0.00023  1.012641  0.0  0.139544  0.000133  1.008498  0.0  0.140319  0.13361  0.000309  1.016391  0.0
H  H17  1  0.12342082  0.67720811  0.14639381  1  0.133526  -0.000259  0.940778  0.0  0.136248  -0.00023  1.012662  0.0  0.139436  -0.000132  1.008514  0.0  0.140235  0.133496  -0.000309  1.016412  0.0
C  C18  1  0.48738575  0.18027157  0.41572421  1  -0.201525  -0.000579  3.57706  -0.001  -0.317653  -0.000377  3.813375  0.0  -0.316159  -0.000298  3.821418  0.0  -0.128135  -0.318406  -0.000499  3.807935  0.0
C  C19  1  0.98739180  0.31972454  0.58427531  1  -0.201363  0.000645  3.577171  0.001  -0.317517  0.000376  3.813554  0.0  -0.316019  0.000299  3.821591  0.0  -0.128127  -0.318265  0.000498  3.808104  0.0
C  C20  1  0.51261421  0.81972794  0.58427477  1  -0.201492  -0.000602  3.577046  -0.001  -0.317615  -0.000378  3.813343  0.0  -0.316122  -0.000298  3.821386  0.0  -0.128129  -0.318372  -0.000499  3.807906  0.0
C  C21  1  0.01260817  0.68027389  0.41572536  1  -0.201318  0.000489  3.577143  0.0  -0.317487  0.000378  3.81353  0.0  -0.315989  0.000299  3.821567  0.0  -0.128129  -0.318231  0.000498  3.808066  0.0
C  C22  1  0.29593202  0.11636935  0.20528133  1  0.18884  0.00314  3.575727  0.002  0.109629  0.00025  3.84491  0.0  0.125141  0.00104  3.855332  0.001  0.18053  0.099417  -0.000454  3.838469  -0.001
C  C23  1  0.79592684  0.38362944  0.79472002  1  0.188921  -0.003118  3.57567  -0.002  0.109635  -0.00025  3.844949  0.0  0.125143  -0.001038  3.85537  -0.001  0.180453  0.099419  0.000453  3.838494  0.001
C  C24  1  0.70406795  0.88363017  0.79471670  1  0.188828  0.003152  3.575833  0.002  0.109612  0.000248  3.84497  0.0  0.125124  0.00104  3.855395  0.001  0.180512  0.099397  -0.000454  3.838525  -0.001
C  C25  1  0.20407167  0.61636898  0.20528064  1  0.189045  -0.003139  3.575598  -0.002  0.109747  -0.00025  3.844881  0.0  0.125255  -0.00104  3.855299  -0.001  0.180523  0.099529  0.000453  3.838433  0.001
Br  Br26  1  0.81380555  0.31034074  0.14745754  1  1.244435  0.005525  3.890472  0.007  1.198953  -0.000147  4.457518  0.001  1.246625  0.000385  4.429249  0.001  0.787526  1.163557  -0.001099  4.47839  0.0
Br  Br27  1  0.31378686  0.18965655  0.85252801  1  1.244392  -0.005518  3.888853  -0.007  1.198922  0.000143  4.455861  -0.001  1.246575  -0.000387  4.427594  -0.001  0.787582  1.163528  0.001099  4.47673  0.0
Br  Br28  1  0.18619442  0.68965878  0.85254240  1  1.244454  0.005519  3.890566  0.007  1.19895  -0.000146  4.45763  0.001  1.246624  0.000385  4.42936  0.001  0.787529  1.163552  -0.001099  4.478501  0.0
Br  Br29  1  0.68621601  0.81034406  0.14747025  1  1.244517  -0.005526  3.888777  -0.007  1.199042  0.000144  4.455771  -0.001  1.246706  -0.000386  4.427504  -0.001  0.787638  1.163648  0.0011  4.476644  0.0
N  N30  1  0.08568719  0.97522551  0.26910416  1  -0.068769  0.001069  2.972122  0.001  -0.067523  -0.000708  3.294152  0.0  -0.065874  -2.3e-05  3.307019  0.0  -0.08033  -0.068291  -0.001339  3.286014  -0.001
N  N31  1  0.58567220  0.52477601  0.73090324  1  -0.068816  -0.001041  2.971852  -0.001  -0.067572  0.000701  3.293892  0.0  -0.06592  1.9e-05  3.306755  0.0  -0.080391  -0.068346  0.001338  3.285758  0.001
N  N32  1  0.91431277  0.02477291  0.73089461  1  -0.068746  0.00106  2.972092  0.001  -0.06753  -0.000713  3.294121  0.0  -0.06588  -2.6e-05  3.306991  0.0  -0.080341  -0.068299  -0.001339  3.285983  -0.001
N  N33  1  0.41433067  0.47522571  0.26909808  1  -0.068852  -0.001035  2.971901  -0.001  -0.067604  0.000705  3.293937  0.0  -0.065953  2.2e-05  3.306799  0.0  -0.080383  -0.068378  0.001337  3.285805  0.001
N  N34  1  0.14329246  0.03066067  0.16679507  1  -0.260968  -0.06489  3.304159  -0.08  -0.229995  -0.046054  3.640187  -0.061  -0.260932  -0.038217  3.661155  -0.053  -0.26126  -0.211228  -0.050608  3.627248  -0.064
N  N35  1  0.64327917  0.46933785  0.83321162  1  -0.260878  0.064848  3.304118  0.08  -0.229883  0.046057  3.640155  0.061  -0.260799  0.038219  3.661098  0.053  -0.261159  -0.211114  0.050605  3.627196  0.064
N  N36  1  0.85670605  0.96933774  0.83320274  1  -0.261012  -0.064903  3.304179  -0.08  -0.230001  -0.046052  3.640165  -0.061  -0.26094  -0.038215  3.661138  -0.053  -0.261245  -0.211233  -0.050611  3.627221  -0.064
N  N37  1  0.35672079  0.53066278  0.16678948  1  -0.260966  0.064844  3.304172  0.08  -0.229968  0.046052  3.640217  0.061  -0.260882  0.038217  3.661154  0.053  -0.261205  -0.211199  0.050603  3.627262  0.064
N  N38  1  0.19824192  0.02466853  0.36826249  1  -0.074801  -0.005741  2.826633  -0.007  -0.087823  -0.003308  3.099175  -0.004  -0.086382  -0.002014  3.108271  -0.003  -0.059006  -0.088267  -0.004697  3.093074  -0.006
N  N39  1  0.69823619  0.47532998  0.63173663  1  -0.07487  0.005736  2.826662  0.007  -0.087901  0.0033  3.099163  0.004  -0.08646  0.00201  3.108261  0.003  -0.05904  -0.088352  0.004695  3.093072  0.006
N  N40  1  0.80175659  0.97532989  0.63173627  1  -0.074737  -0.005724  2.826648  -0.007  -0.087764  -0.003307  3.099179  -0.004  -0.086324  -0.002013  3.108279  -0.003  -0.058958  -0.088213  -0.004698  3.093082  -0.006
N  N41  1  0.30176522  0.52467174  0.36826565  1  -0.074801  0.005735  2.826602  0.007  -0.087834  0.003304  3.099077  0.004  -0.086393  0.002013  3.108175  0.003  -0.059021  -0.088284  0.004695  3.092987  0.006
N  N42  1  0.33038297  0.11363368  0.32993298  1  0.086645  -0.002062  3.535307  -0.003  0.213121  -0.001247  3.719454  -0.002  0.204396  -0.001141  3.737747  -0.002  -0.113761  0.218685  -0.001274  3.70695  -0.002
N  N43  1  0.83037233  0.38636552  0.67006788  1  0.086608  0.002047  3.535392  0.003  0.213146  0.001252  3.719517  0.002  0.204422  0.001143  3.73781  0.002  -0.113672  0.218709  0.001274  3.70701  0.002
N  N44  1  0.66961554  0.88636473  0.67006578  1  0.086536  -0.002072  3.535443  -0.003  0.213042  -0.001244  3.719545  -0.002  0.204316  -0.00114  3.737841  -0.002  -0.11382  0.218605  -0.001274  3.707037  -0.002
N  N45  1  0.16962618  0.61363400  0.32993301  1  0.086521  0.002068  3.535349  0.003  0.213083  0.001247  3.719452  0.002  0.204358  0.00114  3.737745  0.002  -0.113715  0.218647  0.001274  3.706946  0.002
O  O46  1  0.96510498  0.21841941  0.02133025  1  -0.652827  -0.094478  1.717596  -0.122  -0.643518  -0.056016  2.036416  -0.078  -0.676632  -0.042035  2.019179  -0.062  -0.407365  -0.621057  -0.065119  2.048549  -0.087
O  O47  1  0.46513133  0.28159366  0.97868825  1  -0.652867  0.094549  1.716412  0.122  -0.643606  0.056059  2.035224  0.078  -0.676699  0.042071  2.017966  0.062  -0.407431  -0.621126  0.065172  2.047289  0.087
O  O48  1  0.03489208  0.78157901  0.97866661  1  -0.652876  -0.094461  1.717734  -0.122  -0.643544  -0.056017  2.036541  -0.078  -0.676662  -0.042036  2.019308  -0.062  -0.407379  -0.621068  -0.065121  2.048629  -0.087
O  O49  1  0.53486863  0.71840806  0.02131307  1  -0.652883  0.094551  1.71645  0.122  -0.643597  0.056056  2.035207  0.078  -0.676686  0.042069  2.017945  0.062  -0.407415  -0.621123  0.065168  2.047294  0.087
O  O50  1  0.80318567  0.47638068  0.11236534  1  -0.626893  -0.019339  1.628247  -0.023  -0.610327  -0.011845  1.918093  -0.015  -0.63461  -0.007901  1.900271  -0.01  -0.384087  -0.592486  -0.014792  1.930754  -0.018
O  O51  1  0.30320057  0.02361792  0.88762160  1  -0.626741  0.019296  1.628105  0.023  -0.610174  0.011836  1.917953  0.015  -0.634466  0.007896  1.900148  0.01  -0.384011  -0.592344  0.014774  1.930627  0.018
O  O52  1  0.19681720  0.52361994  0.88763482  1  -0.626904  -0.019348  1.628289  -0.023  -0.610336  -0.011844  1.918142  -0.015  -0.634618  -0.0079  1.90032  -0.01  -0.384091  -0.592497  -0.014792  1.930805  -0.018
O  O53  1  0.69680085  0.97638379  0.11237687  1  -0.626784  0.019308  1.628105  0.023  -0.61023  0.011835  1.917957  0.015  -0.634521  0.007895  1.900149  0.01  -0.384028  -0.592398  0.014774  1.930634  0.018
O  O54  1  0.94260044  0.32897357  0.28328199  1  -0.585102  0.003393  1.606277  0.004  -0.558271  0.00047  1.861511  0.0  -0.579172  0.000648  1.850202  0.001  -0.364037  -0.543008  0.000415  1.869167  0.0
O  O55  1  0.44259763  0.17102225  0.71669731  1  -0.585118  -0.003398  1.606052  -0.004  -0.558266  -0.000473  1.861268  0.0  -0.579137  -0.000652  1.849935  -0.001  -0.364031  -0.543009  -0.000418  1.86892  0.0
O  O56  1  0.05740098  0.67102595  0.71671794  1  -0.585093  0.003395  1.606285  0.004  -0.558259  0.00047  1.861535  0.0  -0.579162  0.000648  1.850226  0.001  -0.364028  -0.542998  0.000415  1.869186  0.0
O  O57  1  0.55740669  0.82897836  0.28330190  1  -0.585194  -0.003407  1.605968  -0.004  -0.558335  -0.000472  1.861179  0.0  -0.57923  -0.000651  1.849862  -0.001  -0.364089  -0.54308  -0.000418  1.868833  0.0
