# generated using pymatgen
data_AgH6C4(NO)2
_symmetry_space_group_name_H-M   'P 1'
_cell_length_a   6.42181972
_cell_length_b   6.71998393
_cell_length_c   12.29101262
_cell_angle_alpha   90.00017375
_cell_angle_beta   95.80330632
_cell_angle_gamma   89.99967337
_symmetry_Int_Tables_number   1
_chemical_formula_structural   AgH6C4(NO)2
_chemical_formula_sum   'Ag4 H24 C16 N8 O8'
_cell_volume   527.69438368
_cell_formula_units_Z   4
loop_
 _symmetry_equiv_pos_site_id
 _symmetry_equiv_pos_as_xyz
  1  'x, y, z'
loop_
 _atom_site_type_symbol
 _atom_site_label
 _atom_site_symmetry_multiplicity
 _atom_site_fract_x
 _atom_site_fract_y
 _atom_site_fract_z
 _atom_site_occupancy
 _atom_site_hle17_bader_spin_density
 _atom_site_hle17_ddec_charge
 _atom_site_hle17_ddec_spin_density
 _atom_site_hle17_ddec_sum_bond_order
 _atom_site_hle17_magmom
 _atom_site_hse06_10hf_bader_spin_density
 _atom_site_hse06_10hf_ddec_charge
 _atom_site_hse06_10hf_ddec_spin_density
 _atom_site_hse06_10hf_ddec_sum_bond_order
 _atom_site_hse06_10hf_magmom
 _atom_site_hse06_bader_spin_density
 _atom_site_hse06_ddec_charge
 _atom_site_hse06_ddec_spin_density
 _atom_site_hse06_ddec_sum_bond_order
 _atom_site_hse06_magmom
 _atom_site_pbe_bader_spin_density
 _atom_site_pbe_cm5_charge
 _atom_site_pbe_ddec_charge
 _atom_site_pbe_ddec_spin_density
 _atom_site_pbe_ddec_sum_bond_order
 _atom_site_pbe_magmom
Ag  Ag0  1  0.00000190  0.99999793  0.00000007  1  0  0.570283  0  1.29101  0  0  0.449806  0  1.680847  0  0  0.481178  0  1.637777  0  0  0.440386  0.427606  0  1.710851  0
Ag  Ag1  1  0.99999881  0.00000302  0.49999926  1  0  0.570213  0  1.291116  0  0  0.449748  0  1.680914  0  0  0.481121  0  1.637849  0  0  0.440376  0.427552  0  1.710924  0
Ag  Ag2  1  0.50000482  0.32594351  0.25000133  1  0  0.552803  0  1.263258  0  0  0.416765  0  1.661868  0  0  0.454918  0  1.612967  0  0  0.42155  0.388758  0  1.696409  0
Ag  Ag3  1  0.49999695  0.67406476  0.74999963  1  0  0.552762  0  1.263221  0  0  0.416729  0  1.661813  0  0  0.454895  0  1.612905  0  0  0.421519  0.388691  0  1.696388  0
H  H4  1  0.85956104  0.99661672  0.24880022  1  0  0.087872  0  0.934962  0  0  0.099962  0  1.002466  0  0  0.100741  0  1.001406  0  0  0.121274  0.099267  0  1.00346  0
H  H5  1  0.14044159  0.99661577  0.25119917  1  0  0.087864  0  0.934946  0  0  0.099956  0  1.002451  0  0  0.100736  0  1.00139  0  0  0.121259  0.099261  0  1.003444  0
H  H6  1  0.14044535  0.00338560  0.75119929  1  0  0.087882  0  0.934915  0  0  0.099962  0  1.002443  0  0  0.100741  0  1.001383  0  0  0.121241  0.099267  0  1.003438  0
H  H7  1  0.85956488  0.00338357  0.74880197  1  0  0.087893  0  0.934972  0  0  0.100001  0  1.00246  0  0  0.100779  0  1.001403  0  0  0.121293  0.099308  0  1.003452  0
H  H8  1  0.78098689  0.55738923  0.07717303  1  0  0.079666  0  0.926423  0  0  0.094705  0  0.990854  0  0  0.095343  0  0.989791  0  0  0.120608  0.094179  0  0.991672  0
H  H9  1  0.21901502  0.55739027  0.42282562  1  0  0.079719  0  0.926356  0  0  0.094672  0  0.990835  0  0  0.095305  0  0.989777  0  0  0.120597  0.094152  0  0.991655  0
H  H10  1  0.21901171  0.44261457  0.92282699  1  0  0.079696  0  0.926368  0  0  0.094702  0  0.990783  0  0  0.095336  0  0.98972  0  0  0.120625  0.094175  0  0.991611  0
H  H11  1  0.78098206  0.44261056  0.57717515  1  0  0.079684  0  0.926474  0  0  0.094632  0  0.990955  0  0  0.095258  0  0.98991  0  0  0.120616  0.094113  0  0.991772  0
H  H12  1  0.65854985  0.74913279  0.14953865  1  0  0.071897  0  0.92705  0  0  0.087767  0  0.991371  0  0  0.087354  0  0.991537  0  0  0.119721  0.087826  0  0.991646  0
H  H13  1  0.34145257  0.74913125  0.35046033  1  0  0.071919  0  0.927145  0  0  0.08776  0  0.991455  0  0  0.087344  0  0.99162  0  0  0.119724  0.087817  0  0.991728  0
H  H14  1  0.34145345  0.25087250  0.85046155  1  0  0.071923  0  0.927132  0  0  0.087762  0  0.991442  0  0  0.087344  0  0.99161  0  0  0.119737  0.087823  0  0.991712  0
H  H15  1  0.65854760  0.25086511  0.64953975  1  0  0.071919  0  0.9271  0  0  0.087765  0  0.99143  0  0  0.087352  0  0.99159  0  0  0.119715  0.08782  0  0.991698  0
H  H16  1  0.30859764  0.74944628  0.15344883  1  0  0.078287  0  0.946512  0  0  0.089117  0  1.017141  0  0  0.089659  0  1.016791  0  0  0.117369  0.088546  0  1.017691  0
H  H17  1  0.69140643  0.74944871  0.34655184  1  0  0.078326  0  0.946504  0  0  0.089148  0  1.017164  0  0  0.089697  0  1.016806  0  0  0.117381  0.088579  0  1.017712  0
H  H18  1  0.69140574  0.25055008  0.84655300  1  0  0.078299  0  0.946527  0  0  0.089129  0  1.017159  0  0  0.089675  0  1.016803  0  0  0.117377  0.088558  0  1.017708  0
H  H19  1  0.30859535  0.25055807  0.65344911  1  0  0.078331  0  0.94649  0  0  0.089145  0  1.017123  0  0  0.089688  0  1.016774  0  0  0.117377  0.088575  0  1.017671  0
H  H20  1  0.16151931  0.55718860  0.08067674  1  0  0.071923  0  0.922141  0  0  0.086871  0  0.98898  0  0  0.087484  0  0.987381  0  0  0.118076  0.086275  0  0.990379  0
H  H21  1  0.83848577  0.55719060  0.41932285  1  0  0.071864  0  0.922088  0  0  0.086843  0  0.988914  0  0  0.087461  0  0.987312  0  0  0.118057  0.086247  0  0.990316  0
H  H22  1  0.83848250  0.44281074  0.91932503  1  0  0.071892  0  0.922059  0  0  0.086836  0  0.988919  0  0  0.087449  0  0.987321  0  0  0.118049  0.08624  0  0.990318  0
H  H23  1  0.16151283  0.44281321  0.58067717  1  0  0.071873  0  0.922145  0  0  0.086843  0  0.988955  0  0  0.087457  0  0.987353  0  0  0.118056  0.086246  0  0.990358  0
H  H24  1  0.98741788  0.30721273  0.17651462  1  0  0.082651  0  0.933062  0  0  0.093815  0  1.005588  0  0  0.095093  0  1.003257  0  0  0.11944  0.092749  0  1.007485  0
H  H25  1  0.01258550  0.30721289  0.32348532  1  0  0.082672  0  0.933033  0  0  0.093838  0  1.005552  0  0  0.095117  0  1.003219  0  0  0.119454  0.092774  0  1.007449  0
H  H26  1  0.01257611  0.69278661  0.82348684  1  0  0.082643  0  0.933062  0  0  0.093787  0  1.00558  0  0  0.095065  0  1.003257  0  0  0.119429  0.092722  0  1.007473  0
H  H27  1  0.98740849  0.69278793  0.67651614  1  0  0.082705  0  0.932996  0  0  0.093849  0  1.005506  0  0  0.095128  0  1.003177  0  0  0.11946  0.092782  0  1.007403  0
C  C28  1  0.00000030  0.90365017  0.24999950  1  0  0.059698  0  3.591545  0  0  -0.0099  0  3.840893  0  0  -0.002069  0  3.851916  0  0  0.011251  -0.015271  0  3.833457  0
C  C29  1  0.00000359  0.09635050  0.75000057  1  0  0.059647  0  3.59155  0  0  -0.010014  0  3.840994  0  0  -0.002183  0  3.852019  0  0  0.01122  -0.015395  0  3.833572  0
C  C30  1  0.79667400  0.65283455  0.14995147  1  0  0.083762  0  3.604403  0  0  0.00845  0  3.864254  0  0  0.017332  0  3.874763  0  0  0.020113  0.002427  0  3.857098  0
C  C31  1  0.20333052  0.65283677  0.35004744  1  0  0.083631  0  3.604563  0  0  0.008498  0  3.864263  0  0  0.017384  0  3.874743  0  0  0.020098  0.002473  0  3.85711  0
C  C32  1  0.20332930  0.34716627  0.85004874  1  0  0.083614  0  3.604495  0  0  0.008484  0  3.864214  0  0  0.017373  0  3.874691  0  0  0.020056  0.002458  0  3.857059  0
C  C33  1  0.79666969  0.34716406  0.64995345  1  0  0.08368  0  3.604614  0  0  0.008494  0  3.864364  0  0  0.017393  0  3.874849  0  0  0.020109  0.002472  0  3.857205  0
C  C34  1  0.17182470  0.65201787  0.15362043  1  0  0.07679  0  3.621289  0  0  -0.000628  0  3.886383  0  0  0.008664  0  3.89498  0  0  0.013495  -0.006947  0  3.880583  0
C  C35  1  0.82817827  0.65202101  0.34637841  1  0  0.076811  0  3.62126  0  0  -0.000682  0  3.886399  0  0  0.008602  0  3.89503  0  0  0.013523  -0.006999  0  3.880593  0
C  C36  1  0.82817548  0.34797850  0.84637965  1  0  0.076813  0  3.621351  0  0  -0.000644  0  3.886464  0  0  0.008651  0  3.895091  0  0  0.01352  -0.00696  0  3.880657  0
C  C37  1  0.17182191  0.34798279  0.65362166  1  0  0.076731  0  3.621344  0  0  -0.000651  0  3.886412  0  0  0.00864  0  3.895006  0  0  0.013521  -0.006967  0  3.880606  0
C  C38  1  0.00000168  0.40071890  0.24999915  1  0  0.075078  0  3.589948  0  0  0.001784  0  3.843455  0  0  0.009508  0  3.855196  0  0  0.015311  -0.00352  0  3.835435  0
C  C39  1  0.99999384  0.59928044  0.75000156  1  0  0.075014  0  3.589977  0  0  0.001813  0  3.84344  0  0  0.00955  0  3.855151  0  0  0.015308  -0.003489  0  3.835414  0
C  C40  1  0.51221923  0.07858817  0.04793677  1  0  0.50962  0  3.962835  0  0  0.470459  0  4.249236  0  0  0.499126  0  4.245715  0  0  0.177117  0.450779  0  4.250966  0
C  C41  1  0.48777586  0.07857297  0.45205921  1  0  0.509525  0  3.963054  0  0  0.470374  0  4.249464  0  0  0.499053  0  4.245923  0  0  0.177015  0.450692  0  4.251194  0
C  C42  1  0.48778255  0.92142159  0.95206418  1  0  0.509578  0  3.962969  0  0  0.470472  0  4.249307  0  0  0.499132  0  4.245795  0  0  0.177148  0.45081  0  4.251011  0
C  C43  1  0.51221133  0.92140851  0.54793058  1  0  0.509458  0  3.962897  0  0  0.470294  0  4.249344  0  0  0.498946  0  4.245835  0  0  0.177016  0.450627  0  4.251058  0
N  N44  1  0.98419415  0.77983433  0.14983923  1  0  -0.262475  0  3.229578  0  0  -0.167662  0  3.477028  0  0  -0.187364  0  3.495763  0  0  -0.352321  -0.153798  0  3.463666  0
N  N45  1  0.01580810  0.77983611  0.35015980  1  0  -0.262475  0  3.229652  0  0  -0.167659  0  3.477052  0  0  -0.18736  0  3.495788  0  0  -0.352331  -0.153793  0  3.463688  0
N  N46  1  0.01580915  0.22016501  0.85016098  1  0  -0.262439  0  3.229603  0  0  -0.167614  0  3.476997  0  0  -0.187321  0  3.495731  0  0  -0.352267  -0.153749  0  3.463636  0
N  N47  1  0.98419207  0.22016472  0.64984028  1  0  -0.26244  0  3.229626  0  0  -0.167605  0  3.477002  0  0  -0.187308  0  3.495731  0  0  -0.352306  -0.15374  0  3.463642  0
N  N48  1  0.80882489  0.52444609  0.24816067  1  0  -0.271325  0  3.239843  0  0  -0.174505  0  3.491395  0  0  -0.194305  0  3.509252  0  0  -0.35102  -0.160276  0  3.478557  0
N  N49  1  0.19117882  0.52444337  0.25183882  1  0  -0.271249  0  3.239928  0  0  -0.174517  0  3.491463  0  0  -0.194286  0  3.509273  0  0  -0.350936  -0.160285  0  3.478625  0
N  N50  1  0.19117372  0.47555920  0.75183935  1  0  -0.271238  0  3.239826  0  0  -0.174653  0  3.491483  0  0  -0.194422  0  3.509292  0  0  -0.351031  -0.160422  0  3.478642  0
N  N51  1  0.80881987  0.47555448  0.74816283  1  0  -0.271184  0  3.239919  0  0  -0.174374  0  3.491358  0  0  -0.194193  0  3.509231  0  0  -0.350949  -0.160146  0  3.478516  0
O  O52  1  0.36086762  0.09267956  0.10728131  1  0  -0.621993  0  2.090329  0  0  -0.55667  0  2.361054  0  0  -0.58443  0  2.348794  0  0  -0.336885  -0.537013  0  2.368981  0
O  O53  1  0.63912250  0.09265575  0.39271043  1  0  -0.621943  0  2.090495  0  0  -0.556628  0  2.361214  0  0  -0.584387  0  2.348944  0  0  -0.336812  -0.536997  0  2.369212  0
O  O54  1  0.63913415  0.90733020  0.89271965  1  0  -0.621986  0  2.090466  0  0  -0.556676  0  2.361162  0  0  -0.584439  0  2.34891  0  0  -0.336883  -0.53702  0  2.369069  0
O  O55  1  0.36085342  0.90731085  0.60727241  1  0  -0.621852  0  2.090484  0  0  -0.556497  0  2.361157  0  0  -0.584269  0  2.348933  0  0  -0.336703  -0.536834  0  2.369062  0
O  O56  1  0.32173799  0.81980124  0.93881156  1  0  -0.615576  0  2.049942  0  0  -0.560879  0  2.309957  0  0  -0.586447  0  2.300416  0  0  -0.331289  -0.542771  0  2.315965  0
O  O57  1  0.67826305  0.81979921  0.56119065  1  0  -0.615572  0  2.049835  0  0  -0.560852  0  2.309863  0  0  -0.586417  0  2.300325  0  0  -0.33132  -0.542744  0  2.315881  0
O  O58  1  0.67826695  0.18020554  0.06119033  1  0  -0.615624  0  2.049944  0  0  -0.560912  0  2.309981  0  0  -0.586482  0  2.300437  0  0  -0.331286  -0.542802  0  2.316001  0
O  O59  1  0.32173720  0.18020608  0.43881106  1  0  -0.615538  0  2.049984  0  0  -0.560816  0  2.309991  0  0  -0.586389  0  2.300443  0  0  -0.331246  -0.542703  0  2.316014  0
