# generated using pymatgen
data_CdH6C8I2(N2Cl)2
_symmetry_space_group_name_H-M   'P 1'
_cell_length_a   3.95940613
_cell_length_b   10.20880132
_cell_length_c   16.70862866
_cell_angle_alpha   89.99872494
_cell_angle_beta   89.61429211
_cell_angle_gamma   89.99911445
_symmetry_Int_Tables_number   1
_chemical_formula_structural   CdH6C8I2(N2Cl)2
_chemical_formula_sum   'Cd2 H12 C16 I4 N8 Cl4'
_cell_volume   675.36067582
_cell_formula_units_Z   2
loop_
 _symmetry_equiv_pos_site_id
 _symmetry_equiv_pos_as_xyz
  1  'x, y, z'
loop_
 _atom_site_type_symbol
 _atom_site_label
 _atom_site_symmetry_multiplicity
 _atom_site_fract_x
 _atom_site_fract_y
 _atom_site_fract_z
 _atom_site_occupancy
 _atom_site_hle17_bader_spin_density
 _atom_site_hle17_ddec_charge
 _atom_site_hle17_ddec_spin_density
 _atom_site_hle17_ddec_sum_bond_order
 _atom_site_hle17_magmom
 _atom_site_hse06_10hf_bader_spin_density
 _atom_site_hse06_10hf_ddec_charge
 _atom_site_hse06_10hf_ddec_spin_density
 _atom_site_hse06_10hf_ddec_sum_bond_order
 _atom_site_hse06_10hf_magmom
 _atom_site_hse06_bader_spin_density
 _atom_site_hse06_ddec_charge
 _atom_site_hse06_ddec_spin_density
 _atom_site_hse06_ddec_sum_bond_order
 _atom_site_hse06_magmom
 _atom_site_pbe_bader_spin_density
 _atom_site_pbe_cm5_charge
 _atom_site_pbe_ddec_charge
 _atom_site_pbe_ddec_spin_density
 _atom_site_pbe_ddec_sum_bond_order
 _atom_site_pbe_magmom
Cd  Cd0  1  0.49999722  0.50000009  0.50000043  1  0  0.942159  0  1.904283  0  0  0.770494  0  2.354107  0  0  0.818146  0  2.315878  0  0  0.596384  0.739176  0  2.377018  0
Cd  Cd1  1  0.99999872  0.00000279  0.00000040  1  0  0.942139  0  1.90433  0  0  0.770466  0  2.354165  0  0  0.81812  0  2.315929  0  0  0.596419  0.739156  0  2.377058  0
H  H2  1  0.25767301  0.20353263  0.52726205  1  0  0.084413  0  0.994875  0  0  0.086287  0  1.072985  0  0  0.090278  0  1.06949  0  0  0.092003  0.083312  0  1.075704  0
H  H3  1  0.24236154  0.70353041  0.97274352  1  0  0.084526  0  0.995078  0  0  0.086505  0  1.073019  0  0  0.090498  0  1.069516  0  0  0.09213  0.083526  0  1.075744  0
H  H4  1  0.74233675  0.79646657  0.47273644  1  0  0.084376  0  0.994892  0  0  0.086247  0  1.073012  0  0  0.090238  0  1.069517  0  0  0.091998  0.083272  0  1.075732  0
H  H5  1  0.75763547  0.29647467  0.02725674  1  0  0.084524  0  0.994932  0  0  0.086431  0  1.072981  0  0  0.090423  0  1.069477  0  0  0.092098  0.083454  0  1.075705  0
H  H6  1  0.83483138  0.25633654  0.78160072  1  0  0.078011  0  0.974996  0  0  0.080572  0  1.049022  0  0  0.084118  0  1.046535  0  0  0.097191  0.077841  0  1.051304  0
H  H7  1  0.66515378  0.75636264  0.71841402  1  0  0.077923  0  0.974993  0  0  0.080439  0  1.049038  0  0  0.083979  0  1.046561  0  0  0.097148  0.077706  0  1.051324  0
H  H8  1  0.16517838  0.74365482  0.21839778  1  0  0.077978  0  0.975069  0  0  0.080614  0  1.048958  0  0  0.084162  0  1.046474  0  0  0.0972  0.077881  0  1.051239  0
H  H9  1  0.33483546  0.24364048  0.28158922  1  0  0.077933  0  0.974958  0  0  0.080442  0  1.04902  0  0  0.083985  0  1.046541  0  0  0.097158  0.07771  0  1.051305  0
H  H10  1  0.76799698  0.44690052  0.68607554  1  0  0.099951  0  0.966527  0  0  0.097186  0  1.048003  0  0  0.101096  0  1.044202  0  0  0.107634  0.094105  0  1.050947  0
H  H11  1  0.73200860  0.94691882  0.81393787  1  0  0.099905  0  0.966653  0  0  0.097173  0  1.048134  0  0  0.101074  0  1.044343  0  0  0.107549  0.094093  0  1.051076  0
H  H12  1  0.23200756  0.55309574  0.31392534  1  0  0.099922  0  0.966547  0  0  0.097197  0  1.04802  0  0  0.101056  0  1.044261  0  0  0.107601  0.094116  0  1.050965  0
H  H13  1  0.26799086  0.05308626  0.18606360  1  0  0.099919  0  0.966599  0  0  0.097184  0  1.048068  0  0  0.101085  0  1.044276  0  0  0.107553  0.094104  0  1.051008  0
C  C14  1  0.38863422  0.21450212  0.58405924  1  0  0.043059  0  3.702005  0  0  0.007812  0  3.956846  0  0  0.010392  0  3.975702  0  0  0.03155  0.006322  0  3.944496  0
C  C15  1  0.11139218  0.71450473  0.91594856  1  0  0.042744  0  3.702032  0  0  0.007408  0  3.956992  0  0  0.009971  0  3.975888  0  0  0.03133  0.005933  0  3.944611  0
C  C16  1  0.61137562  0.78549512  0.41593806  1  0  0.042993  0  3.702274  0  0  0.007725  0  3.957141  0  0  0.010301  0  3.975998  0  0  0.031447  0.006246  0  3.944775  0
C  C17  1  0.88860728  0.28550035  0.08405290  1  0  0.042679  0  3.702217  0  0  0.007378  0  3.957156  0  0  0.009935  0  3.97607  0  0  0.031292  0.005904  0  3.944774  0
C  C18  1  0.43158086  0.11038791  0.63764920  1  0  0.1117  0  3.697724  0  0  0.125387  0  3.97076  0  0  0.129704  0  3.990828  0  0  0.072446  0.121824  0  3.957999  0
C  C19  1  0.06841412  0.61039469  0.86236055  1  0  0.111893  0  3.697022  0  0  0.125523  0  3.970175  0  0  0.129841  0  3.990232  0  0  0.072529  0.121961  0  3.957419  0
C  C20  1  0.56842393  0.88960639  0.36234809  1  0  0.111726  0  3.697724  0  0  0.125432  0  3.970727  0  0  0.129762  0  3.990778  0  0  0.072485  0.121858  0  3.957983  0
C  C21  1  0.93157784  0.38960843  0.13763971  1  0  0.111977  0  3.697146  0  0  0.125646  0  3.970233  0  0  0.129965  0  3.990285  0  0  0.072608  0.122084  0  3.957476  0
C  C22  1  0.70605173  0.24440220  0.72450458  1  0  0.087229  0  3.682164  0  0  0.066784  0  3.938464  0  0  0.067793  0  3.95497  0  0  0.046371  0.065648  0  3.928169  0
C  C23  1  0.79394154  0.74442347  0.77550914  1  0  0.087459  0  3.68189  0  0  0.067064  0  3.93832  0  0  0.068082  0  3.954812  0  0  0.046457  0.065923  0  3.928032  0
C  C24  1  0.29396051  0.75559211  0.27549452  1  0  0.08732  0  3.682205  0  0  0.066865  0  3.938502  0  0  0.067871  0  3.954999  0  0  0.046386  0.06573  0  3.928205  0
C  C25  1  0.20605275  0.25558161  0.22449411  1  0  0.087552  0  3.681816  0  0  0.067165  0  3.938249  0  0  0.068179  0  3.954745  0  0  0.046537  0.066023  0  3.92796  0
C  C26  1  0.66940881  0.34980447  0.67200508  1  0  0.073351  0  3.646291  0  0  0.042814  0  3.900237  0  0  0.047187  0  3.916625  0  0  0.042463  0.04002  0  3.889343  0
C  C27  1  0.83059042  0.84981969  0.82800902  1  0  0.073125  0  3.64649  0  0  0.042529  0  3.900462  0  0  0.046912  0  3.916847  0  0  0.042506  0.039734  0  3.889573  0
C  C28  1  0.33059325  0.65018983  0.32799519  1  0  0.073373  0  3.646233  0  0  0.042748  0  3.900212  0  0  0.04717  0  3.91663  0  0  0.042465  0.039953  0  3.889318  0
C  C29  1  0.16941157  0.15018735  0.17199245  1  0  0.073128  0  3.64634  0  0  0.042526  0  3.900324  0  0  0.046907  0  3.916709  0  0  0.042479  0.039729  0  3.889438  0
I  I30  1  0.24681253  0.92259603  0.60802120  1  0  0.011775  0  1.589353  0  0  -0.011596  0  1.947013  0  0  -0.015108  0  1.937905  0  0  0.113375  -0.007132  0  1.953552  0
I  I31  1  0.25317553  0.42259876  0.89198491  1  0  0.011734  0  1.58937  0  0  -0.011595  0  1.947075  0  0  -0.015103  0  1.93797  0  0  0.113403  -0.007135  0  1.953612  0
I  I32  1  0.75318732  0.07740121  0.39197428  1  0  0.011788  0  1.589327  0  0  -0.011593  0  1.947004  0  0  -0.015111  0  1.937895  0  0  0.113389  -0.007128  0  1.953547  0
I  I33  1  0.74681903  0.57740534  0.10801415  1  0  0.011742  0  1.589295  0  0  -0.011622  0  1.946994  0  0  -0.015132  0  1.937893  0  0  0.11339  -0.007162  0  1.953532  0
N  N34  1  0.51167103  0.33341842  0.60165006  1  0  -0.267432  0  3.258756  0  0  -0.189052  0  3.510722  0  0  -0.206336  0  3.533004  0  0  -0.310604  -0.177773  0  3.494288  0
N  N35  1  0.98834682  0.83342227  0.89835952  1  0  -0.267314  0  3.259052  0  0  -0.188846  0  3.510918  0  0  -0.206133  0  3.5332  0  0  -0.310621  -0.177567  0  3.494488  0
N  N36  1  0.48833360  0.66657882  0.39834962  1  0  -0.267386  0  3.258967  0  0  -0.18897  0  3.510936  0  0  -0.206251  0  3.533201  0  0  -0.310544  -0.17769  0  3.494502  0
N  N37  1  0.01165264  0.16658085  0.10164195  1  0  -0.267318  0  3.258978  0  0  -0.188838  0  3.510836  0  0  -0.206122  0  3.533111  0  0  -0.31062  -0.177561  0  3.494407  0
N  N38  1  0.58971408  0.12432022  0.70705454  1  0  -0.265786  0  3.089342  0  0  -0.232594  0  3.3501  0  0  -0.239897  0  3.365542  0  0  -0.300838  -0.227563  0  3.340358  0
N  N39  1  0.91026389  0.62433621  0.79295598  1  0  -0.265778  0  3.088864  0  0  -0.232567  0  3.349645  0  0  -0.239869  0  3.365083  0  0  -0.30085  -0.227538  0  3.339906  0
N  N40  1  0.41029322  0.87567507  0.29294275  1  0  -0.265832  0  3.08938  0  0  -0.232652  0  3.350152  0  0  -0.239959  0  3.365594  0  0  -0.300827  -0.227619  0  3.340413  0
N  N41  1  0.08972287  0.37566691  0.20704666  1  0  -0.265919  0  3.088998  0  0  -0.232721  0  3.349782  0  0  -0.240022  0  3.365214  0  0  -0.300926  -0.227692  0  3.340043  0
Cl  Cl42  1  0.99369020  0.62515294  0.57487945  1  0  -0.527329  0  1.038896  0  0  -0.458842  0  1.338057  0  0  -0.478293  0  1.317554  0  0  -0.289782  -0.446186  0  1.350727  0
Cl  Cl43  1  0.50630119  0.12515697  0.92511852  1  0  -0.527296  0  1.038939  0  0  -0.458839  0  1.338143  0  0  -0.478282  0  1.317633  0  0  -0.289785  -0.446189  0  1.350811  0
Cl  Cl44  1  0.00630168  0.37484431  0.42512200  1  0  -0.527335  0  1.038887  0  0  -0.458852  0  1.338069  0  0  -0.478301  0  1.317553  0  0  -0.289792  -0.446195  0  1.350738  0
Cl  Cl45  1  0.49369583  0.87484713  0.07488174  1  0  -0.527299  0  1.038904  0  0  -0.458866  0  1.338134  0  0  -0.47831  0  1.317624  0  0  -0.289782  -0.446213  0  1.3508  0
