# generated using pymatgen
data_ZnH28C22(N2O3)2
_symmetry_space_group_name_H-M   'P 1'
_cell_length_a   8.31538790
_cell_length_b   11.39421092
_cell_length_c   13.29464979
_cell_angle_alpha   98.94150273
_cell_angle_beta   105.57651554
_cell_angle_gamma   96.46172195
_symmetry_Int_Tables_number   1
_chemical_formula_structural   ZnH28C22(N2O3)2
_chemical_formula_sum   'Zn2 H56 C44 N8 O12'
_cell_volume   1182.76564762
_cell_formula_units_Z   2
loop_
 _symmetry_equiv_pos_site_id
 _symmetry_equiv_pos_as_xyz
  1  'x, y, z'
loop_
 _atom_site_type_symbol
 _atom_site_label
 _atom_site_symmetry_multiplicity
 _atom_site_fract_x
 _atom_site_fract_y
 _atom_site_fract_z
 _atom_site_occupancy
 _atom_site_hle17_bader_spin_density
 _atom_site_hle17_ddec_charge
 _atom_site_hle17_ddec_spin_density
 _atom_site_hle17_ddec_sum_bond_order
 _atom_site_hle17_magmom
 _atom_site_hse06_10hf_bader_spin_density
 _atom_site_hse06_10hf_ddec_charge
 _atom_site_hse06_10hf_ddec_spin_density
 _atom_site_hse06_10hf_ddec_sum_bond_order
 _atom_site_hse06_10hf_magmom
 _atom_site_hse06_bader_spin_density
 _atom_site_hse06_ddec_charge
 _atom_site_hse06_ddec_spin_density
 _atom_site_hse06_ddec_sum_bond_order
 _atom_site_hse06_magmom
 _atom_site_pbe_bader_spin_density
 _atom_site_pbe_cm5_charge
 _atom_site_pbe_ddec_charge
 _atom_site_pbe_ddec_spin_density
 _atom_site_pbe_ddec_sum_bond_order
 _atom_site_pbe_magmom
Zn  Zn0  1  0.43419807  0.29276078  0.29314836  1  0  0.900798  0  1.980954  0  0  0.693895  0  2.446199  0  0  0.739764  0  2.399883  0  0  0.676421  0.662155  0  2.477738  0
Zn  Zn1  1  0.56580196  0.70723941  0.70685139  1  0  0.900781  0  1.980921  0  0  0.693895  0  2.44618  0  0  0.739768  0  2.399861  0  0  0.676421  0.662159  0  2.477708  0
H  H2  1  0.17835471  0.08650096  0.30401012  1  0  0.358237  0  0.94985  0  0  0.326402  0  1.032953  0  0  0.33984  0  1.019757  0  0  0.290551  0.317006  0  1.042038  0
H  H3  1  0.82164803  0.91350012  0.69599020  1  0  0.358264  0  0.94984  0  0  0.326401  0  1.032981  0  0  0.339855  0  1.01975  0  0  0.290554  0.317008  0  1.042066  0
H  H4  1  0.74644712  0.38648825  0.22017240  1  0  0.358263  0  0.943693  0  0  0.325821  0  1.0288  0  0  0.339269  0  1.014717  0  0  0.293415  0.316411  0  1.038489  0
H  H5  1  0.25355436  0.61351284  0.77982771  1  0  0.358312  0  0.943626  0  0  0.325879  0  1.028717  0  0  0.339327  0  1.014635  0  0  0.293434  0.316471  0  1.038402  0
H  H6  1  0.87395826  0.09928215  0.21890834  1  0  0.10879  0  0.947708  0  0  0.120631  0  1.012828  0  0  0.123728  0  1.01097  0  0  0.103655  0.118376  0  1.014249  0
H  H7  1  0.12604322  0.90071893  0.78109252  1  0  0.108825  0  0.947688  0  0  0.120648  0  1.012838  0  0  0.123747  0  1.010985  0  0  0.103668  0.118395  0  1.014259  0
H  H8  1  0.76088636  0.07501287  0.08315368  1  0  0.08696  0  0.923044  0  0  0.105522  0  0.980592  0  0  0.107097  0  0.980417  0  0  0.099236  0.104347  0  0.980826  0
H  H9  1  0.23911637  0.92498821  0.91684740  1  0  0.086964  0  0.923015  0  0  0.105518  0  0.980586  0  0  0.107097  0  0.980412  0  0  0.099227  0.104344  0  0.980817  0
H  H10  1  0.81636800  0.87923585  0.11834157  1  0  0.073203  0  0.9358  0  0  0.091462  0  0.993487  0  0  0.092868  0  0.994273  0  0  0.091332  0.090434  0  0.992998  0
H  H11  1  0.18363598  0.12076523  0.88165896  1  0  0.073198  0  0.935869  0  0  0.091473  0  0.993508  0  0  0.09288  0  0.994291  0  0  0.09133  0.090444  0  0.993017  0
H  H12  1  0.76006823  0.90201589  0.23796243  1  0  0.065059  0  0.929817  0  0  0.087145  0  0.982965  0  0  0.087971  0  0.983304  0  0  0.09132  0.086403  0  0.982957  0
H  H13  1  0.23993450  0.09798520  0.76203789  1  0  0.065082  0  0.929796  0  0  0.087146  0  0.982949  0  0  0.087972  0  0.983284  0  0  0.091318  0.08641  0  0.982934  0
H  H14  1  0.53062690  0.76298449  0.08668400  1  0  0.063977  0  0.941573  0  0  0.082869  0  1.002217  0  0  0.084348  0  1.002094  0  0  0.088515  0.08179  0  1.002346  0
H  H15  1  0.46937687  0.23701570  0.91331713  1  0  0.063924  0  0.94156  0  0  0.082828  0  1.002222  0  0  0.084307  0  1.002101  0  0  0.088502  0.081748  0  1.002349  0
H  H16  1  0.51352131  0.88115889  0.01558928  1  0  0.059895  0  0.9551  0  0  0.079037  0  1.018372  0  0  0.078705  0  1.02047  0  0  0.08554  0.079151  0  1.017027  0
H  H17  1  0.48648227  0.11884040  0.98441095  1  0  0.059862  0  0.955091  0  0  0.079023  0  1.018373  0  0  0.0787  0  1.02046  0  0  0.085548  0.079128  0  1.01704  0
H  H18  1  0.29094199  0.88667949  0.10477736  1  0  0.089474  0  0.938095  0  0  0.102785  0  1.004056  0  0  0.105439  0  1.002251  0  0  0.098963  0.100866  0  1.00539  0
H  H19  1  0.70906158  0.11331980  0.89522362  1  0  0.089454  0  0.938097  0  0  0.102765  0  1.004063  0  0  0.105417  0  1.002259  0  0  0.098957  0.100846  0  1.005401  0
H  H20  1  0.42522352  0.86394721  0.22344028  1  0  0.089642  0  0.927765  0  0  0.106692  0  0.988123  0  0  0.108515  0  0.987874  0  0  0.100978  0.105303  0  0.988453  0
H  H21  1  0.57478172  0.13605388  0.77656046  1  0  0.089698  0  0.927713  0  0  0.106746  0  0.988074  0  0  0.108566  0  0.987825  0  0  0.100992  0.105358  0  0.988403  0
H  H22  1  0.73625835  0.73426635  0.31176121  1  0  0.12455  0  0.966697  0  0  0.142216  0  1.02868  0  0  0.14486  0  1.027165  0  0  0.091736  0.140293  0  1.029817  0
H  H23  1  0.26374523  0.26573294  0.68823977  1  0  0.124555  0  0.96663  0  0  0.142226  0  1.028615  0  0  0.144871  0  1.027097  0  0  0.09173  0.140304  0  1.029753  0
H  H24  1  0.60674285  0.70363467  0.39630475  1  0  0.141368  0  0.950952  0  0  0.161073  0  1.007092  0  0  0.162973  0  1.007981  0  0  0.098583  0.159689  0  1.006548  0
H  H25  1  0.39325863  0.29636642  0.60369686  1  0  0.141373  0  0.950959  0  0  0.161084  0  1.007097  0  0  0.162981  0  1.007989  0  0  0.098598  0.1597  0  1.006551  0
H  H26  1  0.51169042  0.69915181  0.25977006  1  0  0.123248  0  0.96122  0  0  0.143255  0  1.024066  0  0  0.145197  0  1.024012  0  0  0.094729  0.141907  0  1.024091  0
H  H27  1  0.48831231  0.30084927  0.74023026  1  0  0.123263  0  0.961244  0  0  0.143285  0  1.024065  0  0  0.145228  0  1.02401  0  0  0.094734  0.141939  0  1.024086  0
H  H28  1  0.11151160  0.41590149  0.50812605  1  0  0.129793  0  0.957638  0  0  0.149595  0  1.016757  0  0  0.151426  0  1.016941  0  0  0.093713  0.14825  0  1.0167  0
H  H29  1  0.88849114  0.58409960  0.49187352  1  0  0.129811  0  0.957657  0  0  0.149623  0  1.016762  0  0  0.151445  0  1.016956  0  0  0.093716  0.148278  0  1.016703  0
H  H30  1  0.00175854  0.27185432  0.51199665  1  0  0.127529  0  0.970769  0  0  0.14542  0  1.030509  0  0  0.146988  0  1.031784  0  0  0.0903  0.14428  0  1.029691  0
H  H31  1  0.99824524  0.72814587  0.48800373  1  0  0.127512  0  0.970805  0  0  0.145414  0  1.03054  0  0  0.146985  0  1.031811  0  0  0.090289  0.144273  0  1.029719  0
H  H32  1  0.92569620  0.34586892  0.40512334  1  0  0.141286  0  0.947748  0  0  0.15758  0  1.011645  0  0  0.160468  0  1.01094  0  0  0.098534  0.155558  0  1.012129  0
H  H33  1  0.07430528  0.65413217  0.59487753  1  0  0.141356  0  0.94771  0  0  0.157628  0  1.011643  0  0  0.160517  0  1.010936  0  0  0.098545  0.155601  0  1.012134  0
H  H34  1  0.63114883  0.46588135  0.49661113  1  0  0.087225  0  0.96443  0  0  0.092466  0  1.033888  0  0  0.095299  0  1.031044  0  0  0.117628  0.090356  0  1.036026  0
H  H35  1  0.36885349  0.53411794  0.50338964  1  0  0.08722  0  0.964439  0  0  0.092452  0  1.033896  0  0  0.095286  0  1.031054  0  0  0.117637  0.090343  0  1.036036  0
H  H36  1  0.81582031  0.47184063  0.67513772  1  0  0.120826  0  0.952827  0  0  0.129339  0  1.012668  0  0  0.133098  0  1.011221  0  0  0.110205  0.126633  0  1.013912  0
H  H37  1  0.18418286  0.52815685  0.32486145  1  0  0.120806  0  0.952838  0  0  0.129312  0  1.012687  0  0  0.133071  0  1.01124  0  0  0.110216  0.12661  0  1.01393  0
H  H38  1  0.75836268  0.08293852  0.59696087  1  0  0.116856  0  0.956151  0  0  0.125534  0  1.015868  0  0  0.129475  0  1.014278  0  0  0.107265  0.122721  0  1.017139  0
H  H39  1  0.24163820  0.91705986  0.40303727  1  0  0.11678  0  0.956216  0  0  0.125516  0  1.01586  0  0  0.129458  0  1.01427  0  0  0.107272  0.122706  0  1.01713  0
H  H40  1  0.57342629  0.09413741  0.41833767  1  0  0.06911  0  0.955795  0  0  0.077731  0  1.018638  0  0  0.07942  0  1.01772  0  0  0.111616  0.076467  0  1.019358  0
H  H41  1  0.42657229  0.90586187  0.58166246  1  0  0.069051  0  0.955763  0  0  0.077658  0  1.018625  0  0  0.079346  0  1.017709  0  0  0.111578  0.076394  0  1.019342  0
H  H42  1  0.05542623  0.27735234  0.75044623  1  0  0.085974  0  0.945869  0  0  0.104388  0  1.008494  0  0  0.105021  0  1.00872  0  0  0.099712  0.103902  0  1.008362  0
H  H43  1  0.94457712  0.72265145  0.24955530  1  0  0.085966  0  0.945883  0  0  0.104377  0  1.008529  0  0  0.105012  0  1.008754  0  0  0.099715  0.103892  0  1.008395  0
H  H44  1  0.89613464  0.18413709  0.77925707  1  0  0.085026  0  0.956193  0  0  0.098339  0  1.025449  0  0  0.100193  0  1.024457  0  0  0.09438  0.096937  0  1.026259  0
H  H45  1  0.10386998  0.81586130  0.22074247  1  0  0.084996  0  0.956176  0  0  0.098331  0  1.025427  0  0  0.100186  0  1.024434  0  0  0.094367  0.096929  0  1.026238  0
H  H46  1  0.97642926  0.46110048  0.83243051  1  0  0.091323  0  0.935982  0  0  0.108678  0  0.99503  0  0  0.109985  0  0.995095  0  0  0.099512  0.107671  0  0.995135  0
H  H47  1  0.02356162  0.53889790  0.16757047  1  0  0.091353  0  0.935945  0  0  0.108714  0  0.994997  0  0  0.110019  0  0.995073  0  0  0.099505  0.107701  0  0.995113  0
H  H48  1  0.80236534  0.37785274  0.85716640  1  0  0.075272  0  0.930539  0  0  0.094282  0  0.988571  0  0  0.09491  0  0.989389  0  0  0.092562  0.093789  0  0.988054  0
H  H49  1  0.19762473  0.62214203  0.14282945  1  0  0.075247  0  0.930611  0  0  0.094284  0  0.988619  0  0  0.094918  0  0.989435  0  0  0.092571  0.093792  0  0.988101  0
H  H50  1  0.84848404  0.28600184  0.01647060  1  0  0.105269  0  0.958357  0  0  0.114982  0  1.021022  0  0  0.118308  0  1.019972  0  0  0.104763  0.112578  0  1.021942  0
H  H51  1  0.15150849  0.71399834  0.98353090  1  0  0.105255  0  0.958346  0  0  0.114974  0  1.021033  0  0  0.118302  0  1.019984  0  0  0.104731  0.112569  0  1.021957  0
H  H52  1  0.04976371  0.25089947  0.17929845  1  0  0.080722  0  0.966175  0  0  0.084252  0  1.040282  0  0  0.087314  0  1.036875  0  0  0.115327  0.082001  0  1.042726  0
H  H53  1  0.95023112  0.74909981  0.82070256  1  0  0.080702  0  0.966239  0  0  0.084242  0  1.040333  0  0  0.087304  0  1.036928  0  0  0.115317  0.081991  0  1.04278  0
H  H54  1  0.46337238  0.38759507  0.09147764  1  0  0.074005  0  0.955564  0  0  0.079706  0  1.024538  0  0  0.082646  0  1.021689  0  0  0.113785  0.07756  0  1.026573  0
H  H55  1  0.53661870  0.61240420  0.90852048  1  0  0.073957  0  0.955629  0  0  0.079694  0  1.02457  0  0  0.082635  0  1.021723  0  0  0.113766  0.077546  0  1.026603  0
H  H56  1  0.27662299  0.42618784  0.92082826  1  0  0.118713  0  0.966937  0  0  0.126724  0  1.028443  0  0  0.130773  0  1.026803  0  0  0.10498  0.123758  0  1.029834  0
H  H57  1  0.72336809  0.57381144  0.07917062  1  0  0.118736  0  0.966908  0  0  0.126706  0  1.028472  0  0  0.130757  0  1.02683  0  0  0.104972  0.123743  0  1.029859  0
C  C58  1  0.46322403  0.04138539  0.19761508  1  0  0.149459  0  3.675798  0  0  0.137312  0  3.942345  0  0  0.146127  0  3.953508  0  0  0.118033  0.131489  0  3.934722  0
C  C59  1  0.53677850  0.95861479  0.80238434  1  0  0.149553  0  3.675718  0  0  0.137401  0  3.942252  0  0  0.146217  0  3.953413  0  0  0.118085  0.131573  0  3.934637  0
C  C60  1  0.61513612  0.11413278  0.18989039  1  0  0.149876  0  3.686885  0  0  0.137348  0  3.958093  0  0  0.146812  0  3.968972  0  0  0.11774  0.131071  0  3.950707  0
C  C61  1  0.38486536  0.88586830  0.81010897  1  0  0.149815  0  3.686889  0  0  0.137345  0  3.958032  0  0  0.146808  0  3.968922  0  0  0.117713  0.131069  0  3.950646  0
C  C62  1  0.75310200  0.05521713  0.16057908  1  0  -0.173008  0  3.690541  0  0  -0.212904  0  3.943086  0  0  -0.215376  0  3.951993  0  0  -0.15749  -0.211102  0  3.936955  0
C  C63  1  0.24690094  0.94478485  0.83942140  1  0  -0.172979  0  3.690569  0  0  -0.212916  0  3.943133  0  0  -0.215401  0  3.952056  0  0  -0.157487  -0.21112  0  3.937006  0
C  C64  1  0.72789403  0.91931931  0.15619488  1  0  -0.09558  0  3.677882  0  0  -0.133231  0  3.936499  0  0  -0.134608  0  3.950189  0  0  -0.16417  -0.132108  0  3.926962  0
C  C65  1  0.27210870  0.08068177  0.84380619  1  0  -0.095744  0  3.678064  0  0  -0.133319  0  3.936634  0  0  -0.13469  0  3.950328  0  0  -0.164232  -0.132202  0  3.927094  0
C  C66  1  0.54538864  0.86153792  0.09649876  1  0  -0.104526  0  3.70061  0  0  -0.14746  0  3.967471  0  0  -0.148665  0  3.982309  0  0  -0.169398  -0.146425  0  3.957116  0
C  C67  1  0.45461410  0.13846317  0.90350156  1  0  -0.10428  0  3.70054  0  0  -0.147299  0  3.967478  0  0  -0.14851  0  3.982316  0  0  -0.169308  -0.146255  0  3.95712  0
C  C68  1  0.42338743  0.90836946  0.15507123  1  0  -0.171355  0  3.710276  0  0  -0.212832  0  3.968715  0  0  -0.215019  0  3.977886  0  0  -0.157692  -0.211195  0  3.962282  0
C  C69  1  0.57661530  0.09163163  0.84492834  1  0  -0.171469  0  3.710194  0  0  -0.212947  0  3.968694  0  0  -0.21513  0  3.977861  0  0  -0.157738  -0.211305  0  3.962261  0
C  C70  1  0.62825147  0.54609771  0.29006771  1  0  0.744378  0  3.842011  0  0  0.69985  0  4.142573  0  0  0.733465  0  4.134591  0  0  0.213156  0.677029  0  4.147229  0
C  C71  1  0.37174981  0.45390247  0.70993150  1  0  0.744458  0  3.841957  0  0  0.699877  0  4.142599  0  0  0.733494  0  4.134616  0  0  0.213179  0.677045  0  4.14727  0
C  C72  1  0.62308181  0.67951184  0.31704510  1  0  -0.451746  0  3.660324  0  0  -0.529044  0  3.896371  0  0  -0.536522  0  3.899973  0  0  -0.247327  -0.523719  0  3.893743  0
C  C73  1  0.37692197  0.32048835  0.68295603  1  0  -0.451765  0  3.660295  0  0  -0.529077  0  3.896358  0  0  -0.536553  0  3.899962  0  0  -0.247327  -0.523752  0  3.89373  0
C  C74  1  0.14052248  0.26565015  0.39621919  1  0  0.750165  0  3.822901  0  0  0.703151  0  4.128545  0  0  0.737389  0  4.119132  0  0  0.211678  0.679887  0  4.134205  0
C  C75  1  0.85947984  0.73434914  0.60378007  1  0  0.750345  0  3.822721  0  0  0.703304  0  4.12841  0  0  0.737541  0  4.118995  0  0  0.211761  0.680039  0  4.134071  0
C  C76  1  0.04070308  0.32897919  0.46101083  1  0  -0.457691  0  3.661633  0  0  -0.532799  0  3.894985  0  0  -0.540944  0  3.899579  0  0  -0.253192  -0.52703  0  3.891691  0
C  C77  1  0.95929965  0.67102189  0.53898949  1  0  -0.457813  0  3.661741  0  0  -0.532911  0  3.895092  0  0  -0.541048  0  3.899693  0  0  -0.25319  -0.527136  0  3.891798  0
C  C78  1  0.66320018  0.38258343  0.52101416  1  0  0.144634  0  3.681383  0  0  0.110704  0  3.938222  0  0  0.119047  0  3.953894  0  0  0.050759  0.105275  0  3.927671  0
C  C79  1  0.33680070  0.61741495  0.47898474  1  0  0.144634  0  3.681442  0  0  0.110741  0  3.938265  0  0  0.119081  0  3.953944  0  0  0.05076  0.105309  0  3.927721  0
C  C80  1  0.76823151  0.38457651  0.62235659  1  0  -0.154772  0  3.671667  0  0  -0.170829  0  3.918022  0  0  -0.178648  0  3.93762  0  0  -0.079559  -0.165876  0  3.905042  0
C  C81  1  0.23177061  0.61542188  0.37764328  1  0  -0.154699  0  3.671746  0  0  -0.17078  0  3.918061  0  0  -0.178598  0  3.937659  0  0  -0.07954  -0.165834  0  3.905092  0
C  C82  1  0.80753141  0.27673417  0.65261852  1  0  0.150737  0  3.718032  0  0  0.165579  0  3.955934  0  0  0.170658  0  3.978273  0  0  0.012402  0.162328  0  3.940684  0
C  C83  1  0.19247071  0.72326422  0.34738059  1  0  0.150674  0  3.718045  0  0  0.16559  0  3.955899  0  0  0.17067  0  3.978237  0  0  0.012406  0.162342  0  3.940649  0
C  C84  1  0.73429512  0.17008481  0.57760669  1  0  -0.186768  0  3.723397  0  0  -0.200638  0  3.966346  0  0  -0.209069  0  3.987369  0  0  -0.088779  -0.19521  0  3.952275  0
C  C85  1  0.26570680  0.82991267  0.42239226  1  0  -0.186733  0  3.723495  0  0  -0.200658  0  3.966394  0  0  -0.209088  0  3.987417  0  0  -0.088825  -0.195236  0  3.952326  0
C  C86  1  0.63107742  0.17577948  0.47780906  1  0  0.121594  0  3.743055  0  0  0.092537  0  3.993699  0  0  0.098808  0  4.014203  0  0  0.039346  0.088542  0  3.979694  0
C  C87  1  0.36892221  0.82421890  0.52218963  1  0  0.121656  0  3.743037  0  0  0.092621  0  3.99371  0  0  0.098892  0  4.014214  0  0  0.039407  0.088628  0  3.979699  0
C  C88  1  0.92662950  0.27218824  0.75883420  1  0  -0.159248  0  3.685746  0  0  -0.20276  0  3.936792  0  0  -0.204656  0  3.948792  0  0  -0.155127  -0.201193  0  3.928248  0
C  C89  1  0.07337158  0.72781104  0.24116561  1  0  -0.159151  0  3.685559  0  0  -0.202745  0  3.93673  0  0  -0.204637  0  3.948735  0  0  -0.155121  -0.201179  0  3.928186  0
C  C90  1  0.93070636  0.37466860  0.85012619  1  0  -0.152887  0  3.69843  0  0  -0.199875  0  3.954052  0  0  -0.201554  0  3.966079  0  0  -0.156438  -0.198525  0  3.945503  0
C  C91  1  0.06928557  0.62532888  0.14987259  1  0  -0.152879  0  3.698391  0  0  -0.199898  0  3.954096  0  0  -0.201597  0  3.966167  0  0  -0.156447  -0.19854  0  3.945538  0
C  C92  1  0.04608346  0.35747476  0.95315662  1  0  0.157836  0  3.721435  0  0  0.174157  0  3.959334  0  0  0.179527  0  3.982065  0  0  0.014278  0.17078  0  3.943741  0
C  C93  1  0.95390742  0.64252361  0.04684285  1  0  0.157815  0  3.721582  0  0  0.17417  0  3.959452  0  0  0.179546  0  3.982185  0  0  0.014311  0.170797  0  3.943859  0
C  C94  1  0.98398007  0.30776886  0.02781377  1  0  -0.183726  0  3.715716  0  0  -0.202216  0  3.96562  0  0  -0.210703  0  3.986323  0  0  -0.088991  -0.196772  0  3.951769  0
C  C95  1  0.01601246  0.69223132  0.97218773  1  0  -0.183683  0  3.715804  0  0  -0.202197  0  3.965721  0  0  -0.21069  0  3.986428  0  0  -0.088955  -0.196753  0  3.951861  0
C  C96  1  0.09623724  0.28809071  0.11985044  1  0  0.138112  0  3.702397  0  0  0.105768  0  3.956347  0  0  0.114037  0  3.97275  0  0  0.045698  0.100455  0  3.945196  0
C  C97  1  0.90375780  0.71190947  0.88014997  1  0  0.138084  0  3.702582  0  0  0.105721  0  3.956543  0  0  0.11399  0  3.972948  0  0  0.045688  0.100411  0  3.945395  0
C  C98  1  0.32591718  0.36502368  0.07071015  1  0  0.120777  0  3.727333  0  0  0.091048  0  3.980235  0  0  0.097427  0  3.999726  0  0  0.04125  0.08702  0  3.966961  0
C  C99  1  0.67407641  0.63497560  0.92928914  1  0  0.120809  0  3.727342  0  0  0.091044  0  3.980225  0  0  0.097423  0  3.999722  0  0  0.04129  0.087024  0  3.966942  0
C  C100  1  0.22237609  0.38698759  0.97672772  1  0  -0.182328  0  3.694469  0  0  -0.196457  0  3.937882  0  0  -0.205422  0  3.959451  0  0  -0.088864  -0.190647  0  3.923489  0
C  C101  1  0.77761709  0.61300989  0.02327278  1  0  -0.182366  0  3.694433  0  0  -0.196472  0  3.937864  0  0  -0.205437  0  3.959426  0  0  -0.088873  -0.190666  0  3.923473  0
N  N102  1  0.36864535  0.09715352  0.24593460  1  0  -0.158066  0  3.225336  0  0  -0.115947  0  3.529471  0  0  -0.12077  0  3.537769  0  0  -0.236904  -0.113135  0  3.523871  0
N  N103  1  0.63135613  0.90284757  0.75406475  1  0  -0.158036  0  3.225301  0  0  -0.115927  0  3.529424  0  0  -0.120751  0  3.537726  0  0  -0.23692  -0.113116  0  3.523834  0
N  N104  1  0.62214539  0.23033760  0.21082861  1  0  -0.16519  0  3.166524  0  0  -0.130495  0  3.474276  0  0  -0.135386  0  3.482782  0  0  -0.233408  -0.127674  0  3.468649  0
N  N105  1  0.37785485  0.76966348  0.78916978  1  0  -0.165183  0  3.16647  0  0  -0.130509  0  3.474213  0  0  -0.135401  0  3.482721  0  0  -0.233364  -0.127686  0  3.468576  0
N  N106  1  0.59623078  0.28039291  0.44858950  1  0  -0.332526  0  3.288327  0  0  -0.254903  0  3.555848  0  0  -0.274337  0  3.574843  0  0  -0.32512  -0.241777  0  3.542764  0
N  N107  1  0.40376885  0.71960547  0.55140995  1  0  -0.332509  0  3.288339  0  0  -0.254927  0  3.555869  0  0  -0.274362  0  3.574863  0  0  -0.32513  -0.241795  0  3.542774  0
N  N108  1  0.26497705  0.31581186  0.14154311  1  0  -0.318969  0  3.272794  0  0  -0.242964  0  3.537103  0  0  -0.261847  0  3.556067  0  0  -0.321219  -0.230247  0  3.524063  0
N  N109  1  0.73501674  0.68418832  0.85845784  1  0  -0.318931  0  3.273001  0  0  -0.24289  0  3.537278  0  0  -0.261779  0  3.556247  0  0  -0.321227  -0.230175  0  3.524235  0
O  O110  1  0.22776347  0.02796020  0.25097922  1  0  -0.398628  0  2.045338  0  0  -0.358953  0  2.280169  0  0  -0.380312  0  2.27645  0  0  -0.252134  -0.343738  0  2.28221  0
O  O111  1  0.77223781  0.97203999  0.74901998  1  0  -0.398709  0  2.04538  0  0  -0.358997  0  2.280214  0  0  -0.380363  0  2.276478  0  0  -0.252152  -0.343785  0  2.282264  0
O  O112  1  0.76590585  0.29605745  0.20464478  1  0  -0.39252  0  2.066267  0  0  -0.348041  0  2.303191  0  0  -0.369481  0  2.299586  0  0  -0.250393  -0.332761  0  2.305193  0
O  O113  1  0.23409293  0.70394273  0.79535551  1  0  -0.392564  0  2.06616  0  0  -0.348075  0  2.303061  0  0  -0.369512  0  2.299453  0  0  -0.250427  -0.332798  0  2.305062  0
O  O114  1  0.52935990  0.47658698  0.32103151  1  0  -0.633619  0  2.078886  0  0  -0.560599  0  2.343736  0  0  -0.587745  0  2.331908  0  0  -0.317574  -0.541661  0  2.351097  0
O  O115  1  0.47064013  0.52341321  0.67896824  1  0  -0.633635  0  2.078872  0  0  -0.560595  0  2.343741  0  0  -0.587743  0  2.331915  0  0  -0.317579  -0.541653  0  2.351105  0
O  O116  1  0.72749861  0.51296859  0.23641830  1  0  -0.638824  0  1.969275  0  0  -0.582684  0  2.189258  0  0  -0.607317  0  2.178817  0  0  -0.326346  -0.565541  0  2.1959  0
O  O117  1  0.27250267  0.48703160  0.76358241  1  0  -0.638915  0  1.969262  0  0  -0.582763  0  2.18927  0  0  -0.607397  0  2.178829  0  0  -0.326385  -0.565615  0  2.195915  0
O  O118  1  0.24649769  0.33070762  0.36614429  1  0  -0.637977  0  2.050657  0  0  -0.562932  0  2.312342  0  0  -0.59029  0  2.300176  0  0  -0.3183  -0.543951  0  2.320104  0
O  O119  1  0.75350670  0.66929527  0.63385579  1  0  -0.63803  0  2.05047  0  0  -0.563047  0  2.312259  0  0  -0.590404  0  2.300086  0  0  -0.318418  -0.544072  0  2.320021  0
O  O120  1  0.10721989  0.15059137  0.37319890  1  0  -0.630011  0  1.966362  0  0  -0.576705  0  2.181067  0  0  -0.600521  0  2.168929  0  0  -0.335177  -0.56018  0  2.188927  0
O  O121  1  0.89278534  0.84940972  0.62680184  1  0  -0.630063  0  1.966275  0  0  -0.576712  0  2.180994  0  0  -0.600536  0  2.168843  0  0  -0.33516  -0.560189  0  2.188854  0
