# generated using pymatgen
data_CeCdH17C21N3O16
_symmetry_space_group_name_H-M   'P 1'
_cell_length_a   9.57252493
_cell_length_b   11.81635302
_cell_length_c   13.43562599
_cell_angle_alpha   88.52298591
_cell_angle_beta   69.63662466
_cell_angle_gamma   85.75199322
_symmetry_Int_Tables_number   1
_chemical_formula_structural   CeCdH17C21N3O16
_chemical_formula_sum   'Ce2 Cd2 H34 C42 N6 O32'
_cell_volume   1420.84443478
_cell_formula_units_Z   2
loop_
 _symmetry_equiv_pos_site_id
 _symmetry_equiv_pos_as_xyz
  1  'x, y, z'
loop_
 _atom_site_type_symbol
 _atom_site_label
 _atom_site_symmetry_multiplicity
 _atom_site_fract_x
 _atom_site_fract_y
 _atom_site_fract_z
 _atom_site_occupancy
 _atom_site_hle17_bader_spin_density
 _atom_site_hle17_ddec_charge
 _atom_site_hle17_ddec_spin_density
 _atom_site_hle17_ddec_sum_bond_order
 _atom_site_hle17_magmom
 _atom_site_hse06_10hf_bader_spin_density
 _atom_site_hse06_10hf_ddec_charge
 _atom_site_hse06_10hf_ddec_spin_density
 _atom_site_hse06_10hf_ddec_sum_bond_order
 _atom_site_hse06_10hf_magmom
 _atom_site_hse06_bader_spin_density
 _atom_site_hse06_ddec_charge
 _atom_site_hse06_ddec_spin_density
 _atom_site_hse06_ddec_sum_bond_order
 _atom_site_hse06_magmom
 _atom_site_pbe_bader_charge
 _atom_site_pbe_bader_spin_density
 _atom_site_pbe_cm5_charge
 _atom_site_pbe_ddec_charge
 _atom_site_pbe_ddec_spin_density
 _atom_site_pbe_ddec_sum_bond_order
 _atom_site_pbe_magmom
Ce  Ce0  1  0.05056224  0.27177526  0.26282778  1  0  2.00058  0  2.328922  0  0  2.04922  0  2.812764  0  0  2.178939  0  2.789676  0  2.362311  0  1.551089  1.946951  0  2.851957  0
Ce  Ce1  1  0.31234039  0.76981960  0.73720915  1  0  1.999775  0  2.330426  0  0  2.048423  0  2.814419  0  0  2.179712  0  2.788759  0  2.363471  0  1.550739  1.946489  0  2.852943  0
Cd  Cd2  1  0.56484040  0.48866713  0.12097113  1  0  1.28809  0  1.504132  0  0  1.130081  0  1.930643  0  0  1.184796  0  1.869566  0  1.348415  0  0.777937  1.090323  0  1.973503  0
Cd  Cd3  1  0.68646340  0.98794705  0.87837861  1  0  1.289386  0  1.498285  0  0  1.131024  0  1.923763  0  0  1.185903  0  1.862706  0  1.347147  0  0.778055  1.091157  0  1.96661  0
H  H4  1  0.98706585  0.60441158  0.56441753  1  0  0.130969  0  0.917201  0  0  0.141309  0  0.970858  0  0  0.145752  0  0.968051  0  0.128347  0  0.12423  0.138115  0  0.973219  0
H  H5  1  0.54695649  0.10398433  0.43786293  1  0  0.129761  0  0.916689  0  0  0.140474  0  0.970223  0  0  0.144922  0  0.967398  0  0.131085  0  0.123706  0.137255  0  0.972638  0
H  H6  1  0.79844966  0.74030727  0.51827987  1  0  0.112623  0  0.962993  0  0  0.119554  0  1.025794  0  0  0.124408  0  1.021469  0  0.118395  0  0.111474  0.116016  0  1.028954  0
H  H7  1  0.31371589  0.24021862  0.48344764  1  0  0.113034  0  0.965708  0  0  0.120287  0  1.027698  0  0  0.125157  0  1.023418  0  0.157217  0  0.111554  0.116743  0  1.030813  0
H  H8  1  0.70773937  0.68616641  0.37452442  1  0  0.126122  0  0.919328  0  0  0.136355  0  0.973923  0  0  0.140624  0  0.971441  0  0.104838  0  0.119206  0.133187  0  0.976136  0
H  H9  1  0.08128455  0.18559490  0.62579755  1  0  0.126256  0  0.91958  0  0  0.136124  0  0.974602  0  0  0.140351  0  0.972213  0  0.086079  0  0.119217  0.132969  0  0.976795  0
H  H10  1  0.31548594  0.86341857  0.35166595  1  0  0.115671  0  0.940991  0  0  0.122413  0  1.004701  0  0  0.127103  0  1.001414  0  0.124591  0  0.113826  0.119037  0  1.007331  0
H  H11  1  0.66906516  0.36353698  0.64863799  1  0  0.114197  0  0.942158  0  0  0.121383  0  1.00546  0  0  0.126007  0  1.002253  0  0.113904  0  0.113177  0.118029  0  1.008074  0
H  H12  1  0.10384911  0.80936426  0.51139878  1  0  0.114674  0  0.968157  0  0  0.123088  0  1.027238  0  0  0.127819  0  1.023244  0  0.157921  0  0.113423  0.119739  0  1.029889  0
H  H13  1  0.61773477  0.30992565  0.48704601  1  0  0.114752  0  0.967504  0  0  0.123743  0  1.025699  0  0  0.128368  0  1.021823  0  0.155663  0  0.113587  0.120422  0  1.028367  0
H  H14  1  0.87452506  0.94540083  0.58045918  1  0  0.121161  0  0.935736  0  0  0.129953  0  0.995944  0  0  0.133618  0  0.994105  0  0.126987  0  0.115919  0.127318  0  0.997738  0
H  H15  1  0.45650283  0.44535630  0.41705467  1  0  0.119991  0  0.937938  0  0  0.129018  0  0.998173  0  0  0.132648  0  0.99634  0  0.11414  0  0.115311  0.126398  0  0.999983  0
H  H16  1  0.41212359  0.36005426  0.84762910  1  0  0.11368  0  0.952054  0  0  0.119847  0  1.019028  0  0  0.123098  0  1.017778  0  0.105197  0  0.113875  0.117494  0  1.020045  0
H  H17  1  0.26108051  0.86099067  0.15337333  1  0  0.113749  0  0.954131  0  0  0.119861  0  1.021234  0  0  0.123075  0  1.02003  0  0.107726  0  0.113531  0.117523  0  1.022199  0
H  H18  1  0.32166997  0.21240438  0.75615103  1  0  0.10178  0  0.928925  0  0  0.114086  0  0.982032  0  0  0.116325  0  0.981712  0  0.076243  0  0.114392  0.1125  0  0.982314  0
H  H19  1  0.07777148  0.71543943  0.24462131  1  0  0.101362  0  0.928942  0  0  0.114147  0  0.981511  0  0  0.116274  0  0.981319  0  0.129184  0  0.114121  0.112643  0  0.98168  0
H  H20  1  0.11164737  0.09557709  0.86847334  1  0  0.110721  0  0.967679  0  0  0.116434  0  1.036045  0  0  0.119592  0  1.034537  0  0.107654  0  0.111443  0.114242  0  1.037016  0
H  H21  1  0.98033549  0.59745123  0.13148848  1  0  0.11014  0  0.968087  0  0  0.115795  0  1.036528  0  0  0.118943  0  1.035019  0  0.1176  0  0.111377  0.113608  0  1.037483  0
H  H22  1  0.85255683  0.41365794  0.99282275  1  0  0.432878  0  0.854303  0  0  0.406564  0  0.909397  0  0  0.416518  0  0.894863  0  0.645061  0  0.300746  0.399443  0  0.919791  0
H  H23  1  0.85015308  0.91357517  0.00506758  1  0  0.432536  0  0.855368  0  0  0.406076  0  0.910771  0  0  0.416043  0  0.89623  0  0.631553  0  0.300244  0.398942  0  0.921176  0
H  H24  1  0.81584039  0.36192715  0.10606784  1  0  0.416945  0  0.890125  0  0  0.386814  0  0.952792  0  0  0.398472  0  0.935958  0  0.641108  0  0.290625  0.378657  0  0.964478  0
H  H25  1  0.92361967  0.86103311  0.89203920  1  0  0.416505  0  0.890701  0  0  0.386576  0  0.953157  0  0  0.39825  0  0.936261  0  0.638343  0  0.290592  0.378404  0  0.964889  0
H  H26  1  0.36736776  0.34353509  0.28661849  1  0  0.429492  0  0.86192  0  0  0.399346  0  0.927126  0  0  0.410379  0  0.911013  0  0.650844  0  0.302407  0.391757  0  0.938178  0
H  H27  1  0.65265146  0.84162271  0.71308076  1  0  0.430267  0  0.862516  0  0  0.39967  0  0.927378  0  0  0.410803  0  0.911173  0  0.65056  0  0.302069  0.392018  0  0.938472  0
H  H28  1  0.47822898  0.26821956  0.19831879  1  0  0.436412  0  0.819046  0  0  0.413803  0  0.881884  0  0  0.42367  0  0.870561  0  0.641328  0  0.318141  0.406626  0  0.890134  0
H  H29  1  0.67677548  0.76770315  0.80246417  1  0  0.437559  0  0.818311  0  0  0.414839  0  0.88133  0  0  0.424685  0  0.869832  0  0.616505  0  0.318672  0.407711  0  0.88952  0
H  H30  1  0.38196299  0.64049219  0.29181436  1  0  0.442789  0  0.852314  0  0  0.409848  0  0.918443  0  0  0.421191  0  0.901908  0  0.660819  0  0.296396  0.401819  0  0.930143  0
H  H31  1  0.67565857  0.14040779  0.70682525  1  0  0.443457  0  0.850817  0  0  0.410307  0  0.917326  0  0  0.42168  0  0.900734  0  0.649556  0  0.296375  0.402242  0  0.929085  0
H  H32  1  0.47406131  0.70887878  0.19076625  1  0  0.434334  0  0.802977  0  0  0.420933  0  0.849011  0  0  0.428658  0  0.84116  0  0.621808  0  0.331522  0.415249  0  0.854971  0
H  H33  1  0.66403618  0.20861531  0.80910387  1  0  0.433707  0  0.803112  0  0  0.420722  0  0.848576  0  0  0.428422  0  0.840768  0  0.61977  0  0.331606  0.415018  0  0.854598  0
H  H34  1  0.77526322  0.60117496  0.96082866  1  0  0.417619  0  0.882171  0  0  0.390149  0  0.939951  0  0  0.399557  0  0.926416  0  0.625694  0  0.291274  0.383433  0  0.949607  0
H  H35  1  0.73413943  0.09881796  0.04172190  1  0  0.417322  0  0.883147  0  0  0.390033  0  0.940519  0  0  0.399497  0  0.926897  0  0.627361  0  0.290997  0.383281  0  0.950244  0
H  H36  1  0.65294630  0.57139447  0.91344590  1  0  0.424479  0  0.878145  0  0  0.392732  0  0.942777  0  0  0.405277  0  0.924498  0  0.647515  0  0.284646  0.38383  0  0.955738  0
H  H37  1  0.56499911  0.06984026  0.08710170  1  0  0.426588  0  0.874108  0  0  0.394467  0  0.939099  0  0  0.406957  0  0.920873  0  0.656485  0  0.285114  0.385567  0  0.952073  0
C  C38  1  0.99883946  0.48833447  0.44086124  1  0  0.117463  0  3.736265  0  0  0.125727  0  3.980262  0  0  0.129001  0  3.996781  0  0.496337  0  0.128713  0.123469  0  3.969038  0
C  C39  1  0.43656414  0.98713916  0.56010795  1  0  0.116277  0  3.737047  0  0  0.125857  0  3.979322  0  0  0.129098  0  3.995948  0  0.475146  0  0.128914  0.123645  0  3.96808  0
C  C40  1  0.94512203  0.58698864  0.50110850  1  0  -0.080537  0  3.645708  0  0  -0.10572  0  3.89284  0  0  -0.108289  0  3.909425  0  0.009292  0  -0.055574  -0.10436  0  3.883179  0
C  C41  1  0.44261409  0.08629578  0.50045644  1  0  -0.079661  0  3.646206  0  0  -0.105662  0  3.893228  0  0  -0.108265  0  3.909895  0  0.023958  0  -0.056031  -0.104328  0  3.883525  0
C  C42  1  0.84094642  0.66045674  0.47640983  1  0  0.001463  0  3.662466  0  0  -0.015733  0  3.917576  0  0  -0.013976  0  3.933345  0  0.036296  0  -0.056606  -0.017004  0  3.907567  0
C  C43  1  0.31449781  0.15995990  0.52486907  1  0  0.00023  0  3.66391  0  0  -0.017135  0  3.91902  0  0  -0.015334  0  3.934691  0  -0.011871  0  -0.05706  -0.018368  0  3.908984  0
C  C44  1  0.78893747  0.63096308  0.39610415  1  0  -0.084684  0  3.652567  0  0  -0.110597  0  3.903903  0  0  -0.11304  0  3.921769  0  -0.039938  0  -0.060405  -0.109288  0  3.892743  0
C  C45  1  0.18339491  0.13019724  0.60433282  1  0  -0.083837  0  3.653743  0  0  -0.10995  0  3.905238  0  0  -0.112433  0  3.923079  0  -0.012566  0  -0.060193  -0.108611  0  3.89399  0
C  C46  1  0.84377498  0.52824234  0.34300380  1  0  0.089961  0  3.766347  0  0  0.096412  0  4.019288  0  0  0.096473  0  4.039816  0  0.499258  0  0.120508  0.096706  0  4.004959  0
C  C47  1  0.18541210  0.02692999  0.65681346  1  0  0.088093  0  3.764827  0  0  0.095457  0  4.016921  0  0  0.095594  0  4.037464  0  0.493323  0  0.119964  0.095761  0  4.002527  0
C  C48  1  0.79180431  0.48335988  0.25906689  1  0  0.638913  0  3.893362  0  0  0.59292  0  4.191703  0  0  0.629939  0  4.180741  0  1.566283  0  0.230297  0.56801  0  4.19738  0
C  C49  1  0.05060031  0.98188199  0.74000142  1  0  0.637887  0  3.892558  0  0  0.591257  0  4.191999  0  0  0.628236  0  4.181103  0  1.571934  0  0.229041  0.566381  0  4.197617  0
C  C50  1  0.11698119  0.40528041  0.45595274  1  0  0.616761  0  3.894407  0  0  0.576142  0  4.197089  0  0  0.611588  0  4.187241  0  1.597553  0  0.223003  0.552197  0  4.202075  0
C  C51  1  0.56942271  0.90421070  0.54559427  1  0  0.616745  0  3.894696  0  0  0.575721  0  4.197362  0  0  0.611148  0  4.187613  0  1.580785  0  0.222626  0.551807  0  4.202315  0
C  C52  1  0.20020991  0.02137579  0.33141860  1  0  0.096146  0  3.765015  0  0  0.104866  0  4.012379  0  0  0.106287  0  4.032197  0  0.508191  0  0.122147  0.104667  0  3.997739  0
C  C53  1  0.53195879  0.52054285  0.66893930  1  0  0.095192  0  3.766146  0  0  0.102227  0  4.015454  0  0  0.103744  0  4.035086  0  0.514179  0  0.121328  0.102037  0  4.000882  0
C  C54  1  0.21335139  0.91831979  0.38151127  1  0  -0.086294  0  3.663909  0  0  -0.11223  0  3.914868  0  0  -0.115251  0  3.932646  0  -0.03704  0  -0.063368  -0.11057  0  3.903167  0
C  C55  1  0.59627468  0.41814543  0.61836655  1  0  -0.084762  0  3.662937  0  0  -0.110327  0  3.913586  0  0  -0.113271  0  3.931315  0  -0.035992  0  -0.063103  -0.108739  0  3.901901  0
C  C56  1  0.09407102  0.88864623  0.47076416  1  0  -8.4e-05  0  3.662062  0  0  -0.017664  0  3.914622  0  0  -0.015965  0  3.930439  0  -0.0143  0  -0.058125  -0.018199  0  3.903958  0
C  C57  1  0.56671210  0.38872306  0.52803021  1  0  0.001221  0  3.659764  0  0  -0.016849  0  3.912046  0  0  -0.015077  0  3.927878  0  -0.004017  0  -0.057585  -0.017488  0  3.901455  0
C  C58  1  0.96768205  0.96341186  0.50917159  1  0  -0.071896  0  3.659292  0  0  -0.097389  0  3.909473  0  0  -0.099989  0  3.92673  0  -0.020353  0  -0.05964  -0.096478  0  3.899668  0
C  C59  1  0.47807682  0.46317130  0.48914410  1  0  -0.07254  0  3.658772  0  0  -0.097913  0  3.908918  0  0  -0.10047  0  3.926139  0  -0.04948  0  -0.059458  -0.09702  0  3.899235  0
C  C60  1  0.96297466  0.06414774  0.45399419  1  0  0.112016  0  3.743491  0  0  0.118712  0  3.98871  0  0  0.121525  0  4.00504  0  0.501347  0  0.128607  0.117272  0  3.97745  0
C  C61  1  0.41709963  0.56322994  0.54488619  1  0  0.113294  0  3.743616  0  0  0.119656  0  3.989563  0  0  0.122435  0  4.005921  0  0.550793  0  0.128683  0.118176  0  3.978403  0
C  C62  1  0.83561615  0.15351212  0.48629762  1  0  0.643329  0  3.880672  0  0  0.602937  0  4.179  0  0  0.64068  0  4.166308  0  1.617756  0  0.236489  0.577353  0  4.185984  0
C  C63  1  0.32094978  0.65205968  0.51231173  1  0  0.644443  0  3.876795  0  0  0.603059  0  4.176782  0  0  0.640855  0  4.164044  0  1.60043  0  0.236133  0.577486  0  4.183801  0
C  C64  1  0.32159360  0.06676063  0.23717544  1  0  0.621367  0  3.905155  0  0  0.578758  0  4.209271  0  0  0.615027  0  4.198922  0  1.591027  0  0.224358  0.554605  0  4.214024  0
C  C65  1  0.55873349  0.56586404  0.76410679  1  0  0.622543  0  3.900594  0  0  0.580257  0  4.204809  0  0  0.616568  0  4.194386  0  1.592824  0  0.224883  0.556065  0  4.209683  0
C  C66  1  0.25121219  0.32372839  0.00020310  1  0  0.11639  0  3.736146  0  0  0.126226  0  3.977745  0  0  0.128512  0  3.994694  0  0.487966  0  0.128675  0.124762  0  3.965552  0
C  C67  1  0.25301593  0.82299219  0.00004297  1  0  0.11766  0  3.732619  0  0  0.126439  0  3.975895  0  0  0.128678  0  3.992926  0  0.568606  0  0.128835  0.124996  0  3.963704  0
C  C68  1  0.31967444  0.30924676  0.89084422  1  0  -0.074363  0  3.642205  0  0  -0.099101  0  3.885514  0  0  -0.101181  0  3.901923  0  0.032193  0  -0.056815  -0.09773  0  3.874745  0
C  C69  1  0.21173680  0.80993793  0.10972892  1  0  -0.075427  0  3.643653  0  0  -0.099842  0  3.887321  0  0  -0.101899  0  3.903723  0  -0.017572  0  -0.056815  -0.09848  0  3.876553  0
C  C70  1  0.26929164  0.22693439  0.84128989  1  0  0.022297  0  3.654862  0  0  0.007929  0  3.901856  0  0  0.010757  0  3.917556  0  0.010905  0  -0.048421  0.006056  0  3.891317  0
C  C71  1  0.11106163  0.72874318  0.15917830  1  0  0.0221  0  3.653962  0  0  0.007192  0  3.901166  0  0  0.010121  0  3.916802  0  -0.038375  0  -0.048484  0.005241  0  3.890687  0
C  C72  1  0.15402344  0.16177509  0.90244932  1  0  -0.077764  0  3.644527  0  0  -0.103297  0  3.889343  0  0  -0.10586  0  3.906784  0  0.053438  0  -0.059573  -0.10158  0  3.877799  0
C  C73  1  0.05701058  0.66296864  0.09759699  1  0  -0.076296  0  3.646295  0  0  -0.101777  0  3.891477  0  0  -0.104328  0  3.908842  0  0.004816  0  -0.059504  -0.100119  0  3.880019  0
C  C74  1  0.09323619  0.18073233  0.01170096  1  0  0.104678  0  3.747263  0  0  0.113523  0  3.992518  0  0  0.115707  0  4.010605  0  0.454953  0  0.125971  0.112076  0  3.979779  0
C  C75  1  0.10583305  0.68046456  0.98807640  1  0  0.105098  0  3.749563  0  0  0.113667  0  3.995047  0  0  0.115909  0  4.013134  0  0.480475  0  0.126577  0.112279  0  3.982209  0
C  C76  1  0.97430862  0.11300427  0.08873863  1  0  0.64482  0  3.89063  0  0  0.602826  0  4.193273  0  0  0.640195  0  4.18109  0  1.619654  0  0.232092  0.577728  0  4.200013  0
C  C77  1  0.06358274  0.61216029  0.91068553  1  0  0.645632  0  3.891466  0  0  0.60413  0  4.193644  0  0  0.641548  0  4.181385  0  1.602498  0  0.231792  0.578974  0  4.200487  0
C  C78  1  0.30024834  0.40164324  0.06634606  1  0  0.635718  0  3.909389  0  0  0.591675  0  4.208058  0  0  0.62949  0  4.197099  0  1.605682  0  0.227912  0.566206  0  4.213702  0
C  C79  1  0.36824910  0.89989294  0.93396685  1  0  0.635458  0  3.908559  0  0  0.591397  0  4.207939  0  0  0.629317  0  4.196862  0  1.598113  0  0.227008  0.565885  0  4.213684  0
N  N80  1  0.94904203  0.46075190  0.36380149  1  0  -0.358286  0  3.283464  0  0  -0.337674  0  3.555418  0  0  -0.357864  0  3.584714  0  -1.239094  0  -0.359174  -0.323396  0  3.534394  0
N  N81  1  0.31074410  0.95919593  0.63627897  1  0  -0.357383  0  3.280982  0  0  -0.337076  0  3.552001  0  0  -0.357472  0  3.581374  0  -1.228444  0  -0.358576  -0.322846  0  3.530979  0
N  N82  1  0.07590565  0.09066360  0.36661251  1  0  -0.367234  0  3.294447  0  0  -0.347138  0  3.566307  0  0  -0.368189  0  3.596443  0  -1.247039  0  -0.364322  -0.332012  0  3.544005  0
N  N83  1  0.44219387  0.58941229  0.63326772  1  0  -0.366564  0  3.294997  0  0  -0.345662  0  3.56698  0  0  -0.366858  0  3.596998  0  -1.249187  0  -0.363533  -0.330599  0  3.544753  0
N  N84  1  0.14070601  0.26092995  0.05812307  1  0  -0.368002  0  3.302925  0  0  -0.347952  0  3.57377  0  0  -0.368944  0  3.603446  0  -1.231913  0  -0.361983  -0.332913  0  3.552354  0
N  N85  1  0.20015929  0.75975756  0.94177500  1  0  -0.368973  0  3.302707  0  0  -0.348576  0  3.574247  0  0  -0.369776  0  3.603988  0  -1.242416  0  -0.363031  -0.333582  0  3.552787  0
O  O86  1  0.17022776  0.32923761  0.37965564  1  0  -0.683647  0  2.024104  0  0  -0.662978  0  2.289113  0  0  -0.701923  0  2.287615  0  -1.160104  0  -0.385215  -0.635098  0  2.288554  0
O  O87  1  0.54707984  0.82740245  0.62129002  1  0  -0.683081  0  2.025915  0  0  -0.661832  0  2.290157  0  0  -0.700948  0  2.288675  0  -1.13529  0  -0.38434  -0.634012  0  2.289494  0
O  O88  1  0.15646219  0.41106542  0.53378302  1  0  -0.520593  0  1.885951  0  0  -0.494207  0  2.09466  0  0  -0.517502  0  2.088244  0  -1.125321  0  -0.285965  -0.477489  0  2.098729  0
O  O89  1  0.68610851  0.91095550  0.46890973  1  0  -0.521916  0  1.885682  0  0  -0.495685  0  2.095003  0  0  -0.518944  0  2.088531  0  -1.132419  0  -0.286948  -0.479015  0  2.099102  0
O  O90  1  0.85701188  0.38752057  0.21750729  1  0  -0.653953  0  2.035475  0  0  -0.623454  0  2.288864  0  0  -0.658796  0  2.284196  0  -1.151803  0  -0.34678  -0.597147  0  2.289956  0
O  O91  1  0.07458690  0.88557678  0.78115840  1  0  -0.654091  0  2.035127  0  0  -0.62306  0  2.28811  0  0  -0.658657  0  2.283424  0  -1.156258  0  -0.347076  -0.596784  0  2.289188  0
O  O92  1  0.69217642  0.54022225  0.23487176  1  0  -0.620506  0  2.004414  0  0  -0.564274  0  2.24765  0  0  -0.591434  0  2.234888  0  -1.153114  0  -0.304152  -0.545435  0  2.256169  0
O  O93  1  0.92750507  0.03895063  0.76414663  1  0  -0.619829  0  1.999338  0  0  -0.564084  0  2.242185  0  0  -0.591095  0  2.229447  0  -1.157397  0  -0.303061  -0.545365  0  2.25072  0
O  O94  1  0.28564502  0.16408842  0.20240830  1  0  -0.653816  0  2.000887  0  0  -0.640788  0  2.266973  0  0  -0.678257  0  2.265038  0  -1.150892  0  -0.378049  -0.613358  0  2.266535  0
O  O95  1  0.48751540  0.66274291  0.79887942  1  0  -0.652595  0  1.999472  0  0  -0.639729  0  2.266017  0  0  -0.677296  0  2.263774  0  -1.154369  0  -0.377498  -0.61238  0  2.265531  0
O  O96  1  0.44537791  0.01250181  0.20006360  1  0  -0.55001  0  1.916096  0  0  -0.509718  0  2.119583  0  0  -0.532697  0  2.108255  0  -1.148209  0  -0.291223  -0.493794  0  2.126978  0
O  O97  1  0.64589283  0.51203971  0.80187019  1  0  -0.550605  0  1.915304  0  0  -0.510011  0  2.118642  0  0  -0.533075  0  2.107241  0  -1.142471  0  -0.291538  -0.494081  0  2.126089  0
O  O98  1  0.84705056  0.23355529  0.41668973  1  0  -0.634016  0  1.997107  0  0  -0.624958  0  2.265721  0  0  -0.663698  0  2.263826  0  -1.133456  0  -0.374056  -0.596513  0  2.264847  0
O  O99  1  0.26210876  0.73136880  0.58233647  1  0  -0.634246  0  1.998767  0  0  -0.624954  0  2.268561  0  0  -0.663887  0  2.266465  0  -1.134911  0  -0.373894  -0.596613  0  2.267665  0
O  O100  1  0.73121519  0.14934541  0.57325940  1  0  -0.58664  0  1.959473  0  0  -0.543639  0  2.179002  0  0  -0.568986  0  2.168977  0  -1.17873  0  -0.294428  -0.525887  0  2.186081  0
O  O101  1  0.30309707  0.64810768  0.42477938  1  0  -0.58775  0  1.957725  0  0  -0.543964  0  2.177567  0  0  -0.56924  0  2.167458  0  -1.170667  0  -0.294559  -0.526255  0  2.184621  0
O  O102  1  0.21625582  0.41079047  0.16419970  1  0  -0.6458  0  2.023038  0  0  -0.63495  0  2.293415  0  0  -0.671691  0  2.291827  0  -1.155954  0  -0.368369  -0.608023  0  2.292805  0
O  O103  1  0.38031383  0.90915473  0.83601405  1  0  -0.646479  0  2.024633  0  0  -0.635969  0  2.295824  0  0  -0.673008  0  2.29416  0  -1.143107  0  -0.369309  -0.609059  0  2.295229  0
O  O104  1  0.42133008  0.44766199  0.02366774  1  0  -0.591885  0  2.004356  0  0  -0.532814  0  2.243398  0  0  -0.562268  0  2.232097  0  -1.138085  0  -0.298609  -0.51238  0  2.250571  0
O  O105  1  0.44830684  0.94504526  0.97659192  1  0  -0.591446  0  2.00476  0  0  -0.532167  0  2.243335  0  0  -0.561598  0  2.231841  0  -1.137465  0  -0.297635  -0.511744  0  2.250619  0
O  O106  1  0.94990487  0.13401855  0.18728083  1  0  -0.611952  0  1.942752  0  0  -0.606084  0  2.199964  0  0  -0.642659  0  2.195154  0  -1.123491  0  -0.369478  -0.579626  0  2.201756  0
O  O107  1  0.13771388  0.63206798  0.81223443  1  0  -0.612797  0  1.940858  0  0  -0.607358  0  2.198128  0  0  -0.644272  0  2.19315  0  -1.124191  0  -0.370083  -0.580874  0  2.199961  0
O  O108  1  0.90874344  0.04392437  0.05456226  1  0  -0.603298  0  1.968795  0  0  -0.558522  0  2.182848  0  0  -0.5823  0  2.169591  0  -1.183472  0  -0.301797  -0.542066  0  2.191585  0
O  O109  1  0.96384867  0.54368206  0.94453953  1  0  -0.602707  0  1.964803  0  0  -0.558605  0  2.178677  0  0  -0.582335  0  2.165414  0  -1.185934  0  -0.30165  -0.542198  0  2.187401  0
O  O110  1  0.78127414  0.36569246  0.04393263  1  0  -0.82845  0  1.805307  0  0  -0.769194  0  1.965372  0  0  -0.792068  0  1.932722  0  -1.241808  0  -0.584192  -0.753036  0  1.988364  0
O  O111  1  0.82850042  0.86520999  0.95434290  1  0  -0.828285  0  1.807768  0  0  -0.769098  0  1.968389  0  0  -0.792056  0  1.935843  0  -1.226544  0  -0.584287  -0.752864  0  1.991305  0
O  O112  1  0.47388823  0.33576092  0.24038916  1  0  -0.815172  0  1.808016  0  0  -0.75583  0  1.985119  0  0  -0.77703  0  1.95415  0  -1.246904  0  -0.566544  -0.740766  0  2.006781  0
O  O113  1  0.71364944  0.83476504  0.75965666  1  0  -0.818097  0  1.807834  0  0  -0.757799  0  1.985414  0  0  -0.779211  0  1.954159  0  -1.223516  0  -0.567635  -0.74259  0  2.007134  0
O  O114  1  0.41326155  0.64400462  0.21280456  1  0  -0.82285  0  1.822579  0  0  -0.766912  0  2.00663  0  0  -0.788901  0  1.977641  0  -1.227691  0  -0.566995  -0.751172  0  2.026911  0
O  O115  1  0.62703367  0.14340510  0.78568301  1  0  -0.82149  0  1.82036  0  0  -0.765625  0  2.002786  0  0  -0.787633  0  1.973836  0  -1.212721  0  -0.565689  -0.749887  0  2.023144  0
O  O116  1  0.66630279  0.60664259  0.97670807  1  0  -0.840777  0  1.826205  0  0  -0.778483  0  1.996266  0  0  -0.802368  0  1.9622  0  -1.234287  0  -0.589543  -0.761391  0  2.020178  0
O  O117  1  0.64170700  0.10448162  0.02447710  1  0  -0.84119  0  1.825215  0  0  -0.77846  0  1.995308  0  0  -0.802362  0  1.961263  0  -1.24426  0  -0.589191  -0.761394  0  2.019301  0
