# generated using pymatgen
data_Zn4H2C24S4Br4O13F2
_symmetry_space_group_name_H-M   'P 1'
_cell_length_a   19.67457428
_cell_length_b   19.79002232
_cell_length_c   33.37031215
_cell_angle_alpha   78.78263575
_cell_angle_beta   79.12044915
_cell_angle_gamma   63.90584296
_symmetry_Int_Tables_number   1
_chemical_formula_structural   Zn4H2C24S4Br4O13F2
_chemical_formula_sum   'Zn16 H8 C96 S16 Br16 O52 F8'
_cell_volume   11367.02016757
_cell_formula_units_Z   4
loop_
 _symmetry_equiv_pos_site_id
 _symmetry_equiv_pos_as_xyz
  1  'x, y, z'
loop_
 _atom_site_type_symbol
 _atom_site_label
 _atom_site_symmetry_multiplicity
 _atom_site_fract_x
 _atom_site_fract_y
 _atom_site_fract_z
 _atom_site_occupancy
 _atom_site_pbe_bader_charge
 _atom_site_pbe_bader_spin_density
 _atom_site_pbe_cm5_charge
 _atom_site_pbe_ddec_charge
 _atom_site_pbe_ddec_spin_density
 _atom_site_pbe_ddec_sum_bond_order
 _atom_site_pbe_magmom
Zn  Zn0  1  0.05559453  0.40086726  0.47802262  1  1.316427  0  0.67329  0.973752  0  2.33122  0
Zn  Zn1  1  0.98551312  0.48386619  0.56012522  1  1.317712  0  0.673634  0.967408  0  2.374929  0
Zn  Zn2  1  0.05839906  0.56166651  0.48226582  1  1.320763  0  0.675276  0.97047  0  2.367992  0
Zn  Zn3  1  0.90000508  0.55452111  0.47946366  1  1.317522  0  0.675884  0.972038  0  2.365045  0
Zn  Zn4  1  0.69378430  0.34918929  0.27196357  1  1.317355  0  0.673188  0.973536  0  2.333201  0
Zn  Zn5  1  0.69079696  0.18851486  0.26624482  1  1.319182  0  0.673402  0.970699  0  2.354598  0
Zn  Zn6  1  0.76896557  0.26600809  0.18970209  1  1.322991  0  0.67569  0.971268  0  2.364011  0
Zn  Zn7  1  0.84748839  0.19590124  0.27198063  1  1.317841  0  0.675394  0.966012  0  2.395426  0
Zn  Zn8  1  0.26470763  0.76582215  0.69004870  1  1.323301  0  0.673228  0.96594  0  2.378835  0
Zn  Zn9  1  0.34932739  0.69726939  0.77143295  1  1.319878  0  0.673488  0.970456  0  2.354366  0
Zn  Zn10  1  0.19223432  0.84947868  0.77129169  1  1.320079  0  0.675631  0.973544  0  2.346712  0
Zn  Zn11  1  0.19147624  0.68811607  0.76778599  1  1.31886  0  0.675768  0.971983  0  2.364669  0
Zn  Zn12  1  0.55856829  0.06198234  0.98382100  1  1.319771  0  0.673411  0.970822  0  2.353851  0
Zn  Zn13  1  0.40275099  0.05232439  0.97713137  1  1.316135  0  0.673821  0.967542  0  2.377102  0
Zn  Zn14  1  0.55757274  0.90029967  0.97903943  1  1.322542  0  0.675374  0.973812  0  2.346185  0
Zn  Zn15  1  0.48130868  0.98395319  0.06029994  1  1.322716  0  0.675576  0.970637  0  2.365543  0
H  H16  1  0.74849730  0.45157282  0.34973164  1  0.170786  0  0.122577  0.153434  0  0.971214  0
H  H17  1  0.00088696  0.29952107  0.40009717  1  0.126716  0  0.122385  0.153464  0  0.971701  0
H  H18  1  0.20094850  0.70030302  0.59965428  1  0.157713  0  0.121732  0.151912  0  0.97579  0
H  H19  1  0.04926718  0.54990866  0.65016199  1  0.133004  0  0.121323  0.150839  0  0.976068  0
H  H20  1  0.64994280  0.15088290  0.04920020  1  0.113864  0  0.121996  0.152607  0  0.974289  0
H  H21  1  0.60053941  0.09904903  0.20070243  1  0.117055  0  0.121695  0.152327  0  0.973403  0
H  H22  1  0.30016194  0.99979436  0.89984584  1  0.141929  0  0.121467  0.151704  0  0.975782  0
H  H23  1  0.45068463  0.74947102  0.84971107  1  0.131046  0  0.122079  0.152813  0  0.973747  0
C  C24  1  0.06173231  0.31695862  0.56188474  1  1.602731  0  0.216254  0.622678  0  4.206008  0
C  C25  1  0.07012144  0.57063601  0.56807553  1  1.578612  0  0.230404  0.623121  0  4.162125  0
C  C26  1  0.18326510  0.43980726  0.43841355  1  1.617267  0  0.216794  0.623864  0  4.205148  0
C  C27  1  0.93623512  0.68390905  0.43857106  1  1.593222  0  0.216279  0.622008  0  4.2094  0
C  C28  1  0.92939005  0.43175936  0.43113172  1  1.597432  0  0.231661  0.623822  0  4.15817  0
C  C29  1  0.81740007  0.56080761  0.56285560  1  1.579665  0  0.21677  0.621206  0  4.20757  0
C  C30  1  0.56626659  0.30955035  0.31119529  1  1.591574  0  0.215837  0.621564  0  4.206247  0
C  C31  1  0.68291960  0.18058565  0.17995811  1  1.590543  0  0.230762  0.623002  0  4.160377  0
C  C32  1  0.68977739  0.43303997  0.18842410  1  1.625539  0  0.216243  0.622951  0  4.20638  0
C  C33  1  0.93518706  0.18813144  0.18948974  1  1.577133  0  0.215324  0.617609  0  4.21235  0
C  C34  1  0.81956990  0.31880777  0.31923633  1  1.58023  0  0.231708  0.623249  0  4.162177  0
C  C35  1  0.81187498  0.06607779  0.31121249  1  1.57971  0  0.215933  0.62063  0  4.209547  0
C  C36  1  0.43267268  0.68962449  0.68802883  1  1.591788  0  0.216273  0.622564  0  4.205055  0
C  C37  1  0.31738967  0.82142708  0.81876098  1  1.591384  0  0.231442  0.623815  0  4.158762  0
C  C38  1  0.18822579  0.93278044  0.68762317  1  1.579116  0  0.216677  0.622114  0  4.206172  0
C  C39  1  0.06559910  0.80962371  0.81124795  1  1.596576  0  0.217193  0.62096  0  4.209892  0
C  C40  1  0.18015004  0.67941077  0.68179129  1  1.574552  0  0.230494  0.621563  0  4.163066  0
C  C41  1  0.31465626  0.56646864  0.81159900  1  1.578361  0  0.216508  0.621523  0  4.204247  0
C  C42  1  0.43694487  0.18353599  0.93847249  1  1.615951  0  0.21644  0.620982  0  4.209369  0
C  C43  1  0.43347349  0.92799494  0.93072074  1  1.582957  0  0.231185  0.624133  0  4.158843  0
C  C44  1  0.68366930  0.94136859  0.93914516  1  1.589426  0  0.217301  0.624504  0  4.205402  0
C  C45  1  0.56095920  0.81682359  0.06240337  1  1.577342  0  0.216247  0.620984  0  4.208801  0
C  C46  1  0.56744861  0.06944059  0.06994766  1  1.580594  0  0.230746  0.622065  0  4.162497  0
C  C47  1  0.31512904  0.06130700  0.05996952  1  1.563606  0  0.216374  0.619766  0  4.211698  0
C  C48  1  0.89993816  0.40451926  0.40222874  1  0.083395  0  -0.014572  -0.111057  0  3.953714  0
C  C49  1  0.84936829  0.34655016  0.34770652  1  0.088872  0  -0.014238  -0.111005  0  3.954039  0
C  C50  1  0.82872376  0.44610680  0.38722221  1  0.472992  0  0.106739  0.269613  0  4.041019  0
C  C51  1  0.92074418  0.30506904  0.36256744  1  0.497408  0  0.107371  0.271568  0  4.037252  0
C  C52  1  0.80400444  0.41795745  0.36070964  1  -0.066645  0  -0.085284  -0.19909  0  3.965583  0
C  C53  1  0.94539450  0.33318592  0.38912137  1  -0.003591  0  -0.086033  -0.201123  0  3.966393  0
C  C54  1  0.09908383  0.59942590  0.59641092  1  0.092741  0  -0.013974  -0.111384  0  3.95321  0
C  C55  1  0.15107199  0.65083119  0.65341492  1  0.08583  0  -0.014015  -0.109974  0  3.955903  0
C  C56  1  0.14224968  0.64223597  0.58315997  1  0.455006  0  0.107198  0.270858  0  4.041095  0
C  C57  1  0.10788790  0.60806224  0.66665970  1  0.465361  0  0.107456  0.270127  0  4.041321  0
C  C58  1  0.16760719  0.66730565  0.61087043  1  -0.022631  0  -0.085946  -0.199336  0  3.9678  0
C  C59  1  0.08255775  0.58296162  0.63894880  1  0.001165  0  -0.085816  -0.197413  0  3.964361  0
C  C60  1  0.30497973  0.45399754  0.40040809  1  -0.000605  0  -0.021653  0.062079  0  3.992321  0
C  C61  1  0.44467514  0.29518313  0.34942990  1  -0.03312  0  -0.02225  0.062177  0  3.993069  0
C  C62  1  0.25826773  0.41582387  0.41368278  1  -0.149836  0  -0.028748  -0.170966  0  3.934356  0
C  C63  1  0.49138615  0.33331780  0.33610391  1  -0.117475  0  -0.028971  -0.170412  0  3.934374  0
C  C64  1  0.37676892  0.33909383  0.37285492  1  -0.086019  0  -0.029001  -0.059809  0  4.096511  0
C  C65  1  0.37290704  0.41004552  0.37699196  1  -0.130725  0  -0.028958  -0.059534  0  4.094359  0
C  C66  1  0.72545817  0.57611932  0.63078325  1  -0.035592  0  -0.022569  0.061872  0  3.995408  0
C  C67  1  0.52457559  0.67370375  0.62012758  1  0.046588  0  -0.022131  0.064179  0  3.99003  0
C  C68  1  0.74311057  0.58500157  0.58827131  1  -0.102039  0  -0.028105  -0.168985  0  3.934899  0
C  C69  1  0.50701642  0.66502035  0.66266881  1  -0.133123  0  -0.028481  -0.170303  0  3.934306  0
C  C70  1  0.60419299  0.64136470  0.60845533  1  -0.166446  0  -0.028245  -0.061509  0  4.096866  0
C  C71  1  0.64584140  0.60849146  0.64242450  1  -0.115343  0  -0.028633  -0.058448  0  4.097075  0
C  C72  1  0.07688601  0.22463223  0.62984751  1  0.056455  0  -0.021989  0.06378  0  3.991113  0
C  C73  1  0.17386394  0.02483212  0.61961760  1  -0.019173  0  -0.022554  0.062744  0  3.991597  0
C  C74  1  0.08582119  0.24264318  0.58730588  1  -0.121335  0  -0.028239  -0.170258  0  3.933885  0
C  C75  1  0.16465237  0.00701056  0.66215691  1  -0.114855  0  -0.028553  -0.171151  0  3.936768  0
C  C76  1  0.14182349  0.10416312  0.60779155  1  -0.110059  0  -0.028197  -0.058613  0  4.09548  0
C  C77  1  0.10894252  0.14530025  0.64163176  1  -0.176108  0  -0.028826  -0.061845  0  4.099627  0
C  C78  1  0.84204940  0.80164411  0.39674897  1  -0.003078  0  -0.022308  0.062174  0  3.997007  0
C  C79  1  0.90605764  0.94837786  0.35296934  1  -0.049682  0  -0.021345  0.064767  0  3.991175  0
C  C80  1  0.91027034  0.75851047  0.41357237  1  -0.126406  0  -0.029098  -0.172303  0  3.938794  0
C  C81  1  0.83779634  0.99139106  0.33614178  1  -0.094031  0  -0.028579  -0.17002  0  3.939327  0
C  C82  1  0.90775818  0.87908929  0.37501404  1  -0.097766  0  -0.02884  -0.062288  0  4.098435  0
C  C83  1  0.84058851  0.87074072  0.37458710  1  -0.117024  0  -0.028583  -0.058739  0  4.098106  0
C  C84  1  0.65420369  0.15275474  0.15097342  1  0.013679  0  -0.014147  -0.111457  0  3.952283  0
C  C85  1  0.59634295  0.09709068  0.09892728  1  0.058963  0  -0.013839  -0.110598  0  3.951267  0
C  C86  1  0.66704799  0.16635979  0.10782764  1  0.525301  0  0.107307  0.270878  0  4.040346  0
C  C87  1  0.58346672  0.08351385  0.14207401  1  0.469176  0  0.106316  0.270412  0  4.039904  0
C  C88  1  0.63894667  0.13930808  0.08246224  1  0.031142  0  -0.085929  -0.199617  0  3.967199  0
C  C89  1  0.61159770  0.11055281  0.16743011  1  0.028126  0  -0.085637  -0.199072  0  3.966036  0
C  C90  1  0.67364657  0.52498428  0.12039615  1  -0.006516  0  -0.022358  0.061889  0  3.993726  0
C  C91  1  0.57628164  0.72487874  0.13045420  1  -0.01769  0  -0.022468  0.0617  0  3.99597  0
C  C92  1  0.66497320  0.50725934  0.16296098  1  -0.092359  0  -0.028911  -0.170631  0  3.93625  0
C  C93  1  0.58520844  0.74265770  0.08790650  1  -0.112606  0  -0.028626  -0.170226  0  3.937515  0
C  C94  1  0.60856753  0.64557100  0.14230793  1  -0.113733  0  -0.028595  -0.058933  0  4.097014  0
C  C95  1  0.64135102  0.60430034  0.10852996  1  -0.176792  0  -0.028489  -0.060735  0  4.097657  0
C  C96  1  0.08282422  0.12345084  0.17767439  1  -0.071126  0  -0.022171  0.062673  0  3.994198  0
C  C97  1  0.16749704  0.12654329  0.07190741  1  -0.088929  0  -0.021611  0.064057  0  3.994706  0
C  C98  1  0.01037273  0.16272766  0.16509323  1  -0.091457  0  -0.02826  -0.169174  0  3.938303  0
C  C99  1  0.23996183  0.08721768  0.08441641  1  -0.024372  0  -0.028903  -0.169821  0  3.938254  0
C  C100  1  0.11017901  0.13975578  0.10586278  1  -0.146331  0  -0.029231  -0.060675  0  4.099685  0
C  C101  1  0.14014854  0.11023484  0.14370855  1  -0.161318  0  -0.028467  -0.060642  0  4.098405  0
C  C102  1  0.34554272  0.85030477  0.84749466  1  0.040117  0  -0.01519  -0.112818  0  3.953984  0
C  C103  1  0.40530834  0.89892124  0.90209578  1  0.059611  0  -0.014267  -0.112579  0  3.954761  0
C  C104  1  0.30441701  0.92100925  0.86234939  1  0.472156  0  0.106968  0.270655  0  4.040497  0
C  C105  1  0.44640327  0.82824451  0.88724162  1  0.457722  0  0.107562  0.271848  0  4.041763  0
C  C106  1  0.33342839  0.94472063  0.88892429  1  0.041012  0  -0.085558  -0.198452  0  3.965547  0
C  C107  1  0.41739817  0.80451303  0.86066647  1  0.035943  0  -0.085668  -0.19973  0  3.966784  0
C  C108  1  0.40863037  0.44788613  0.85327989  1  -0.006452  0  -0.022721  0.06244  0  3.995653  0
C  C109  1  0.34305105  0.30210896  0.89680820  1  -0.061294  0  -0.022147  0.063051  0  3.992385  0
C  C110  1  0.34056986  0.49156831  0.83639660  1  -0.132269  0  -0.028298  -0.17005  0  3.935688  0
C  C111  1  0.41114055  0.25845876  0.91370247  1  -0.097287  0  -0.028248  -0.168715  0  3.935045  0
C  C112  1  0.34204324  0.37119865  0.87479624  1  -0.09831  0  -0.028678  -0.060505  0  4.096702  0
C  C113  1  0.40952349  0.37890120  0.87534126  1  -0.127403  0  -0.02852  -0.059058  0  4.096193  0
C  C114  1  0.94396848  0.79571321  0.84974401  1  -0.019872  0  -0.022438  0.061562  0  3.994756  0
C  C115  1  0.80517966  0.95528179  0.90040413  1  0.017034  0  -0.022672  0.061827  0  3.99631  0
C  C116  1  0.99078743  0.83366820  0.83611062  1  -0.113738  0  -0.029037  -0.170803  0  3.938185  0
C  C117  1  0.75831326  0.91742521  0.91408003  1  -0.122299  0  -0.028884  -0.171557  0  3.937185  0
C  C118  1  0.87280139  0.91098260  0.87694276  1  -0.156066  0  -0.028552  -0.059584  0  4.097913  0
C  C119  1  0.87627618  0.83999850  0.87317683  1  -0.098194  0  -0.029019  -0.060798  0  4.097199  0
S  S120  1  0.29763634  0.32611693  0.39751044  1  0.308939  0  0.09203  0.154063  0  2.777494  0
S  S121  1  0.45206132  0.42297707  0.35232022  1  0.2984  0  0.093579  0.155403  0  2.777881  0
S  S122  1  0.66214420  0.63280001  0.56248871  1  0.305712  0  0.09566  0.159257  0  2.777794  0
S  S123  1  0.58798856  0.61725190  0.68841481  1  0.305358  0  0.093289  0.155369  0  2.780657  0
S  S124  1  0.13344522  0.16230846  0.56175687  1  0.300672  0  0.093095  0.155318  0  2.777286  0
S  S125  1  0.11709219  0.08731675  0.68769434  1  0.304711  0  0.096599  0.161185  0  2.778698  0
S  S126  1  0.97259172  0.80263800  0.40231114  1  0.304787  0  0.095198  0.159232  0  2.779085  0
S  S127  1  0.77570840  0.94706933  0.34726339  1  0.306137  0  0.092179  0.153864  0  2.783773  0
S  S128  1  0.61713743  0.58767646  0.18841689  1  0.302342  0  0.091567  0.152958  0  2.779389  0
S  S129  1  0.63298102  0.66223482  0.06242932  1  0.306754  0  0.095021  0.15793  0  2.777611  0
S  S130  1  0.01236144  0.18347260  0.11172639  1  0.364641  0  0.094824  0.157886  0  2.781191  0
S  S131  1  0.23797980  0.06662238  0.13780731  1  0.338768  0  0.095796  0.158927  0  2.779897  0
S  S132  1  0.27769601  0.44806589  0.84745928  1  0.306317  0  0.095278  0.15873  0  2.780966  0
S  S133  1  0.47385227  0.30212559  0.90274590  1  0.306089  0  0.092943  0.154307  0  2.782127  0
S  S134  1  0.95188379  0.92360425  0.85192716  1  0.300803  0  0.094  0.156948  0  2.780648  0
S  S135  1  0.79708602  0.82752356  0.89819899  1  0.305036  0  0.095757  0.159032  0  2.777194  0
Br  Br136  1  0.28605647  0.55115880  0.41050526  1  0.018056  0  0.052505  -0.000262  0  1.392079  0
Br  Br137  1  0.46384470  0.19779953  0.33954006  1  0.010056  0  0.048122  -0.005774  0  1.390095  0
Br  Br138  1  0.79402006  0.52802517  0.67036293  1  0.010285  0  0.046842  -0.00773  0  1.400025  0
Br  Br139  1  0.45595797  0.72161479  0.58055566  1  0.011043  0  0.047354  -0.007433  0  1.399391  0
Br  Br140  1  0.02897323  0.29228022  0.66935805  1  0.007695  0  0.047547  -0.007263  0  1.400132  0
Br  Br141  1  0.22176310  0.95690133  0.58025467  1  0.009901  0  0.046644  -0.008097  0  1.399656  0
Br  Br142  1  0.75911514  0.77668046  0.40099404  1  0.015889  0  0.051806  -0.001197  0  1.39207  0
Br  Br143  1  0.98887418  0.97353011  0.34882886  1  0.018616  0  0.050381  -0.003702  0  1.403058  0
Br  Br144  1  0.72072297  0.45708367  0.08101437  1  0.013477  0  0.05219  -0.000776  0  1.392538  0
Br  Br145  1  0.52883506  0.79286408  0.16977963  1  0.014423  0  0.051444  -0.001803  0  1.391751  0
Br  Br146  1  0.10751598  0.08972780  0.23180205  1  0.019156  0  0.050451  -0.003366  0  1.403295  0
Br  Br147  1  0.14245562  0.16082766  0.01782574  1  0.012269  0  0.046369  -0.008695  0  1.400352  0
Br  Br148  1  0.49209761  0.47205530  0.84908733  1  0.011443  0  0.048559  -0.005617  0  1.388806  0
Br  Br149  1  0.25943721  0.27811414  0.90103395  1  0.013538  0  0.047531  -0.007174  0  1.399728  0
Br  Br150  1  0.96271239  0.69848955  0.83986234  1  0.013569  0  0.051795  -0.001228  0  1.390517  0
Br  Br151  1  0.78666915  0.05262822  0.90998488  1  0.014445  0  0.047879  -0.006206  0  1.389796  0
O  O152  1  0.00045485  0.49919567  0.49972802  1  -1.23226  0  -0.570089  -1.031732  0  2.517246  0
O  O153  1  0.07671165  0.31560911  0.52287432  1  -1.169272  0  -0.319262  -0.545301  0  2.318699  0
O  O154  1  0.03338758  0.53109664  0.58540543  1  -1.170336  0  -0.312329  -0.541135  0  2.330515  0
O  O155  1  0.15467875  0.50542369  0.44994703  1  -1.169099  0  -0.31343  -0.538578  0  2.387083  0
O  O156  1  0.02854056  0.37548769  0.58065047  1  -1.179551  0  -0.314627  -0.538805  0  2.383021  0
O  O157  1  0.15357676  0.39181359  0.44602077  1  -1.169802  0  -0.32023  -0.546188  0  2.317189  0
O  O158  1  0.08402906  0.58752075  0.52961994  1  -1.145263  0  -0.307863  -0.535476  0  2.362367  0
O  O159  1  0.00333558  0.65806435  0.44925749  1  -1.167157  0  -0.317638  -0.539787  0  2.328624  0
O  O160  1  0.88611785  0.49585308  0.44323290  1  -1.164458  0  -0.308853  -0.53626  0  2.364686  0
O  O161  1  0.89071767  0.65178125  0.44742020  1  -1.179571  0  -0.314025  -0.54019  0  2.382582  0
O  O162  1  0.99586127  0.38771213  0.44122258  1  -1.173192  0  -0.313027  -0.543345  0  2.31783  0
O  O163  1  0.87691317  0.52714265  0.58134938  1  -1.169236  0  -0.315145  -0.540816  0  2.379642  0
O  O164  1  0.81496100  0.57631001  0.52388121  1  -1.136566  0  -0.316531  -0.538508  0  2.32505  0
O  O165  1  0.74874880  0.25102250  0.25010289  1  -1.230404  0  -0.57002  -1.031432  0  2.51845  0
O  O166  1  0.59613900  0.35733382  0.30409030  1  -1.170619  0  -0.318676  -0.543348  0  2.320578  0
O  O167  1  0.66567433  0.16353720  0.21826443  1  -1.167912  0  -0.31241  -0.542045  0  2.326173  0
O  O168  1  0.72577944  0.37454354  0.16978927  1  -1.177096  0  -0.314169  -0.538896  0  2.385399  0
O  O169  1  0.59446858  0.24448056  0.29898527  1  -1.170295  0  -0.314314  -0.540371  0  2.380745  0
O  O170  1  0.67263288  0.43448985  0.22738811  1  -1.170114  0  -0.319416  -0.545327  0  2.321625  0
O  O171  1  0.72164476  0.21846979  0.16432299  1  -1.157588  0  -0.307946  -0.535341  0  2.36372  0
O  O172  1  0.87785474  0.22315439  0.16890855  1  -1.167895  0  -0.31697  -0.539323  0  2.325401  0
O  O173  1  0.86218688  0.25376729  0.30814817  1  -1.154568  0  -0.308913  -0.533905  0  2.37284  0
O  O174  1  0.93332940  0.17343236  0.22845168  1  -1.140184  0  -0.313078  -0.534929  0  2.386104  0
O  O175  1  0.75360009  0.36307404  0.30856537  1  -1.166697  0  -0.312519  -0.543647  0  2.316896  0
O  O176  1  0.74574509  0.09145303  0.29930833  1  -1.172493  0  -0.319924  -0.545076  0  2.322511  0
O  O177  1  0.85681297  0.09878086  0.30369172  1  -1.155668  0  -0.312896  -0.535075  0  2.38932  0
O  O178  1  0.24951595  0.75047400  0.75043949  1  -1.234937  0  -0.570089  -1.031313  0  2.518991  0
O  O179  1  0.37341240  0.72243026  0.66932609  1  -1.162078  0  -0.314044  -0.538702  0  2.383698  0
O  O180  1  0.36293967  0.75661811  0.80764759  1  -1.175798  0  -0.313427  -0.542589  0  2.324968  0
O  O181  1  0.17204219  0.93443415  0.72656567  1  -1.154459  0  -0.316959  -0.540296  0  2.322101  0
O  O182  1  0.43476279  0.67537895  0.72705543  1  -1.172648  0  -0.319183  -0.543989  0  2.322382  0
O  O183  1  0.22208144  0.87404550  0.66903943  1  -1.166375  0  -0.315107  -0.540211  0  2.382799  0
O  O184  1  0.25142083  0.86296923  0.80792130  1  -1.158309  0  -0.308134  -0.536192  0  2.360628  0
O  O185  1  0.09444042  0.85830704  0.80296927  1  -1.166581  0  -0.318047  -0.540794  0  2.324033  0
O  O186  1  0.16601510  0.66262200  0.72023849  1  -1.13899  0  -0.307864  -0.535585  0  2.361984  0
O  O187  1  0.09496717  0.74350564  0.80025204  1  -1.171841  0  -0.314431  -0.539091  0  2.383586  0
O  O188  1  0.21720869  0.71864741  0.66450576  1  -1.172793  0  -0.312193  -0.539647  0  2.331848  0
O  O189  1  0.35943985  0.59944562  0.80354144  1  -1.156398  0  -0.314523  -0.541099  0  2.374417  0
O  O190  1  0.24804918  0.59170604  0.80036701  1  -1.168491  0  -0.317712  -0.54025  0  2.328533  0
O  O191  1  0.50073027  0.99935880  0.99989121  1  -1.231045  0  -0.570209  -1.031915  0  2.518675  0
O  O192  1  0.50253589  0.15882719  0.95091314  1  -1.168391  0  -0.318726  -0.543332  0  2.324487  0
O  O193  1  0.38869960  0.99380086  0.94076046  1  -1.168544  0  -0.312773  -0.54134  0  2.330929  0
O  O194  1  0.65449590  0.89299815  0.94686160  1  -1.163176  0  -0.318161  -0.542239  0  2.325062  0
O  O195  1  0.39277355  0.15000484  0.94529078  1  -1.16681  0  -0.314385  -0.538239  0  2.382525  0
O  O196  1  0.65495418  0.00688084  0.95086206  1  -1.173398  0  -0.315321  -0.542232  0  2.379678  0
O  O197  1  0.49851290  0.88576106  0.94259479  1  -1.16349  0  -0.308062  -0.536726  0  2.355261  0
O  O198  1  0.57902540  0.81511281  0.02350683  1  -1.156278  0  -0.317843  -0.541308  0  2.322647  0
O  O199  1  0.52878734  0.03150184  0.08555971  1  -1.153959  0  -0.307748  -0.534406  0  2.364332  0
O  O200  1  0.52456673  0.87555048  0.08083426  1  -1.164457  0  -0.313687  -0.538313  0  2.383252  0
O  O201  1  0.58444938  0.08673265  0.03162806  1  -1.159454  0  -0.312616  -0.54217  0  2.325761  0
O  O202  1  0.31701237  0.07432751  0.02095808  1  -1.150078  0  -0.314749  -0.539413  0  2.384128  0
O  O203  1  0.37236586  0.02739695  0.08065306  1  -1.172058  0  -0.317543  -0.539239  0  2.328365  0
F  F204  1  0.78112362  0.51561951  0.39805564  1  -0.619927  0  -0.09849  -0.132881  0  1.351935  0
F  F205  1  0.96853140  0.23569772  0.35159973  1  -0.622934  0  -0.098927  -0.133883  0  1.35327  0
F  F206  1  0.16097185  0.66067602  0.54267209  1  -0.622362  0  -0.098794  -0.133396  0  1.349399  0
F  F207  1  0.08913555  0.58963126  0.70714237  1  -0.618843  0  -0.098769  -0.133093  0  1.349878  0
F  F208  1  0.70746611  0.20665718  0.08920430  1  -0.622836  0  -0.098915  -0.133374  0  1.350397  0
F  F209  1  0.54292830  0.04334929  0.16070861  1  -0.620683  0  -0.098352  -0.133262  0  1.350783  0
F  F210  1  0.23466347  0.96906190  0.85122633  1  -0.620081  0  -0.098687  -0.132877  0  1.34785  0
F  F211  1  0.51622520  0.78033275  0.89831289  1  -0.620695  0  -0.098269  -0.132686  0  1.347053  0
