# generated using pymatgen
data_ZnH12C24(NO2)2
_symmetry_space_group_name_H-M   'P 1'
_cell_length_a   9.77192345
_cell_length_b   11.53225004
_cell_length_c   11.16171893
_cell_angle_alpha   110.21929697
_cell_angle_beta   114.24114864
_cell_angle_gamma   93.51848706
_symmetry_Int_Tables_number   1
_chemical_formula_structural   ZnH12C24(NO2)2
_chemical_formula_sum   'Zn2 H24 C48 N4 O8'
_cell_volume   1045.44007428
_cell_formula_units_Z   2
loop_
 _symmetry_equiv_pos_site_id
 _symmetry_equiv_pos_as_xyz
  1  'x, y, z'
loop_
 _atom_site_type_symbol
 _atom_site_label
 _atom_site_symmetry_multiplicity
 _atom_site_fract_x
 _atom_site_fract_y
 _atom_site_fract_z
 _atom_site_occupancy
 _atom_site_hle17_bader_spin_density
 _atom_site_hle17_ddec_charge
 _atom_site_hle17_ddec_spin_density
 _atom_site_hle17_ddec_sum_bond_order
 _atom_site_hle17_magmom
 _atom_site_hse06_10hf_bader_spin_density
 _atom_site_hse06_10hf_ddec_charge
 _atom_site_hse06_10hf_ddec_spin_density
 _atom_site_hse06_10hf_ddec_sum_bond_order
 _atom_site_hse06_10hf_magmom
 _atom_site_hse06_bader_spin_density
 _atom_site_hse06_ddec_charge
 _atom_site_hse06_ddec_spin_density
 _atom_site_hse06_ddec_sum_bond_order
 _atom_site_hse06_magmom
 _atom_site_pbe_bader_spin_density
 _atom_site_pbe_cm5_charge
 _atom_site_pbe_ddec_charge
 _atom_site_pbe_ddec_spin_density
 _atom_site_pbe_ddec_sum_bond_order
 _atom_site_pbe_magmom
Zn  Zn0  1  0.67673391  0.01849617  0.70560290  1  0  1.029711  0  1.771929  0  0  0.837656  0  2.234244  0  0  0.890527  0  2.175434  0  0  0.69779  0.79962  0  2.27621  0
Zn  Zn1  1  0.32327865  0.98151020  0.29440258  1  0  1.029787  0  1.771918  0  0  0.837676  0  2.234264  0  0  0.890549  0  2.175453  0  0  0.697794  0.799646  0  2.27623  0
H  H2  1  0.06990038  0.12386098  0.58396187  1  0  0.109931  0  0.966528  0  0  0.118493  0  1.031414  0  0  0.122447  0  1.028341  0  0  0.105827  0.115648  0  1.03354  0
H  H3  1  0.93010668  0.87613453  0.41602925  1  0  0.109878  0  0.966539  0  0  0.118426  0  1.031443  0  0  0.122396  0  1.028319  0  0  0.105827  0.115585  0  1.033567  0
H  H4  1  0.23127378  0.28684402  0.57566401  1  0  0.117467  0  0.956912  0  0  0.129567  0  1.01291  0  0  0.133069  0  1.010405  0  0  0.109446  0.126833  0  1.015364  0
H  H5  1  0.76872931  0.71316111  0.42433433  1  0  0.11749  0  0.95694  0  0  0.129605  0  1.012909  0  0  0.133105  0  1.010412  0  0  0.109458  0.126878  0  1.015357  0
H  H6  1  0.36738436  0.43167049  0.60298148  1  0  0.110154  0  0.974002  0  0  0.119463  0  1.035789  0  0  0.12369  0  1.032206  0  0  0.10338  0.116394  0  1.037961  0
H  H7  1  0.63262533  0.56834709  0.39704736  1  0  0.110155  0  0.974022  0  0  0.119466  0  1.035792  0  0  0.123682  0  1.032226  0  0  0.103435  0.116398  0  1.037966  0
H  H8  1  0.52553139  0.59684202  0.59286350  1  0  0.096449  0  0.95867  0  0  0.10816  0  1.016887  0  0  0.110727  0  1.016559  0  0  0.101909  0.106531  0  1.016589  0
H  H9  1  0.47447697  0.40316687  0.40715846  1  0  0.096465  0  0.958686  0  0  0.108186  0  1.016885  0  0  0.110755  0  1.016559  0  0  0.101916  0.106551  0  1.016593  0
H  H10  1  0.56415506  0.24022985  0.89542899  1  0  0.092013  0  0.899528  0  0  0.106979  0  0.946955  0  0  0.109244  0  0.945241  0  0  0.130804  0.10506  0  0.948591  0
H  H11  1  0.43583123  0.75976655  0.10456271  1  0  0.09201  0  0.899499  0  0  0.106992  0  0.946921  0  0  0.109259  0  0.945205  0  0  0.130817  0.105077  0  0.948557  0
H  H12  1  0.54045839  0.28294851  0.12249187  1  0  0.107744  0  0.939909  0  0  0.11964  0  0.993607  0  0  0.122134  0  0.994345  0  0  0.110416  0.117676  0  0.99353  0
H  H13  1  0.45951621  0.71704045  0.87750158  1  0  0.10778  0  0.939807  0  0  0.119625  0  0.993585  0  0  0.122121  0  0.99432  0  0  0.110435  0.117663  0  0.993508  0
H  H14  1  0.63664500  0.14607413  0.25720995  1  0  0.112201  0  0.978639  0  0  0.116937  0  1.04773  0  0  0.119765  0  1.04631  0  0  0.108372  0.114766  0  1.049049  0
H  H15  1  0.36333871  0.85390807  0.74277713  1  0  0.112304  0  0.978608  0  0  0.117007  0  1.047703  0  0  0.119832  0  1.04629  0  0  0.108425  0.114837  0  1.049021  0
H  H16  1  0.77597214  0.97262459  0.28376325  1  0  0.122233  0  0.936305  0  0  0.131784  0  0.996157  0  0  0.134695  0  0.995266  0  0  0.114385  0.129517  0  0.997266  0
H  H17  1  0.22401870  0.02736340  0.71622811  1  0  0.1222  0  0.936239  0  0  0.131737  0  0.996135  0  0  0.13465  0  0.99524  0  0  0.114348  0.129467  0  0.997249  0
H  H18  1  0.89598073  0.80530834  0.18559295  1  0  0.099799  0  0.971455  0  0  0.111436  0  1.030493  0  0  0.113081  0  1.031368  0  0  0.106458  0.110122  0  1.030127  0
H  H19  1  0.10402011  0.19468823  0.81440184  1  0  0.09979  0  0.97139  0  0  0.111423  0  1.03045  0  0  0.11307  0  1.031324  0  0  0.106423  0.1101  0  1.03009  0
H  H20  1  0.98493927  0.69809161  0.00078563  1  0  0.112894  0  0.913103  0  0  0.127958  0  0.962586  0  0  0.131033  0  0.960486  0  0  0.11935  0.12591  0  0.963645  0
H  H21  1  0.01506430  0.30190224  0.99921097  1  0  0.112911  0  0.91321  0  0  0.127988  0  0.962643  0  0  0.131067  0  0.960536  0  0  0.119353  0.125899  0  0.963752  0
H  H22  1  0.99654184  0.67900630  0.77366191  1  0  0.111076  0  0.940371  0  0  0.122237  0  0.995783  0  0  0.124563  0  0.996856  0  0  0.112101  0.12064  0  0.994992  0
H  H23  1  0.00346343  0.32099417  0.22633653  1  0  0.111071  0  0.940487  0  0  0.122245  0  0.995879  0  0  0.124569  0  0.996954  0  0  0.112103  0.120654  0  0.995065  0
H  H24  1  0.88099840  0.82407233  0.65624410  1  0  0.088971  0  0.966959  0  0  0.097179  0  1.032337  0  0  0.098894  0  1.031289  0  0  0.121603  0.096196  0  1.032625  0
H  H25  1  0.11901263  0.17593297  0.34375783  1  0  0.088977  0  0.96695  0  0  0.097177  0  1.032341  0  0  0.098892  0  1.031293  0  0  0.121631  0.096196  0  1.032632  0
C  C26  1  0.80932424  0.12116722  0.59662046  1  0  0.634435  0  3.946359  0  0  0.582903  0  4.244357  0  0  0.61748  0  4.23742  0  0  0.190968  0.559174  0  4.24848  0
C  C27  1  0.19069273  0.87883064  0.40338190  1  0  0.634622  0  3.945949  0  0  0.583031  0  4.244009  0  0  0.617622  0  4.23707  0  0  0.19096  0.559301  0  4.248134  0
C  C28  1  0.88079688  0.21397534  0.56031105  1  0  -0.088898  0  3.715608  0  0  -0.074236  0  3.957791  0  0  -0.081116  0  3.978128  0  0  -0.015663  -0.070342  0  3.945248  0
C  C29  1  0.11921105  0.78602699  0.43968708  1  0  -0.088978  0  3.715486  0  0  -0.074245  0  3.957622  0  0  -0.08117  0  3.978004  0  0  -0.015553  -0.070355  0  3.945091  0
C  C30  1  0.02594895  0.20544511  0.57073577  1  0  -0.077201  0  3.771983  0  0  -0.102287  0  4.025189  0  0  -0.101312  0  4.042944  0  0  -0.089198  -0.103104  0  4.014239  0
C  C31  1  0.97405783  0.79455330  0.42925800  1  0  -0.077123  0  3.771984  0  0  -0.102223  0  4.025185  0  0  -0.101225  0  4.04295  0  0  -0.089343  -0.103043  0  4.014242  0
C  C32  1  0.11707733  0.29840145  0.56354579  1  0  -0.113307  0  3.734514  0  0  -0.131942  0  3.984068  0  0  -0.134294  0  4.002113  0  0  -0.092146  -0.13199  0  3.973923  0
C  C33  1  0.88292576  0.70160367  0.43645255  1  0  -0.113408  0  3.734685  0  0  -0.132008  0  3.984272  0  0  -0.134362  0  4.002318  0  0  -0.09208  -0.132053  0  3.974125  0
C  C34  1  0.06208653  0.40098024  0.53854665  1  0  0.017463  0  3.777611  0  0  0.023843  0  4.018356  0  0  0.024781  0  4.040747  0  0  -0.010108  0.023441  0  4.003072  0
C  C35  1  0.93792402  0.59903480  0.46146549  1  0  0.017608  0  3.777415  0  0  0.023867  0  4.018398  0  0  0.024803  0  4.040788  0  0  -0.010098  0.023467  0  4.003117  0
C  C36  1  0.15806293  0.49915772  0.53187080  1  0  0.011643  0  3.788901  0  0  0.017375  0  4.034477  0  0  0.017598  0  4.057472  0  0  -0.012854  0.017786  0  4.01659  0
C  C37  1  0.84195038  0.50085773  0.46815136  1  0  0.011561  0  3.788789  0  0  0.017317  0  4.03434  0  0  0.017545  0  4.057322  0  0  -0.012847  0.017725  0  4.016456  0
C  C38  1  0.31322705  0.50198752  0.56845229  1  0  -0.115485  0  3.749915  0  0  -0.139987  0  4.010593  0  0  -0.142002  0  4.028737  0  0  -0.094687  -0.136231  0  3.994261  0
C  C39  1  0.68678688  0.49802605  0.43156947  1  0  -0.115398  0  3.749645  0  0  -0.139891  0  4.01032  0  0  -0.141903  0  4.028458  0  0  -0.094704  -0.136136  0  3.993986  0
C  C40  1  0.90630442  0.40512142  0.51139015  1  0  -0.025467  0  3.7146  0  0  -0.018571  0  3.948826  0  0  -0.020562  0  3.972228  0  0  -0.006231  -0.017342  0  3.93258  0
C  C41  1  0.09370301  0.59488599  0.48861845  1  0  -0.025344  0  3.714287  0  0  -0.018522  0  3.948714  0  0  -0.020512  0  3.972114  0  0  -0.006172  -0.017294  0  3.932474  0
C  C42  1  0.81360640  0.31113471  0.52322895  1  0  0.037107  0  3.719043  0  0  0.036304  0  3.951238  0  0  0.038444  0  3.974388  0  0  -0.001628  0.034749  0  3.936927  0
C  C43  1  0.18639918  0.68886675  0.47677081  1  0  0.037142  0  3.718982  0  0  0.036324  0  3.951211  0  0  0.038482  0  3.974361  0  0  -0.001656  0.034755  0  3.93689  0
C  C44  1  0.65578157  0.31397878  0.48647340  1  0  -0.080245  0  3.690431  0  0  -0.063713  0  3.927726  0  0  -0.069323  0  3.946856  0  0  -0.012784  -0.061936  0  3.917122  0
C  C45  1  0.34421977  0.68601969  0.51352218  1  0  -0.080496  0  3.690494  0  0  -0.063879  0  3.927745  0  0  -0.069484  0  3.946869  0  0  -0.01278  -0.062048  0  3.917073  0
C  C46  1  0.40355706  0.59450173  0.55987180  1  0  -0.084262  0  3.781406  0  0  -0.106961  0  4.033234  0  0  -0.107065  0  4.052459  0  0  -0.092084  -0.106293  0  4.0188  0
C  C47  1  0.59645524  0.40550991  0.44014878  1  0  -0.084312  0  3.781123  0  0  -0.107019  0  4.032948  0  0  -0.107123  0  4.05217  0  0  -0.09208  -0.106328  0  4.018532  0
C  C48  1  0.53594883  0.21381165  0.47161723  1  0  0.652076  0  3.926688  0  0  0.599313  0  4.227837  0  0  0.633942  0  4.219872  0  0  0.197688  0.575544  0  4.232847  0
C  C49  1  0.46406299  0.78618565  0.52837157  1  0  0.652345  0  3.926484  0  0  0.599501  0  4.22778  0  0  0.634121  0  4.21982  0  0  0.197686  0.575718  0  4.232795  0
C  C50  1  0.60924506  0.18567211  0.95983325  1  0  0.147843  0  3.690445  0  0  0.115385  0  3.944109  0  0  0.124211  0  3.959856  0  0  0.064684  0.109821  0  3.933782  0
C  C51  1  0.39074353  0.81432437  0.04016014  1  0  0.147846  0  3.690512  0  0  0.115372  0  3.944183  0  0  0.1242  0  3.95993  0  0  0.064678  0.10981  0  3.933861  0
C  C52  1  0.59624315  0.20888494  0.08658834  1  0  -0.120364  0  3.734486  0  0  -0.134359  0  3.993628  0  0  -0.141727  0  4.015624  0  0  -0.08138  -0.130767  0  3.979952  0
C  C53  1  0.40373768  0.79110762  0.91340118  1  0  -0.120225  0  3.734575  0  0  -0.134196  0  3.99368  0  0  -0.141564  0  4.015676  0  0  -0.081344  -0.130605  0  3.980009  0
C  C54  1  0.65096721  0.13463365  0.16221222  1  0  -0.028715  0  3.638533  0  0  -0.056698  0  3.892212  0  0  -0.053941  0  3.910503  0  0  -0.057942  -0.058813  0  3.880663  0
C  C55  1  0.34901806  0.86535429  0.83777815  1  0  -0.028893  0  3.638686  0  0  -0.056773  0  3.892364  0  0  -0.054019  0  3.910655  0  0  -0.058  -0.05889  0  3.880817  0
C  C56  1  0.72278897  0.03928820  0.11306209  1  0  0.02278  0  3.791189  0  0  0.04002  0  4.022389  0  0  0.037245  0  4.047109  0  0  0.000475  0.042689  0  4.003912  0
C  C57  1  0.27719859  0.96069981  0.88692997  1  0  0.022806  0  3.790852  0  0  0.039887  0  4.022197  0  0  0.037115  0  4.046917  0  0  0.000454  0.04256  0  4.003719  0
C  C58  1  0.78348029  0.95851722  0.18485930  1  0  -0.089861  0  3.700635  0  0  -0.112  0  3.954789  0  0  -0.115367  0  3.978295  0  0  -0.07517  -0.110264  0  3.938226  0
C  C59  1  0.21650931  0.04147454  0.81513287  1  0  -0.089724  0  3.70022  0  0  -0.111816  0  3.954402  0  0  -0.115181  0  3.977904  0  0  -0.075149  -0.110082  0  3.937836  0
C  C60  1  0.84998432  0.86666070  0.13100040  1  0  -0.095633  0  3.728858  0  0  -0.119267  0  3.98134  0  0  -0.123048  0  4.005771  0  0  -0.081058  -0.115424  0  3.964635  0
C  C61  1  0.15001313  0.13333505  0.86899748  1  0  -0.09573  0  3.728795  0  0  -0.119359  0  3.981303  0  0  -0.123142  0  4.005732  0  0  -0.081029  -0.115505  0  3.964595  0
C  C62  1  0.86264688  0.84887361  0.00284887  1  0  0.029844  0  3.789687  0  0  0.045967  0  4.024329  0  0  0.043774  0  4.048214  0  0  -0.000681  0.046049  0  4.009749  0
C  C63  1  0.13735020  0.15112498  0.99714982  1  0  0.029948  0  3.789617  0  0  0.045998  0  4.024299  0  0  0.043808  0  4.04818  0  0  -0.000685  0.046083  0  4.009703  0
C  C64  1  0.93415187  0.75770073  0.94496669  1  0  -0.03536  0  3.659107  0  0  -0.062141  0  3.908181  0  0  -0.058857  0  3.924279  0  0  -0.054921  -0.063158  0  3.896484  0
C  C65  1  0.06584890  0.24229966  0.05503022  1  0  -0.035398  0  3.659223  0  0  -0.062155  0  3.90823  0  0  -0.058874  0  3.924327  0  0  -0.054875  -0.063141  0  3.89654  0
C  C66  1  0.94172047  0.74773089  0.82082182  1  0  -0.113349  0  3.715065  0  0  -0.128025  0  3.974695  0  0  -0.135192  0  3.996386  0  0  -0.078893  -0.123436  0  3.958947  0
C  C67  1  0.05828109  0.25227239  0.17917720  1  0  -0.113402  0  3.715138  0  0  -0.12807  0  3.974778  0  0  -0.135236  0  3.996468  0  0  -0.078932  -0.123473  0  3.959017  0
C  C68  1  0.87784636  0.82843658  0.75404894  1  0  0.166465  0  3.65872  0  0  0.128097  0  3.918311  0  0  0.137342  0  3.935289  0  0  0.067408  0.122282  0  3.905882  0
C  C69  1  0.12216242  0.17156867  0.24595223  1  0  0.166672  0  3.658637  0  0  0.128244  0  3.918302  0  0  0.137491  0  3.935277  0  0  0.067464  0.122423  0  3.905876  0
C  C70  1  0.80273694  0.92696416  0.92923053  1  0  0.128223  0  3.752122  0  0  0.119879  0  3.987594  0  0  0.124247  0  4.010235  0  0  0.116194  0.116325  0  3.973092  0
C  C71  1  0.19726284  0.07303556  0.07077302  1  0  0.128165  0  3.75222  0  0  0.119873  0  3.987573  0  0  0.124238  0  4.010215  0  0  0.116156  0.116318  0  3.973071  0
C  C72  1  0.73142597  0.02322720  0.98470490  1  0  0.120611  0  3.773898  0  0  0.113251  0  4.011434  0  0  0.117012  0  4.03457  0  0  0.114697  0.111811  0  3.994498  0
C  C73  1  0.26855912  0.97676449  0.01528575  1  0  0.120564  0  3.774135  0  0  0.113295  0  4.011593  0  0  0.117055  0  4.034734  0  0  0.1147  0.111857  0  3.994657  0
N  N74  1  0.67397110  0.09489166  0.90991644  1  0  -0.345564  0  3.261441  0  0  -0.274456  0  3.532991  0  0  -0.292608  0  3.548049  0  0  -0.315893  -0.262705  0  3.522933  0
N  N75  1  0.32602097  0.90510495  0.09007994  1  0  -0.345712  0  3.261778  0  0  -0.274632  0  3.533329  0  0  -0.292785  0  3.548388  0  0  -0.315942  -0.262882  0  3.523276  0
N  N76  1  0.81077032  0.91517272  0.80709952  1  0  -0.354729  0  3.306639  0  0  -0.276415  0  3.578617  0  0  -0.296388  0  3.594256  0  0  -0.321401  -0.26286  0  3.568771  0
N  N77  1  0.18923349  0.08482983  0.19290450  1  0  -0.354877  0  3.306782  0  0  -0.276534  0  3.578735  0  0  -0.296508  0  3.594373  0  0  -0.321447  -0.262981  0  3.568893  0
O  O78  1  0.75506454  0.16907453  0.68741235  1  0  -0.647887  0  2.004464  0  0  -0.576208  0  2.26811  0  0  -0.605993  0  2.252721  0  0  -0.33802  -0.554052  0  2.277565  0
O  O79  1  0.24494336  0.83092391  0.31258180  1  0  -0.647991  0  2.004356  0  0  -0.576283  0  2.268019  0  0  -0.606067  0  2.252624  0  0  -0.338054  -0.554128  0  2.277481  0
O  O80  1  0.81386433  0.00655281  0.55141897  1  0  -0.601438  0  1.917244  0  0  -0.551361  0  2.149811  0  0  -0.5757  0  2.140355  0  0  -0.311133  -0.534377  0  2.15613  0
O  O81  1  0.18615246  0.99344880  0.44858366  1  0  -0.601538  0  1.916948  0  0  -0.55141  0  2.149497  0  0  -0.575749  0  2.14004  0  0  -0.311119  -0.534419  0  2.155806  0
O  O82  1  0.44543469  0.24478025  0.52248786  1  0  -0.59846  0  1.919145  0  0  -0.557401  0  2.141152  0  0  -0.580352  0  2.132117  0  0  -0.31802  -0.541225  0  2.147349  0
O  O83  1  0.55455550  0.75521425  0.47750272  1  0  -0.598442  0  1.919495  0  0  -0.557365  0  2.141565  0  0  -0.580302  0  2.132532  0  0  -0.317935  -0.541193  0  2.147773  0
O  O84  1  0.52690269  0.09814236  0.38830230  1  0  -0.662961  0  2.057408  0  0  -0.583783  0  2.329509  0  0  -0.615095  0  2.314715  0  0  -0.332112  -0.560284  0  2.339016  0
O  O85  1  0.47311103  0.90186094  0.61169628  1  0  -0.66305  0  2.057081  0  0  -0.583898  0  2.329266  0  0  -0.615219  0  2.314494  0  0  -0.332187  -0.560397  0  2.338782  0
