# generated using pymatgen
data_Zn4H28C32Br2O13
_symmetry_space_group_name_H-M   'P 1'
_cell_length_a   17.96730509
_cell_length_b   18.49462455
_cell_length_c   20.39630528
_cell_angle_alpha   60.98395025
_cell_angle_beta   62.71455019
_cell_angle_gamma   89.90844193
_symmetry_Int_Tables_number   1
_chemical_formula_structural   Zn4H28C32Br2O13
_chemical_formula_sum   'Zn8 H56 C64 Br4 O26'
_cell_volume   5050.50816701
_cell_formula_units_Z   2
loop_
 _symmetry_equiv_pos_site_id
 _symmetry_equiv_pos_as_xyz
  1  'x, y, z'
loop_
 _atom_site_type_symbol
 _atom_site_label
 _atom_site_symmetry_multiplicity
 _atom_site_fract_x
 _atom_site_fract_y
 _atom_site_fract_z
 _atom_site_occupancy
 _atom_site_pbe_bader_charge
 _atom_site_pbe_bader_spin_density
 _atom_site_pbe_cm5_charge
 _atom_site_pbe_ddec_charge
 _atom_site_pbe_ddec_spin_density
 _atom_site_pbe_ddec_sum_bond_order
 _atom_site_pbe_magmom
Zn  Zn0  1  0.13071027  0.54378623  0.92377566  1  1.318393  0  0.667475  0.95159  0  2.402602  0
Zn  Zn1  1  0.96031961  0.54892357  0.06844312  1  1.306512  0  0.669494  0.958372  0  2.37644  0
Zn  Zn2  1  0.96820677  0.37906860  0.06219958  1  1.297222  0  0.667372  0.948655  0  2.419166  0
Zn  Zn3  1  0.95590456  0.54400052  0.91287367  1  1.307827  0  0.671369  0.967677  0  2.338672  0
Zn  Zn4  1  0.37685700  0.96922242  0.06207193  1  1.300091  0  0.667509  0.950822  0  2.405934  0
Zn  Zn5  1  0.54440745  0.12918166  0.91926347  1  1.295273  0  0.667609  0.948834  0  2.417549  0
Zn  Zn6  1  0.54026731  0.95953977  0.91441886  1  1.30809  0  0.670549  0.960472  0  2.377235  0
Zn  Zn7  1  0.55415142  0.96102520  0.06758555  1  1.317645  0  0.670631  0.965754  0  2.335942  0
H  H8  1  0.42910824  0.82300710  0.34791445  1  0.116028  0  0.100091  0.112322  0  1.037478  0
H  H9  1  0.20380003  0.83768639  0.32299819  1  0.103666  0  0.111608  0.134567  0  0.98944  0
H  H10  1  0.08586759  0.68357369  0.63556138  1  0.128729  0  0.099681  0.111331  0  1.040269  0
H  H11  1  0.31089103  0.67051377  0.66083060  1  0.122816  0  0.111115  0.13309  0  0.991023  0
H  H12  1  0.67747983  0.08503304  0.63889008  1  0.107961  0  0.099893  0.112196  0  1.039541  0
H  H13  1  0.66681334  0.30843573  0.65486954  1  0.146487  0  0.111736  0.133791  0  0.991531  0
H  H14  1  0.82199643  0.42296291  0.34366989  1  0.113821  0  0.10032  0.112701  0  1.039042  0
H  H15  1  0.83317089  0.19962881  0.32763574  1  0.117238  0  0.11237  0.135109  0  0.989751  0
H  H16  1  0.21706380  0.31539688  0.88424194  1  0.030789  0  0.091276  0.085629  0  0.978867  0
H  H17  1  0.13132940  0.22818606  0.98687066  1  0.045656  0  0.093385  0.092902  0  0.983823  0
H  H18  1  0.22369932  0.13913804  0.98124068  1  0.052182  0  0.093221  0.093227  0  0.985085  0
H  H19  1  0.30973547  0.22775066  0.88039336  1  0.032224  0  0.091653  0.086539  0  0.978334  0
H  H20  1  0.19968626  0.10883143  0.12493798  1  0.062146  0  0.093499  0.094292  0  0.98423  0
H  H21  1  0.27100734  0.17262252  0.12652218  1  0.005897  0  0.090754  0.084683  0  0.979354  0
H  H22  1  0.11049569  0.20117248  0.12850219  1  0.075154  0  0.093444  0.094292  0  0.985435  0
H  H23  1  0.18440814  0.26621518  0.12646217  1  0.002459  0  0.090202  0.084201  0  0.978841  0
H  H24  1  0.32253169  0.41085426  0.88091837  1  0.022221  0  0.090961  0.09069  0  0.983834  0
H  H25  1  0.30792372  0.39230555  0.97962468  1  0.031639  0  0.09013  0.087753  0  0.980353  0
H  H26  1  0.39648919  0.29948835  0.98136120  1  0.014725  0  0.089708  0.087644  0  0.982573  0
H  H27  1  0.41348021  0.32050864  0.88109238  1  0.04842  0  0.090983  0.090295  0  0.982932  0
H  H28  1  0.90863262  0.81686059  0.87606187  1  0.048082  0  0.091553  0.086057  0  0.978455  0
H  H29  1  0.88777513  0.79125856  0.97975217  1  0.029823  0  0.092637  0.090821  0  0.982884  0
H  H30  1  0.79884183  0.88364756  0.97912173  1  0.024948  0  0.092658  0.090929  0  0.983071  0
H  H31  1  0.81910851  0.90767324  0.87609876  1  0.017443  0  0.09166  0.086682  0  0.978112  0
H  H32  1  0.67324654  0.75871093  0.11948352  1  0.032822  0  0.092867  0.094513  0  0.985962  0
H  H33  1  0.60265277  0.69497635  0.11730017  1  0.006408  0  0.08952  0.08391  0  0.980357  0
H  H34  1  0.76132818  0.66536074  0.11949906  1  0.05384  0  0.093237  0.095582  0  0.988524  0
H  H35  1  0.69135412  0.60330265  0.11524153  1  0.023416  0  0.089447  0.083717  0  0.980039  0
H  H36  1  0.80984108  0.72704204  0.86879273  1  0.032661  0  0.090582  0.090227  0  0.985004  0
H  H37  1  0.72170142  0.63906188  0.96577639  1  0.021711  0  0.089292  0.086143  0  0.980678  0
H  H38  1  0.63099376  0.72957240  0.96841664  1  0.041925  0  0.089311  0.085774  0  0.981441  0
H  H39  1  0.71886899  0.81720510  0.87058214  1  0.040883  0  0.091003  0.090991  0  0.985187  0
H  H40  1  0.17707629  0.81034413  0.91737505  1  0.028667  0  0.091536  0.085789  0  0.979751  0
H  H41  1  0.26793913  0.78027700  0.86333921  1  0.05298  0  0.094151  0.094168  0  0.981063  0
H  H42  1  0.35833717  0.87513590  0.85914436  1  0.054406  0  0.094092  0.093974  0  0.981974  0
H  H43  1  0.26691444  0.90394345  0.91412120  1  0.028594  0  0.091723  0.086544  0  0.97919  0
H  H44  1  0.40156801  0.75061346  0.94520774  1  0.039681  0  0.093399  0.095082  0  0.985571  0
H  H45  1  0.34248315  0.69176453  0.06131477  1  -0.000664  0  0.08968  0.083443  0  0.980582  0
H  H46  1  0.30969674  0.65444349  0.95163493  1  0.060877  0  0.093434  0.095119  0  0.985308  0
H  H47  1  0.24980342  0.59765046  0.06768878  1  0.014641  0  0.089776  0.083824  0  0.979967  0
H  H48  1  0.08934299  0.72663470  0.08484351  1  0.041671  0  0.090671  0.089999  0  0.984664  0
H  H49  1  0.11878580  0.63951881  0.14588485  1  0.012136  0  0.09016  0.087241  0  0.979841  0
H  H50  1  0.21054835  0.73301345  0.14178059  1  0.022879  0  0.089871  0.086964  0  0.981627  0
H  H51  1  0.18049102  0.82004425  0.08141042  1  0.014658  0  0.090739  0.090519  0  0.984888  0
H  H52  1  0.91456148  0.28114524  0.90596815  1  0.029119  0  0.091611  0.086491  0  0.979284  0
H  H53  1  0.87871749  0.36574006  0.84895971  1  0.044529  0  0.093821  0.09262  0  0.98014  0
H  H54  1  0.79286953  0.26770761  0.85235693  1  0.04169  0  0.093884  0.094049  0  0.98407  0
H  H55  1  0.82586945  0.18288821  0.91304742  1  0.023695  0  0.091279  0.085961  0  0.978432  0
H  H56  1  0.66218431  0.30824270  0.93114999  1  0.053378  0  0.093009  0.094419  0  0.986089  0
H  H57  1  0.59995490  0.24941550  0.04722480  1  0.020104  0  0.08941  0.082968  0  0.980829  0
H  H58  1  0.74865140  0.40299985  0.93107469  1  0.043846  0  0.092738  0.093745  0  0.986269  0
H  H59  1  0.68760240  0.34194524  0.04718365  1  0.02053  0  0.089316  0.083339  0  0.980303  0
H  H60  1  0.82795228  0.19205597  0.07347596  1  0.018869  0  0.090959  0.091218  0  0.986127  0
H  H61  1  0.73701688  0.21789188  0.13185918  1  0.038805  0  0.090052  0.087023  0  0.979926  0
H  H62  1  0.64529911  0.12543083  0.13491481  1  0.043234  0  0.090221  0.088338  0  0.980014  0
H  H63  1  0.73564451  0.09633766  0.08054018  1  0.048265  0  0.090429  0.09019  0  0.984595  0
C  C64  1  0.13917131  0.63763709  0.00339320  1  1.549926  0  0.234952  0.603058  0  4.098224  0
C  C65  1  0.87920122  0.37311671  0.22894778  1  1.544117  0  0.228198  0.603664  0  4.165469  0
C  C66  1  0.14678411  0.36543935  0.99814508  1  1.510012  0  0.233518  0.600525  0  4.105154  0
C  C67  1  0.86431090  0.36735305  0.98664626  1  1.538765  0  0.234709  0.602784  0  4.094102  0
C  C68  1  0.13509727  0.62498332  0.75516202  1  1.605937  0  0.22986  0.608274  0  4.158423  0
C  C69  1  0.86243610  0.64330014  0.98748640  1  1.53801  0  0.237165  0.606645  0  4.090974  0
C  C70  1  0.36499623  0.14565420  0.99485822  1  1.539813  0  0.234234  0.60157  0  4.099508  0
C  C71  1  0.61829517  0.13483881  0.75370779  1  1.531987  0  0.228873  0.605988  0  4.160355  0
C  C72  1  0.35939587  0.86400195  0.99498069  1  1.538379  0  0.234458  0.602265  0  4.096401  0
C  C73  1  0.64426453  0.86494575  0.98903245  1  1.553369  0  0.234885  0.604303  0  4.093868  0
C  C74  1  0.37866123  0.88328969  0.22838712  1  1.609605  0  0.227569  0.60517  0  4.159207  0
C  C75  1  0.64857282  0.13956414  0.99178582  1  1.554436  0  0.23436  0.603271  0  4.093401  0
C  C76  1  0.35842802  0.80839953  0.37873895  1  0.079463  0  -0.080822  -0.131127  0  3.923376  0
C  C77  1  0.23041874  0.81624594  0.36549970  1  -0.007556  0  -0.090536  -0.15416  0  3.968907  0
C  C78  1  0.17686399  0.77182770  0.45540167  1  -0.125789  0  -0.010353  0.074184  0  3.94121  0
C  C79  1  0.21051237  0.74356622  0.51228474  1  0.044175  0  -0.004515  0.043625  0  3.968252  0
C  C80  1  0.15651867  0.69836153  0.60482561  1  0.006356  0  -0.081264  -0.129408  0  3.92868  0
C  C81  1  0.28427422  0.69135017  0.61835411  1  0.017305  0  -0.090368  -0.15221  0  3.969488  0
C  C82  1  0.33791402  0.73510390  0.52843605  1  -0.136725  0  -0.00984  0.073245  0  3.938437  0
C  C83  1  0.30445191  0.76321750  0.47135742  1  -0.070954  0  -0.004226  0.045013  0  3.963123  0
C  C84  1  0.32226259  0.83457073  0.32673975  1  0.003587  0  -0.013812  -0.011456  0  3.967416  0
C  C85  1  0.19244719  0.67275183  0.65698815  1  -0.036546  0  -0.013999  -0.013489  0  3.973351  0
C  C86  1  0.69341964  0.15487164  0.60581337  1  0.037039  0  -0.080902  -0.130805  0  3.92906  0
C  C87  1  0.68769008  0.28177518  0.61418348  1  0.016734  0  -0.090491  -0.153068  0  3.972755  0
C  C88  1  0.73319045  0.33423234  0.52395791  1  -0.142024  0  -0.009611  0.073764  0  3.939044  0
C  C89  1  0.76079050  0.30042158  0.46948369  1  0.015136  0  -0.004201  0.045792  0  3.966477  0
C  C90  1  0.80634144  0.35313342  0.37675177  1  -0.045368  0  -0.081684  -0.131725  0  3.931915  0
C  C91  1  0.81231563  0.22623797  0.36836999  1  0.063135  0  -0.089933  -0.153121  0  3.971469  0
C  C92  1  0.76794874  0.17382515  0.45856220  1  -0.132834  0  -0.010292  0.07301  0  3.941067  0
C  C93  1  0.73991852  0.20763790  0.51303919  1  0.067175  0  -0.004133  0.045365  0  3.964924  0
C  C94  1  0.66754554  0.19107415  0.65541541  1  0.009994  0  -0.013575  -0.011876  0  3.975264  0
C  C95  1  0.83129367  0.31689959  0.32720692  1  -0.030369  0  -0.013671  -0.011366  0  3.977756  0
C  C96  1  0.19976492  0.26491856  0.95130285  1  -0.04685  0  -0.155483  -0.169672  0  3.855139  0
C  C97  1  0.26069987  0.20576236  0.94876324  1  -0.053089  0  -0.155723  -0.170164  0  3.855661  0
C  C98  1  0.30805178  0.20652164  0.99561081  1  0.055082  0  -0.017089  0.020358  0  3.813283  0
C  C99  1  0.23824953  0.17505405  0.09155304  1  -0.049456  0  -0.157511  -0.171011  0  3.858507  0
C  C100  1  0.17947621  0.23633816  0.09273084  1  -0.037426  0  -0.157765  -0.170597  0  3.85897  0
C  C101  1  0.20745120  0.30803804  0.99764618  1  0.07781  0  -0.016597  0.021378  0  3.817791  0
C  C102  1  0.30289940  0.35963287  0.94833514  1  -0.004823  0  -0.164853  -0.178419  0  3.890233  0
C  C103  1  0.36236926  0.29914013  0.94845945  1  -0.033154  0  -0.16473  -0.177436  0  3.889785  0
C  C104  1  0.85635435  0.79364611  0.94376320  1  -0.053159  0  -0.154573  -0.167537  0  3.845853  0
C  C105  1  0.79687556  0.85460231  0.94379394  1  0.00128  0  -0.15481  -0.169223  0  3.848588  0
C  C106  1  0.70136016  0.80376200  0.98857914  1  0.033437  0  -0.01596  0.021866  0  3.80745  0
C  C107  1  0.67125679  0.73041749  0.08364242  1  -0.016852  0  -0.159394  -0.173832  0  3.867972  0
C  C108  1  0.73017600  0.66925167  0.08297172  1  -0.033924  0  -0.160397  -0.174847  0  3.866717  0
C  C109  1  0.80184822  0.70123240  0.98753409  1  0.063035  0  -0.015959  0.021179  0  3.809619  0
C  C110  1  0.75881779  0.70469705  0.93648812  1  -0.012509  0  -0.163805  -0.176748  0  3.885986  0
C  C111  1  0.69882283  0.76483452  0.93770059  1  -0.052582  0  -0.163928  -0.176052  0  3.880864  0
C  C112  1  0.23234308  0.78635152  0.92003385  1  -0.053774  0  -0.155373  -0.169532  0  3.852699  0
C  C113  1  0.29234806  0.84886590  0.91751992  1  -0.045002  0  -0.155182  -0.170105  0  3.854474  0
C  C114  1  0.29842005  0.80098022  0.00090319  1  0.049172  0  -0.01649  0.02173  0  3.809416  0
C  C115  1  0.33567063  0.72495655  0.00352237  1  0.000711  0  -0.159792  -0.174643  0  3.863246  0
C  C116  1  0.27468224  0.66209504  0.00726865  1  -0.052399  0  -0.158954  -0.172024  0  3.859981  0
C  C117  1  0.19652499  0.69588328  0.00559045  1  0.042128  0  -0.016572  0.019531  0  3.814228  0
C  C118  1  0.14572221  0.70384877  0.08508386  1  -0.002195  0  -0.164323  -0.176062  0  3.88478  0
C  C119  1  0.20626888  0.76586116  0.08252990  1  -0.012818  0  -0.164058  -0.177296  0  3.884791  0
C  C120  1  0.85611583  0.30093814  0.90817740  1  -0.045794  0  -0.153936  -0.168753  0  3.848922  0
C  C121  1  0.79782641  0.23629564  0.91117588  1  -0.0248  0  -0.155844  -0.170343  0  3.851463  0
C  C122  1  0.70493644  0.19906297  0.99373442  1  0.033156  0  -0.016057  0.020991  0  3.812521  0
C  C123  1  0.66689613  0.27509800  0.99004543  1  -0.042487  0  -0.157976  -0.170667  0  3.856852  0
C  C124  1  0.72496424  0.33751422  0.98950583  1  -0.02279  0  -0.159437  -0.173335  0  3.866037  0
C  C125  1  0.80397357  0.30554313  0.99050156  1  0.033597  0  -0.016042  0.021555  0  3.806811  0
C  C126  1  0.77142194  0.21447919  0.07330556  1  -0.022455  0  -0.164923  -0.176312  0  3.883015  0
C  C127  1  0.71117512  0.15194723  0.07623393  1  -0.046039  0  -0.165089  -0.180242  0  3.892813  0
Br  Br128  1  0.46090863  0.75824739  0.48038185  1  -0.058536  0  0.016827  -0.077167  0  1.328013  0
Br  Br129  1  0.05386668  0.74849796  0.50355682  1  -0.068804  0  0.017001  -0.077301  0  1.328643  0
Br  Br130  1  0.74410978  0.05225788  0.51065254  1  -0.064467  0  0.017524  -0.07671  0  1.329915  0
Br  Br131  1  0.75932685  0.45584777  0.47176827  1  -0.066902  0  0.017833  -0.07651  0  1.329191  0
O  O132  1  0.00267033  0.50538046  0.99092392  1  -1.211912  0  -0.572875  -1.026726  0  2.541502  0
O  O133  1  0.17839932  0.61861716  0.94600626  1  -1.168595  0  -0.317674  -0.552329  0  2.351684  0
O  O134  1  0.89287472  0.45433465  0.19399741  1  -1.157167  0  -0.312333  -0.536725  0  2.325431  0
O  O135  1  0.06504178  0.32739848  0.04429457  1  -1.176427  0  -0.31646  -0.54937  0  2.353274  0
O  O136  1  0.05696046  0.61392791  0.05677313  1  -1.187737  0  -0.312509  -0.545468  0  2.355065  0
O  O137  1  0.18143893  0.44666493  0.95181148  1  -1.164622  0  -0.312991  -0.546267  0  2.361924  0
O  O138  1  0.90220942  0.33425217  0.18857046  1  -1.165535  0  -0.313143  -0.539288  0  2.3438  0
O  O139  1  0.89418093  0.33301584  0.03714708  1  -1.168874  0  -0.315181  -0.548639  0  2.381556  0
O  O140  1  0.05266909  0.60838924  0.78817985  1  -1.173178  0  -0.312728  -0.54068  0  2.318973  0
O  O141  1  0.88187855  0.44817425  0.93260570  1  -1.175661  0  -0.315321  -0.551011  0  2.323399  0
O  O142  1  0.17458151  0.60502444  0.79729874  1  -1.17606  0  -0.314646  -0.541952  0  2.342799  0
O  O143  1  0.88882432  0.62472605  0.04076005  1  -1.187848  0  -0.318734  -0.5553  0  2.353703  0
O  O144  1  0.88300545  0.61887902  0.93426879  1  -1.179317  0  -0.31308  -0.547946  0  2.344989  0
O  O145  1  0.50475000  0.00298928  0.99178426  1  -1.203313  0  -0.572928  -1.025961  0  2.544853  0
O  O146  1  0.32587908  0.06599014  0.03581623  1  -1.178101  0  -0.317587  -0.551469  0  2.341716  0
O  O147  1  0.59445180  0.17360510  0.79420169  1  -1.162321  0  -0.314143  -0.540887  0  2.339774  0
O  O148  1  0.44034498  0.88805712  0.93654313  1  -1.183877  0  -0.317052  -0.55367  0  2.342549  0
O  O149  1  0.44723228  0.17822081  0.95338129  1  -1.184082  0  -0.313174  -0.546037  0  2.364078  0
O  O150  1  0.32513792  0.88894096  0.04778917  1  -1.166244  0  -0.312575  -0.54377  0  2.363662  0
O  O151  1  0.60438090  0.05358994  0.78874023  1  -1.170616  0  -0.311853  -0.537619  0  2.325852  0
O  O152  1  0.61702019  0.88782076  0.93613030  1  -1.174886  0  -0.312764  -0.54658  0  2.366839  0
O  O153  1  0.46086721  0.89432627  0.19416700  1  -1.184714  0  -0.311428  -0.536981  0  2.307321  0
O  O154  1  0.62888533  0.88918966  0.04190147  1  -1.181877  0  -0.317278  -0.554907  0  2.335095  0
O  O155  1  0.33831159  0.90976199  0.18724986  1  -1.170874  0  -0.313487  -0.542005  0  2.349077  0
O  O156  1  0.63233472  0.17591735  0.93015484  1  -1.176858  0  -0.319077  -0.553253  0  2.355681  0
O  O157  1  0.62255211  0.05901632  0.05008034  1  -1.183784  0  -0.311853  -0.546718  0  2.340875  0
