# generated using pymatgen
data_CuH12C13SN7
_symmetry_space_group_name_H-M   'P 1'
_cell_length_a   5.48830577
_cell_length_b   10.75394831
_cell_length_c   15.19259054
_cell_angle_alpha   89.99973799
_cell_angle_beta   90.00102901
_cell_angle_gamma   109.51063013
_symmetry_Int_Tables_number   1
_chemical_formula_structural   CuH12C13SN7
_chemical_formula_sum   'Cu2 H24 C26 S2 N14'
_cell_volume   845.19338063
_cell_formula_units_Z   2
loop_
 _symmetry_equiv_pos_site_id
 _symmetry_equiv_pos_as_xyz
  1  'x, y, z'
loop_
 _atom_site_type_symbol
 _atom_site_label
 _atom_site_symmetry_multiplicity
 _atom_site_fract_x
 _atom_site_fract_y
 _atom_site_fract_z
 _atom_site_occupancy
 _atom_site_pbe_bader_spin_density
 _atom_site_pbe_cm5_charge
 _atom_site_pbe_ddec_charge
 _atom_site_pbe_ddec_spin_density
 _atom_site_pbe_ddec_sum_bond_order
 _atom_site_pbe_magmom
Cu  Cu0  1  0.51933663  0.59648636  0.24999747  1  0  0.510812  0.342404  0  2.720302  0
Cu  Cu1  1  0.48065722  0.40350578  0.75000125  1  0  0.510711  0.342251  0  2.720124  0
H  H2  1  0.95988925  0.54914516  0.38815497  1  0  0.129958  0.100406  0  1.024548  0
H  H3  1  0.04008508  0.45085051  0.88815871  1  0  0.129975  0.100509  0  1.024632  0
H  H4  1  0.04010201  0.45083914  0.61184112  1  0  0.129966  0.100508  0  1.024472  0
H  H5  1  0.95990819  0.54916005  0.11184331  1  0  0.129948  0.100472  0  1.02458  0
H  H6  1  0.15564784  0.35572857  0.37490109  1  0  0.142259  0.112838  0  0.993245  0
H  H7  1  0.84431758  0.64426880  0.87490098  1  0  0.142259  0.112801  0  0.993165  0
H  H8  1  0.84434323  0.64426835  0.62509434  1  0  0.142251  0.112809  0  0.993232  0
H  H9  1  0.15567570  0.35573206  0.12509050  1  0  0.14227  0.112892  0  0.993256  0
H  H10  1  0.10891014  0.19701096  0.49922166  1  0  0.116423  0.107109  0  0.985543  0
H  H11  1  0.89107924  0.80298428  0.99922267  1  0  0.116401  0.107121  0  0.985559  0
H  H12  1  0.89106740  0.80299434  0.50078101  1  0  0.116387  0.107154  0  0.985411  0
H  H13  1  0.10894700  0.19701357  0.00077145  1  0  0.116394  0.107141  0  0.985353  0
H  H14  1  0.34105262  0.26216688  0.58347317  1  0  0.103869  0.08867  0  1.053679  0
H  H15  1  0.65893800  0.73783274  0.08347504  1  0  0.103902  0.088699  0  1.053751  0
H  H16  1  0.65892622  0.73783748  0.41652819  1  0  0.103905  0.088677  0  1.05379  0
H  H17  1  0.34109342  0.26217107  0.91652236  1  0  0.103913  0.088678  0  1.05375  0
H  H18  1  0.18082661  0.02621052  0.39152357  1  0  0.095465  0.096456  0  1.018292  0
H  H19  1  0.81917829  0.97378403  0.89152168  1  0  0.095441  0.09648  0  1.01824  0
H  H20  1  0.81917038  0.97379044  0.60847910  1  0  0.095436  0.096393  0  1.018211  0
H  H21  1  0.18086777  0.02622308  0.10847836  1  0  0.09547  0.096405  0  1.018212  0
H  H22  1  0.34781166  0.83981949  0.37742716  1  0  0.097547  0.107283  0  1.041151  0
H  H23  1  0.65220352  0.16018501  0.87742277  1  0  0.097529  0.107285  0  1.041213  0
H  H24  1  0.65216606  0.16018290  0.62258210  1  0  0.097551  0.107289  0  1.04114  0
H  H25  1  0.34786048  0.83983130  0.12258254  1  0  0.097564  0.107304  0  1.041316  0
C  C26  1  0.08357894  0.71503548  0.24999802  1  0  0.127119  0.243587  0  4.309246  0
C  C27  1  0.91638786  0.28496371  0.75000071  1  0  0.127183  0.24377  0  4.309328  0
C  C28  1  0.76630725  0.48119968  0.40026042  1  0  0.135821  0.12663  0  3.987106  0
C  C29  1  0.23366407  0.51879593  0.90026177  1  0  0.135687  0.126381  0  3.987338  0
C  C30  1  0.23368790  0.51879152  0.59973831  1  0  0.135793  0.126443  0  3.98727  0
C  C31  1  0.76633605  0.48121385  0.09973827  1  0  0.135837  0.126459  0  3.987387  0
C  C32  1  0.35948058  0.38513478  0.39134649  1  0  0.155029  0.072695  0  3.904295  0
C  C33  1  0.64049726  0.61486681  0.89134859  1  0  0.155065  0.072857  0  3.904042  0
C  C34  1  0.64050512  0.61485908  0.60864960  1  0  0.155073  0.072701  0  3.904477  0
C  C35  1  0.35948583  0.38513863  0.10864882  1  0  0.154849  0.072379  0  3.903776  0
C  C36  1  0.31451168  0.22295302  0.51602844  1  0  -0.046308  -0.14078  0  3.892792  0
C  C37  1  0.68547622  0.77702897  0.01602639  1  0  -0.046343  -0.140943  0  3.89296  0
C  C38  1  0.68546235  0.77703956  0.48397358  1  0  -0.046314  -0.140852  0  3.892836  0
C  C39  1  0.31454653  0.22295617  0.98396641  1  0  -0.046336  -0.140788  0  3.892855  0
C  C40  1  0.40643342  0.10612841  0.50820137  1  0  -0.016435  0.08758  0  3.987218  0
C  C41  1  0.59354938  0.89386800  0.00821557  1  0  -0.016459  0.087566  0  3.986885  0
C  C42  1  0.59352635  0.89386477  0.49179077  1  0  -0.016464  0.087573  0  3.987086  0
C  C43  1  0.40647760  0.10613764  0.99180553  1  0  -0.016426  0.08749  0  3.987476  0
C  C44  1  0.32200823  0.01573671  0.43912351  1  0  -0.094984  -0.135242  0  3.995277  0
C  C45  1  0.67800437  0.98426683  0.93912802  1  0  -0.094974  -0.135319  0  3.994508  0
C  C46  1  0.67796821  0.98425691  0.56087587  1  0  -0.094934  -0.13516  0  3.994448  0
C  C47  1  0.32204815  0.01574530  0.06087663  1  0  -0.094969  -0.135062  0  3.99525  0
C  C48  1  0.41508942  0.91042608  0.43098033  1  0  -0.092293  -0.127108  0  3.974404  0
C  C49  1  0.58490030  0.08958947  0.93098234  1  0  -0.092239  -0.127053  0  3.973895  0
C  C50  1  0.58487645  0.08957794  0.56902037  1  0  -0.092227  -0.127073  0  3.973816  0
C  C51  1  0.41513054  0.91044247  0.06902955  1  0  -0.092288  -0.127171  0  3.974545  0
S  S52  1  0.87547433  0.79371301  0.25000018  1  0  -0.172146  -0.300208  0  2.652738  0
S  S53  1  0.12453527  0.20626498  0.74999657  1  0  -0.172213  -0.300474  0  2.651771  0
N  N54  1  0.23299090  0.65667384  0.24999590  1  0  -0.457725  -0.488573  0  3.520935  0
N  N55  1  0.76698648  0.34330525  0.75000348  1  0  -0.457608  -0.488331  0  3.521844  0
N  N56  1  0.55239797  0.48224487  0.35418603  1  0  -0.37101  -0.297768  0  3.631405  0
N  N57  1  0.44758274  0.51775579  0.85418927  1  0  -0.370914  -0.29776  0  3.631519  0
N  N58  1  0.44760328  0.51774747  0.64580743  1  0  -0.370968  -0.297603  0  3.631609  0
N  N59  1  0.55242405  0.48225611  0.14581142  1  0  -0.370844  -0.297407  0  3.631182  0
N  N60  1  0.45477618  0.32960976  0.45621136  1  0  -0.132603  0.176756  0  3.734666  0
N  N61  1  0.54520611  0.67039009  0.95620946  1  0  -0.132507  0.176921  0  3.734688  0
N  N62  1  0.54520822  0.67038504  0.54378802  1  0  -0.132559  0.17683  0  3.734722  0
N  N63  1  0.45481180  0.32961239  0.04378137  1  0  -0.132597  0.17673  0  3.734405  0
N  N64  1  0.71493503  0.38959580  0.46290213  1  0  -0.226836  -0.274235  0  3.109887  0
N  N65  1  0.28504764  0.61040407  0.96290351  1  0  -0.226825  -0.274135  0  3.109806  0
N  N66  1  0.28504992  0.61039998  0.53710055  1  0  -0.226885  -0.274218  0  3.109919  0
N  N67  1  0.71497396  0.38960822  0.03709719  1  0  -0.226827  -0.274121  0  3.11011  0
