# generated using pymatgen
data_Zr3H20C54(N3O14)2
_symmetry_space_group_name_H-M   'P 1'
_cell_length_a   19.00309711
_cell_length_b   19.00310450
_cell_length_c   19.00310951
_cell_angle_alpha   59.99989996
_cell_angle_beta   59.99989885
_cell_angle_gamma   59.99994946
_symmetry_Int_Tables_number   1
_chemical_formula_structural   Zr3H20C54(N3O14)2
_chemical_formula_sum   'Zr6 H40 C108 N12 O56'
_cell_volume   4852.41337596
_cell_formula_units_Z   2
loop_
 _symmetry_equiv_pos_site_id
 _symmetry_equiv_pos_as_xyz
  1  'x, y, z'
loop_
 _atom_site_type_symbol
 _atom_site_label
 _atom_site_symmetry_multiplicity
 _atom_site_fract_x
 _atom_site_fract_y
 _atom_site_fract_z
 _atom_site_occupancy
 _atom_site_pbe_bader_charge
 _atom_site_pbe_bader_spin_density
 _atom_site_pbe_cm5_charge
 _atom_site_pbe_ddec_charge
 _atom_site_pbe_ddec_spin_density
 _atom_site_pbe_ddec_sum_bond_order
 _atom_site_pbe_magmom
Zr  Zr0  1  0.90699687  0.40700063  0.59300309  1  2.634633  0  1.632307  2.37321  0  2.764787  0
Zr  Zr1  1  0.09299682  0.59300368  0.40700039  1  2.638955  0  1.632354  2.373177  0  2.764829  0
Zr  Zr2  1  0.09299881  0.40699908  0.59300100  1  2.639055  0  1.632361  2.373248  0  2.764705  0
Zr  Zr3  1  0.90700332  0.59300209  0.40699784  1  2.634696  0  1.632374  2.373234  0  2.764704  0
Zr  Zr4  1  0.90700429  0.59299987  0.59299566  1  2.638934  0  1.632361  2.373201  0  2.764797  0
Zr  Zr5  1  0.09300446  0.40700056  0.40699792  1  2.632367  0  1.632359  2.373243  0  2.764695  0
H  H6  1  0.92676122  0.42676073  0.71971755  1  0.61508  0  0.331587  0.422789  0  0.856105  0
H  H7  1  0.92676160  0.71971768  0.42676033  1  0.606402  0  0.331589  0.422809  0  0.856082  0
H  H8  1  0.21971802  0.42676091  0.42676041  1  0.603806  0  0.331569  0.422765  0  0.85614  0
H  H9  1  0.92676105  0.42676062  0.42676123  1  0.587974  0  0.331586  0.422788  0  0.855944  0
H  H10  1  0.32234456  0.38509091  0.17696446  1  0.1218  0  0.11831  0.131362  0  0.979512  0
H  H11  1  0.43456960  0.32179393  0.06192526  1  0.13529  0  0.128284  0.146034  0  0.967063  0
H  H12  1  0.31869470  0.61092578  0.18022768  1  0.152972  0  0.113493  0.12746  0  1.019337  0
H  H13  1  0.67696374  0.61560253  0.82234180  1  0.15066  0  0.118317  0.131388  0  0.979518  0
H  H14  1  0.56192466  0.68171402  0.93456665  1  0.134966  0  0.128282  0.14606  0  0.967068  0
H  H15  1  0.68022889  0.39015228  0.81869390  1  0.155494  0  0.113505  0.12749  0  1.019324  0
H  H16  1  0.88509244  0.82234397  0.61559916  1  0.117041  0  0.118341  0.131414  0  0.97948  0
H  H17  1  0.82179483  0.93456834  0.68171249  1  0.132908  0  0.128284  0.146024  0  0.967058  0
H  H18  1  0.11092618  0.81869604  0.39015006  1  0.153673  0  0.11352  0.127483  0  1.019348  0
H  H19  1  0.11560119  0.17696473  0.38509281  1  0.11607  0  0.118317  0.131382  0  0.979524  0
H  H20  1  0.18171372  0.06192566  0.32179509  1  0.135825  0  0.128291  0.146058  0  0.96706  0
H  H21  1  0.89015079  0.18022874  0.61092534  1  0.155642  0  0.113504  0.127452  0  1.019364  0
H  H22  1  0.32234460  0.17696475  0.61559989  1  0.150634  0  0.118325  0.131381  0  0.979553  0
H  H23  1  0.43456782  0.06192488  0.68171324  1  0.134971  0  0.128285  0.146072  0  0.967046  0
H  H24  1  0.31869571  0.18022952  0.39015109  1  0.155545  0  0.113511  0.127505  0  1.019337  0
H  H25  1  0.67696551  0.82234440  0.38509143  1  0.12177  0  0.118334  0.131407  0  0.979519  0
H  H26  1  0.56192555  0.93456859  0.32179469  1  0.135285  0  0.1283  0.146042  0  0.967076  0
H  H27  1  0.68022888  0.81869517  0.61092543  1  0.152943  0  0.113519  0.127488  0  1.019391  0
H  H28  1  0.11560047  0.38509214  0.82234390  1  0.117004  0  0.11833  0.131386  0  0.979579  0
H  H29  1  0.18171307  0.32179522  0.93456766  1  0.132905  0  0.1283  0.146081  0  0.967039  0
H  H30  1  0.89015139  0.61092549  0.81869488  1  0.153581  0  0.113507  0.127463  0  1.019351  0
H  H31  1  0.88509171  0.61560014  0.17696466  1  0.116061  0  0.118332  0.131393  0  0.979535  0
H  H32  1  0.82179344  0.68171350  0.06192529  1  0.135924  0  0.128283  0.146037  0  0.967075  0
H  H33  1  0.11092534  0.39015134  0.18022805  1  0.155684  0  0.113503  0.127481  0  1.019349  0
H  H34  1  0.11560270  0.82234224  0.17696248  1  0.150776  0  0.118311  0.131351  0  0.979524  0
H  H35  1  0.18171483  0.93456683  0.06192314  1  0.134897  0  0.128288  0.146066  0  0.967058  0
H  H36  1  0.89015283  0.81869427  0.18022760  1  0.155512  0  0.113511  0.127498  0  1.019345  0
H  H37  1  0.88509261  0.17696497  0.82234235  1  0.122153  0  0.118327  0.131377  0  0.979511  0
H  H38  1  0.82179562  0.06192485  0.93456691  1  0.135549  0  0.128306  0.146074  0  0.967036  0
H  H39  1  0.11092724  0.18022731  0.81869398  1  0.152958  0  0.113495  0.127448  0  1.019377  0
H  H40  1  0.32234402  0.61560121  0.38509213  1  0.117016  0  0.118318  0.131371  0  0.979523  0
H  H41  1  0.43456696  0.68171369  0.32179558  1  0.132897  0  0.128298  0.146071  0  0.967048  0
H  H42  1  0.31869507  0.39015150  0.61092504  1  0.153597  0  0.11351  0.127489  0  1.019338  0
H  H43  1  0.67696389  0.38509183  0.61560189  1  0.116062  0  0.118324  0.131377  0  0.979543  0
H  H44  1  0.56192507  0.32179414  0.68171339  1  0.135919  0  0.128283  0.146066  0  0.96705  0
H  H45  1  0.68022879  0.61092474  0.39015136  1  0.155648  0  0.113506  0.127463  0  1.019357  0
C  C46  1  0.76178969  0.50399831  0.73396979  1  1.538083  0  0.237938  0.642151  0  4.100428  0
C  C47  1  0.00024313  0.73397094  0.50399642  1  1.555492  0  0.238045  0.642379  0  4.100146  0
C  C48  1  0.23397150  0.50024160  0.26178786  1  1.539435  0  0.237959  0.642164  0  4.100314  0
C  C49  1  0.00399809  0.26178865  0.50024341  1  1.549131  0  0.237987  0.642266  0  4.100324  0
C  C50  1  0.00024496  0.26178961  0.73397003  1  1.539499  0  0.238033  0.642315  0  4.100253  0
C  C51  1  0.76178877  0.50024330  0.50399771  1  1.548909  0  0.237947  0.642144  0  4.100427  0
C  C52  1  0.00399831  0.73397098  0.26178839  1  1.538373  0  0.237963  0.642209  0  4.100315  0
C  C53  1  0.23397069  0.50399908  0.50024141  1  1.55532  0  0.237962  0.642188  0  4.10032  0
C  C54  1  0.00399928  0.50024150  0.73397028  1  1.55529  0  0.237971  0.642217  0  4.100429  0
C  C55  1  0.23397209  0.26179045  0.50399768  1  1.538403  0  0.237926  0.642166  0  4.100348  0
C  C56  1  0.00024252  0.50399729  0.26178913  1  1.54891  0  0.237987  0.642162  0  4.10023  0
C  C57  1  0.76179024  0.73397198  0.50024210  1  1.539409  0  0.237984  0.64221  0  4.100264  0
C  C58  1  0.35110192  0.43475327  0.14805372  1  -0.030933  0  -0.065415  -0.117997  0  3.888476  0
C  C59  1  0.42543199  0.43431020  0.07488667  1  0.028867  0  -0.000267  0.083741  0  4.032882  0
C  C60  1  0.46361073  0.37076653  0.03520320  1  0.072766  0  -0.061273  -0.151322  0  3.923358  0
C  C61  1  0.34971138  0.56275850  0.14935813  1  -0.038606  0  -0.073621  -0.12397  0  3.915384  0
C  C62  1  0.42484485  0.56367243  0.07725123  1  0.011426  0  0.000787  0.031239  0  4.012361  0
C  C63  1  0.46452891  0.62838923  0.03644096  1  0.167759  0  0.081605  0.028882  0  3.930981  0
C  C64  1  0.64805284  0.56609396  0.85109954  1  -0.075614  0  -0.065428  -0.118018  0  3.888523  0
C  C65  1  0.57488730  0.56537245  0.92542867  1  0.007221  0  -0.000279  0.083654  0  4.032873  0
C  C66  1  0.53520167  0.63042242  0.96360977  1  0.073687  0  -0.061281  -0.151279  0  3.923267  0
C  C67  1  0.64935796  0.43817274  0.84971147  1  -0.036814  0  -0.07358  -0.1239  0  3.91542  0
C  C68  1  0.57725258  0.43423210  0.92484419  1  0.035736  0  0.000805  0.031171  0  4.012567  0
C  C69  1  0.53644177  0.37064081  0.96452912  1  0.151034  0  0.081602  0.028999  0  3.930912  0
C  C70  1  0.31344806  0.49911439  0.18411721  1  0.006362  0  -0.015111  -0.034387  0  3.998624  0
C  C71  1  0.46344498  0.49909881  0.03831166  1  -0.06722  0  0.012552  0.01228  0  3.905178  0
C  C72  1  0.68411788  0.50332243  0.81344594  1  0.018767  0  -0.015135  -0.03443  0  3.998581  0
C  C73  1  0.53831210  0.49914420  0.96344469  1  0.030884  0  0.012533  0.012281  0  3.90529  0
C  C74  1  0.93475449  0.85110202  0.56609058  1  -0.022939  0  -0.065433  -0.117988  0  3.888564  0
C  C75  1  0.93431176  0.92543027  0.56537093  1  -0.031323  0  -0.000249  0.083746  0  4.032773  0
C  C76  1  0.87076663  0.96361072  0.63042047  1  0.04084  0  -0.061277  -0.151275  0  3.923265  0
C  C77  1  0.06275885  0.84971374  0.43817042  1  -0.038812  0  -0.073625  -0.123864  0  3.915417  0
C  C78  1  0.06367241  0.92484574  0.43423053  1  0.008227  0  0.000813  0.031211  0  4.012453  0
C  C79  1  0.12838957  0.96453010  0.37064052  1  0.149267  0  0.08154  0.028849  0  3.930986  0
C  C80  1  0.06609237  0.14805363  0.43475461  1  -0.069432  0  -0.065451  -0.118028  0  3.888557  0
C  C81  1  0.06537204  0.07488825  0.43431114  1  -0.024046  0  -0.000276  0.083643  0  4.032916  0
C  C82  1  0.13042199  0.03520364  0.37076583  1  0.051648  0  -0.061259  -0.151246  0  3.923257  0
C  C83  1  0.93817144  0.14935800  0.56275838  1  -0.095133  0  -0.073634  -0.123877  0  3.915389  0
C  C84  1  0.93423175  0.07725362  0.56367024  1  0.014169  0  0.000805  0.031182  0  4.012424  0
C  C85  1  0.87064003  0.03644139  0.62838925  1  0.211918  0  0.081594  0.028924  0  3.930927  0
C  C86  1  0.99911480  0.81344838  0.50331984  1  0.014489  0  -0.015182  -0.034649  0  3.998711  0
C  C87  1  0.99909971  0.96344570  0.49914343  1  0.038455  0  0.012556  0.012304  0  3.905214  0
C  C88  1  0.00332119  0.18411798  0.49911485  1  0.112453  0  -0.015082  -0.034425  0  3.998559  0
C  C89  1  0.99914309  0.03831341  0.49909892  1  0.039268  0  0.01252  0.01225  0  3.905348  0
C  C90  1  0.35110199  0.14805363  0.56609194  1  -0.075728  0  -0.06541  -0.117986  0  3.88858  0
C  C91  1  0.42542990  0.07488760  0.56537221  1  0.007196  0  -0.00026  0.083722  0  4.03292  0
C  C92  1  0.46360916  0.03520265  0.63042205  1  0.073647  0  -0.061288  -0.151305  0  3.923377  0
C  C93  1  0.34971420  0.14935805  0.43817183  1  -0.036868  0  -0.073623  -0.123942  0  3.915492  0
C  C94  1  0.42484454  0.07725336  0.43423229  1  0.038213  0  0.000786  0.031145  0  4.012508  0
C  C95  1  0.46453100  0.03644028  0.37063986  1  0.14856  0  0.081581  0.02892  0  3.930865  0
C  C96  1  0.64805512  0.85110148  0.43475303  1  -0.030924  0  -0.065422  -0.117992  0  3.888505  0
C  C97  1  0.57488750  0.92543096  0.43431040  1  0.028889  0  -0.00028  0.083672  0  4.032732  0
C  C98  1  0.53520309  0.96361075  0.37076596  1  0.072793  0  -0.061281  -0.151252  0  3.923274  0
C  C99  1  0.64935890  0.84971305  0.56275866  1  -0.038582  0  -0.073639  -0.123926  0  3.915302  0
C  C100  1  0.57725203  0.92484541  0.56367168  1  0.012862  0  0.000845  0.031329  0  4.012448  0
C  C101  1  0.53644067  0.96452939  0.62839024  1  0.166077  0  0.081572  0.028788  0  3.931007  0
C  C102  1  0.31344919  0.18411833  0.50332060  1  0.018909  0  -0.015154  -0.034458  0  3.998641  0
C  C103  1  0.46344481  0.03831148  0.49914411  1  -0.042043  0  0.012516  0.012275  0  3.905266  0
C  C104  1  0.68411925  0.81344810  0.49911304  1  0.006354  0  -0.0151  -0.034474  0  3.998581  0
C  C105  1  0.53831170  0.96344513  0.49910051  1  0.005735  0  0.012481  0.012186  0  3.905319  0
C  C106  1  0.06609264  0.43475346  0.85110058  1  -0.022699  0  -0.065436  -0.117988  0  3.888499  0
C  C107  1  0.06537164  0.43431135  0.92543082  1  -0.031551  0  -0.000269  0.083683  0  4.032834  0
C  C108  1  0.13042123  0.37076709  0.96360975  1  0.040827  0  -0.061289  -0.151318  0  3.923374  0
C  C109  1  0.93817131  0.56275893  0.84971228  1  -0.038741  0  -0.073616  -0.123873  0  3.915329  0
C  C110  1  0.93423153  0.56367203  0.92484525  1  0.008238  0  0.000781  0.031153  0  4.012447  0
C  C111  1  0.87064081  0.62838993  0.96452952  1  0.149266  0  0.081554  0.028908  0  3.930914  0
C  C112  1  0.93475337  0.56609159  0.14805412  1  -0.06941  0  -0.065425  -0.117953  0  3.888559  0
C  C113  1  0.93431010  0.56537259  0.07488723  1  -0.024111  0  -0.000281  0.083572  0  4.033054  0
C  C114  1  0.87076619  0.63042148  0.03520291  1  0.051565  0  -0.061247  -0.1512  0  3.923349  0
C  C115  1  0.06275799  0.43817153  0.14935814  1  -0.095188  0  -0.073661  -0.124001  0  3.915425  0
C  C116  1  0.06367073  0.43423243  0.07725166  1  0.013877  0  0.000799  0.031224  0  4.012381  0
C  C117  1  0.12838898  0.37064101  0.03644126  1  0.212112  0  0.081615  0.028911  0  3.930915  0
C  C118  1  0.00332075  0.49911461  0.81344720  1  0.014753  0  -0.015143  -0.034518  0  3.998588  0
C  C119  1  0.99914346  0.49909973  0.96344484  1  0.038451  0  0.012533  0.012292  0  3.905116  0
C  C120  1  0.99911349  0.50332078  0.18411761  1  0.112459  0  -0.015111  -0.034426  0  3.998654  0
C  C121  1  0.99909882  0.49914471  0.03831271  1  0.039275  0  0.012513  0.012289  0  3.905216  0
C  C122  1  0.06609434  0.85110013  0.14805187  1  -0.075714  0  -0.065352  -0.117859  0  3.888448  0
C  C123  1  0.06537372  0.92542940  0.07488603  1  0.007532  0  -0.00029  0.08362  0  4.032928  0
C  C124  1  0.13042301  0.96360830  0.03520204  1  0.07333  0  -0.061288  -0.151304  0  3.923351  0
C  C125  1  0.93817319  0.84971210  0.14935656  1  -0.036786  0  -0.073607  -0.123944  0  3.915387  0
C  C126  1  0.93423278  0.92484515  0.07725133  1  0.038217  0  0.000797  0.031203  0  4.012418  0
C  C127  1  0.87064133  0.96452957  0.03643927  1  0.148463  0  0.081575  0.028879  0  3.930985  0
C  C128  1  0.93475393  0.14805272  0.85110096  1  -0.031319  0  -0.065443  -0.117992  0  3.888534  0
C  C129  1  0.93431177  0.07488766  0.92542871  1  0.028871  0  -0.000297  0.083657  0  4.032838  0
C  C130  1  0.87076716  0.03520341  0.96360846  1  0.072538  0  -0.061267  -0.151272  0  3.923266  0
C  C131  1  0.06276044  0.14935667  0.84971123  1  -0.038608  0  -0.073591  -0.12385  0  3.915386  0
C  C132  1  0.06367270  0.07725132  0.92484410  1  0.012873  0  0.000768  0.031142  0  4.01252  0
C  C133  1  0.12839151  0.03643989  0.96452794  1  0.166021  0  0.081565  0.028912  0  3.930916  0
C  C134  1  0.00332268  0.81344653  0.18411701  1  0.018751  0  -0.015185  -0.034517  0  3.998662  0
C  C135  1  0.99914448  0.96344530  0.03831165  1  -0.04239  0  0.012532  0.012284  0  3.905241  0
C  C136  1  0.99911532  0.18411763  0.81344675  1  0.00637  0  -0.015113  -0.034473  0  3.998541  0
C  C137  1  0.99909963  0.03831197  0.96344503  1  0.006064  0  0.012542  0.012293  0  3.905222  0
C  C138  1  0.35110212  0.56609202  0.43475340  1  -0.022735  0  -0.065393  -0.117965  0  3.888531  0
C  C139  1  0.42542996  0.56537203  0.43431144  1  -0.031582  0  -0.000241  0.083732  0  4.032918  0
C  C140  1  0.46360947  0.63042189  0.37076699  1  0.040845  0  -0.061292  -0.151291  0  3.92339  0
C  C141  1  0.34971295  0.43817186  0.56275822  1  -0.038706  0  -0.073638  -0.123974  0  3.915386  0
C  C142  1  0.42484462  0.43423213  0.56367132  1  0.008561  0  0.000767  0.031174  0  4.012488  0
C  C143  1  0.46452971  0.37064031  0.62838888  1  0.148904  0  0.081572  0.028848  0  3.931043  0
C  C144  1  0.64805397  0.43475336  0.56609218  1  -0.06941  0  -0.06543  -0.117964  0  3.888514  0
C  C145  1  0.57488734  0.43431073  0.56537224  1  -0.024089  0  -0.000266  0.083646  0  4.032947  0
C  C146  1  0.53520357  0.37076561  0.63042174  1  0.051628  0  -0.061257  -0.151243  0  3.923346  0
C  C147  1  0.64935817  0.56275801  0.43817098  1  -0.095454  0  -0.073642  -0.12393  0  3.915366  0
C  C148  1  0.57725321  0.56367069  0.43423166  1  0.014483  0  0.000808  0.031262  0  4.012347  0
C  C149  1  0.53644103  0.62838979  0.37063985  1  0.21179  0  0.081573  0.028809  0  3.93104  0
C  C150  1  0.31344797  0.50332198  0.49911345  1  0.014721  0  -0.015156  -0.034436  0  3.998565  0
C  C151  1  0.46344462  0.49914362  0.49910036  1  0.099414  0  0.01251  0.012246  0  3.905277  0
C  C152  1  0.68411807  0.49911389  0.50332102  1  0.112506  0  -0.01511  -0.034442  0  3.998558  0
C  C153  1  0.53831172  0.49909865  0.49914431  1  -0.021703  0  0.012542  0.012282  0  3.905245  0
N  N154  1  0.57308599  0.30133068  0.92890609  1  0.392996  0  0.058025  0.517447  0  4.20741  0
N  N155  1  0.42890621  0.69667595  0.07308934  1  0.382971  0  0.058105  0.51758  0  4.207277  0
N  N156  1  0.80132993  0.07308566  0.69667702  1  0.383511  0  0.0581  0.517537  0  4.207377  0
N  N157  1  0.19667828  0.92890833  0.30132882  1  0.406995  0  0.058142  0.517662  0  4.207328  0
N  N158  1  0.57308736  0.92890569  0.69667772  1  0.383214  0  0.058136  0.517628  0  4.207336  0
N  N159  1  0.42890850  0.07308815  0.30132942  1  0.393365  0  0.058106  0.517537  0  4.207288  0
N  N160  1  0.19667841  0.30132963  0.07308584  1  0.383781  0  0.058096  0.517601  0  4.207353  0
N  N161  1  0.80132905  0.69668004  0.92890572  1  0.407085  0  0.058133  0.517571  0  4.207415  0
N  N162  1  0.19667982  0.07308699  0.92890498  1  0.383494  0  0.058085  0.517517  0  4.207529  0
N  N163  1  0.80133106  0.92890650  0.07308684  1  0.393141  0  0.058125  0.517673  0  4.207404  0
N  N164  1  0.57308814  0.69667594  0.30132926  1  0.383789  0  0.058089  0.517533  0  4.207433  0
N  N165  1  0.42890672  0.30132914  0.69667819  1  0.406946  0  0.058134  0.51755  0  4.207393  0
O  O166  1  0.79196220  0.44451803  0.70317309  1  -1.178019  0  -0.349516  -0.609255  0  2.284069  0
O  O167  1  0.06034866  0.70317334  0.44451511  1  -1.188517  0  -0.349523  -0.6093  0  2.284006  0
O  O168  1  0.20317328  0.56034860  0.29196162  1  -1.175384  0  -0.349487  -0.609186  0  2.283895  0
O  O169  1  0.94451580  0.29196227  0.56034838  1  -1.183391  0  -0.349508  -0.609268  0  2.283927  0
O  O170  1  0.06034840  0.29196210  0.70317345  1  -1.175446  0  -0.349549  -0.60931  0  2.284133  0
O  O171  1  0.79196166  0.56034815  0.44451665  1  -1.183353  0  -0.34952  -0.609255  0  2.284026  0
O  O172  1  0.94451887  0.70317317  0.29196146  1  -1.178132  0  -0.349476  -0.609233  0  2.284041  0
O  O173  1  0.20317427  0.44451788  0.56034688  1  -1.188404  0  -0.349477  -0.609224  0  2.283896  0
O  O174  1  0.94451709  0.56034720  0.70317368  1  -1.188419  0  -0.349491  -0.609219  0  2.283933  0
O  O175  1  0.20317398  0.29196350  0.44451697  1  -1.178119  0  -0.349508  -0.609274  0  2.283975  0
O  O176  1  0.06034875  0.44451557  0.29196255  1  -1.183378  0  -0.3495  -0.609201  0  2.283922  0
O  O177  1  0.79196281  0.70317445  0.56034832  1  -1.175234  0  -0.349518  -0.609259  0  2.283949  0
O  O178  1  0.20364534  0.29293581  0.56342661  1  -1.176181  0  -0.35631  -0.618126  0  2.282667  0
O  O179  1  0.93999405  0.56342932  0.29293527  1  -1.181988  0  -0.35633  -0.618153  0  2.282563  0
O  O180  1  0.79293581  0.70364334  0.43999486  1  -1.17666  0  -0.356364  -0.61817  0  2.282542  0
O  O181  1  0.06342792  0.43999696  0.70364281  1  -1.182473  0  -0.356325  -0.618168  0  2.28276  0
O  O182  1  0.93999539  0.29293568  0.70364158  1  -1.17655  0  -0.35636  -0.618214  0  2.28254  0
O  O183  1  0.20364262  0.56342906  0.43999357  1  -1.182492  0  -0.356295  -0.618127  0  2.282614  0
O  O184  1  0.06342849  0.70364310  0.29293624  1  -1.176147  0  -0.35637  -0.618193  0  2.282576  0
O  O185  1  0.79293424  0.43999520  0.56343035  1  -1.182008  0  -0.356279  -0.61811  0  2.282633  0
O  O186  1  0.06342839  0.29293405  0.43999713  1  -1.182238  0  -0.356334  -0.618204  0  2.282663  0
O  O187  1  0.79293519  0.56342866  0.70364218  1  -1.176025  0  -0.356317  -0.618146  0  2.282619  0
O  O188  1  0.93999757  0.70364154  0.56342701  1  -1.182358  0  -0.35639  -0.618268  0  2.282586  0
O  O189  1  0.20364272  0.43999560  0.29293357  1  -1.17664  0  -0.35638  -0.618215  0  2.282703  0
O  O190  1  0.94758443  0.44758397  0.44758365  1  -1.218333  0  -0.694524  -1.069545  0  2.361519  0
O  O191  1  0.15724909  0.44758372  0.44758282  1  -1.235453  0  -0.694548  -1.069556  0  2.361863  0
O  O192  1  0.94758538  0.65724763  0.44758355  1  -1.238125  0  -0.694561  -1.069537  0  2.361886  0
O  O193  1  0.94758414  0.44758365  0.65724869  1  -1.246757  0  -0.69455  -1.069549  0  2.361876  0
O  O194  1  0.03861461  0.53861517  0.53861266  1  -1.20187  0  -0.792709  -1.15225  0  2.132274  0
O  O195  1  0.88415858  0.53861406  0.53861448  1  -1.196595  0  -0.792668  -1.15219  0  2.13208  0
O  O196  1  0.03861532  0.53861486  0.38415541  1  -1.194329  0  -0.792698  -1.152225  0  2.132194  0
O  O197  1  0.03861440  0.38415907  0.53861335  1  -1.196613  0  -0.792654  -1.152241  0  2.13214  0
O  O198  1  0.65247912  0.26439216  0.90867569  1  -0.466284  0  -0.141447  -0.344974  0  1.880346  0
O  O199  1  0.52222730  0.28423180  0.92243972  1  -0.428413  0  -0.119029  -0.3076  0  1.859698  0
O  O200  1  0.40868298  0.67445094  0.15247560  1  -0.451412  0  -0.141396  -0.344934  0  1.880572  0
O  O201  1  0.42243621  0.77110331  0.02222857  1  -0.425184  0  -0.11912  -0.307692  0  1.859399  0
O  O202  1  0.76438958  0.15247797  0.67445196  1  -0.470219  0  -0.14146  -0.344982  0  1.880364  0
O  O203  1  0.78423244  0.02222840  0.77110120  1  -0.417816  0  -0.119048  -0.307619  0  1.859657  0
O  O204  1  0.17445398  0.90868056  0.26439112  1  -0.470021  0  -0.14142  -0.344986  0  1.880429  0
O  O205  1  0.27110235  0.92244025  0.28423139  1  -0.428138  0  -0.119104  -0.307705  0  1.859605  0
O  O206  1  0.65247603  0.90868105  0.67445242  1  -0.451398  0  -0.141433  -0.344981  0  1.880445  0
O  O207  1  0.52222871  0.92243564  0.77110295  1  -0.425204  0  -0.119084  -0.307648  0  1.859576  0
O  O208  1  0.40868449  0.15247742  0.26438835  1  -0.466242  0  -0.141444  -0.344991  0  1.880467  0
O  O209  1  0.42243773  0.02222883  0.28423173  1  -0.428837  0  -0.119058  -0.307603  0  1.859479  0
O  O210  1  0.17445315  0.26438992  0.15247638  1  -0.470209  0  -0.141429  -0.344982  0  1.880381  0
O  O211  1  0.27110106  0.28423344  0.02222888  1  -0.41795  0  -0.119066  -0.307662  0  1.859678  0
O  O212  1  0.76439093  0.67445534  0.90867683  1  -0.470179  0  -0.141418  -0.344966  0  1.880428  0
O  O213  1  0.78423240  0.77110323  0.92243772  1  -0.428067  0  -0.119094  -0.307664  0  1.859655  0
O  O214  1  0.17445561  0.15247574  0.90867591  1  -0.451388  0  -0.14138  -0.34491  0  1.880562  0
O  O215  1  0.27110311  0.02222852  0.92243997  1  -0.425405  0  -0.119074  -0.307645  0  1.859687  0
O  O216  1  0.76439368  0.90867798  0.15247432  1  -0.466292  0  -0.141435  -0.345015  0  1.880578  0
O  O217  1  0.78423302  0.92243937  0.02222553  1  -0.428445  0  -0.119081  -0.307681  0  1.859514  0
O  O218  1  0.65247688  0.67445170  0.26439039  1  -0.470245  0  -0.141403  -0.344945  0  1.880486  0
O  O219  1  0.52222825  0.77110306  0.28423150  1  -0.417956  0  -0.11908  -0.307613  0  1.859536  0
O  O220  1  0.40867905  0.26439052  0.67445343  1  -0.470114  0  -0.141444  -0.344974  0  1.880403  0
O  O221  1  0.42243821  0.28423183  0.77110188  1  -0.428004  0  -0.119082  -0.307612  0  1.859636  0
