# generated using pymatgen
data_Zn2H12C36N7(O6F)3
_symmetry_space_group_name_H-M   'P 1'
_cell_length_a   11.66133556
_cell_length_b   13.13270038
_cell_length_c   13.60903758
_cell_angle_alpha   85.79739410
_cell_angle_beta   60.75320901
_cell_angle_gamma   81.40904052
_symmetry_Int_Tables_number   1
_chemical_formula_structural   Zn2H12C36N7(O6F)3
_chemical_formula_sum   'Zn2 H12 C36 N7 O18 F3'
_cell_volume   1798.06936682
_cell_formula_units_Z   1
loop_
 _symmetry_equiv_pos_site_id
 _symmetry_equiv_pos_as_xyz
  1  'x, y, z'
loop_
 _atom_site_type_symbol
 _atom_site_label
 _atom_site_symmetry_multiplicity
 _atom_site_fract_x
 _atom_site_fract_y
 _atom_site_fract_z
 _atom_site_occupancy
 _atom_site_pbe_bader_charge
 _atom_site_pbe_bader_spin_density
 _atom_site_pbe_cm5_charge
 _atom_site_pbe_ddec_charge
 _atom_site_pbe_ddec_spin_density
 _atom_site_pbe_ddec_sum_bond_order
 _atom_site_pbe_magmom
Zn  Zn0  1  0.63068617  0.49266325  0.47072931  1  1.297935  0  0.686706  0.833034  0  2.431663  0
Zn  Zn1  1  0.35820820  0.51136940  0.53593195  1  1.295407  0  0.676828  0.843652  0  2.357457  0
H  H2  1  0.21727973  0.31019318  0.06100233  1  0.147018  0  0.123877  0.144642  0  0.972908  0
H  H3  1  0.86794097  0.56884107  0.91647975  1  0.144616  0  0.135385  0.160113  0  0.963727  0
H  H4  1  0.40258839  0.39620468  0.28294178  1  0.130073  0  0.117335  0.156712  0  0.99546  0
H  H5  1  0.37565587  0.18583922  0.46536282  1  0.092135  0  0.104193  0.107923  0  1.005202  0
H  H6  1  0.67010323  0.17040009  0.57086032  1  0.108819  0  0.109902  0.11843  0  0.990929  0
H  H7  1  0.30292427  0.02649038  0.44230524  1  0.070567  0  0.109765  0.111499  0  0.982545  0
H  H8  1  0.68372889  0.98106023  0.58409479  1  0.073175  0  0.109164  0.116196  0  1.00059  0
H  H9  1  0.31352436  0.83513117  0.45491379  1  0.092981  0  0.111859  0.120298  0  0.983442  0
H  H10  1  0.81185163  0.36338572  0.53132343  1  0.188865  0  0.134255  0.11839  0  1.005568  0
H  H11  1  0.82545741  0.64179824  0.36382293  1  0.185745  0  0.131424  0.113454  0  0.990825  0
H  H12  1  0.01596373  0.68352784  0.38488811  1  0.132272  0  0.129639  0.143834  0  0.960944  0
H  H13  1  0.17306207  0.35085315  0.62543747  1  0.187882  0  0.141155  0.13282  0  0.981707  0
C  C14  1  0.47100766  0.69971610  0.50604481  1  1.606936  0  0.22309  0.608864  0  4.161492  0
C  C15  1  0.56554355  0.50406647  0.28949244  1  1.647706  0  0.216142  0.598487  0  4.201883  0
C  C16  1  0.51922565  0.30311411  0.50685869  1  1.531604  0  0.218983  0.597851  0  4.158986  0
C  C17  1  0.41962819  0.48632072  0.71607406  1  1.64814  0  0.218871  0.618187  0  4.175147  0
C  C18  1  0.29416410  0.35717546  0.00645491  1  0.052952  0  -0.07959  -0.179473  0  3.939415  0
C  C19  1  0.40229132  0.45364997  0.83053513  1  0.077181  0  -0.0079  -0.173449  0  3.907691  0
C  C20  1  0.72066612  0.55018914  0.09027624  1  0.195018  0  0.091954  0.078577  0  3.924704  0
C  C21  1  0.77120606  0.54571392  0.97424011  1  0.108947  0  -0.061341  -0.158412  0  3.937775  0
C  C22  1  0.69795397  0.50770433  0.93363512  1  0.193948  0  0.08765  0.043866  0  3.903104  0
C  C23  1  0.57212437  0.47475646  0.00570056  1  0.036063  0  0.013174  0.007628  0  3.90937  0
C  C24  1  0.53477828  0.46526744  0.12283101  1  0.0417  0  0.015758  0.107813  0  3.935201  0
C  C25  1  0.48102597  0.44883334  0.97059409  1  0.0681  0  -0.002994  -0.06056  0  3.970582  0
C  C26  1  0.37791693  0.38894686  0.04240605  1  0.039074  0  -0.000321  0.018551  0  4.021752  0
C  C27  1  0.35943431  0.36832552  0.15343009  1  0.405008  0  0.106584  0.253624  0  4.059779  0
C  C28  1  0.42733991  0.40874374  0.19527721  1  0.085483  0  -0.096919  -0.255923  0  3.95809  0
C  C29  1  0.48004620  0.48604903  0.87090301  1  0.52775  0  0.124914  0.263258  0  3.979214  0
C  C30  1  0.31142816  0.38629592  0.90108026  1  0.164733  0  0.095545  0.101366  0  3.927255  0
C  C31  1  0.60700091  0.50782270  0.16569720  1  0.083421  0  0.014025  -0.07978  0  3.839884  0
C  C32  1  0.52282592  0.18893542  0.51568873  1  -0.01895  0  -0.013328  -0.021998  0  3.977785  0
C  C33  1  0.46271160  0.81468024  0.50687016  1  0.048811  0  0.000224  -0.050375  0  3.93802  0
C  C34  1  0.36949545  0.98048650  0.46834693  1  -0.095241  0  -0.076577  -0.114588  0  3.974477  0
C  C35  1  0.37493615  0.87500272  0.47502791  1  0.008768  0  -0.0788  -0.087698  0  3.98033  0
C  C36  1  0.54218530  0.86391117  0.53210444  1  0.204861  0  0.088108  0.008489  0  3.88192  0
C  C37  1  0.53899966  0.97248543  0.52854045  1  0.009143  0  0.005144  0.040816  0  3.968329  0
C  C38  1  0.44957337  0.03167119  0.49512992  1  0.017382  0  0.001533  0.085089  0  3.998569  0
C  C39  1  0.44345193  0.14021767  0.49026266  1  0.000878  0  -0.073482  -0.127182  0  3.919191  0
C  C40  1  0.60960456  0.13021917  0.55000290  1  0.029782  0  -0.076145  -0.075585  0  3.961363  0
C  C41  1  0.61664658  0.02476061  0.55745957  1  -0.016628  0  -0.086953  -0.127137  0  3.979705  0
C  C42  1  0.03034043  0.37548278  0.56619686  1  0.183418  0  0.086795  -0.02239  0  3.923791  0
C  C43  1  0.12895874  0.40228535  0.58292072  1  0.565288  0  0.068796  0.078131  0  3.864262  0
C  C44  1  0.12822815  0.55772735  0.49326880  1  1.187546  0  0.279469  0.436989  0  3.986886  0
C  C45  1  0.02647894  0.53897308  0.47101189  1  0.021859  0  0.012326  -0.040926  0  4.009249  0
C  C46  1  0.97369366  0.44386805  0.51038621  1  0.020268  0  0.022722  0.036118  0  3.975549  0
C  C47  1  0.86322930  0.43071005  0.49788707  1  0.606645  0  0.082983  0.086796  0  3.819525  0
C  C48  1  0.87142999  0.58897983  0.40391783  1  0.451183  0  0.063671  0.11054  0  3.870991  0
C  C49  1  0.97599223  0.61095893  0.41518505  1  0.056045  0  -0.057133  -0.114437  0  3.91775  0
N  N50  1  0.81507618  0.50143011  0.44801332  1  -1.234766  0  -0.308858  -0.174966  0  3.501269  0
N  N51  1  0.17822200  0.49382061  0.54519813  1  -1.227439  0  -0.312359  -0.283044  0  3.489119  0
N  N52  1  0.23035713  0.34214406  0.86242474  1  0.435195  0  0.063203  0.521001  0  4.226499  0
N  N53  1  0.63126483  0.80222861  0.56873736  1  0.403467  0  0.058347  0.522429  0  4.223839  0
N  N54  1  0.98866550  0.27320924  0.60761869  1  0.37857  0  0.060006  0.518761  0  4.231729  0
N  N55  1  0.79621551  0.59999818  0.13012011  1  0.409775  0  0.062369  0.519012  0  4.221672  0
N  N56  1  0.77091882  0.48871325  0.81121539  1  0.391029  0  0.05876  0.517597  0  4.217427  0
O  O57  1  0.58629335  0.64909469  0.46242614  1  -1.161139  0  -0.306671  -0.544737  0  2.377652  0
O  O58  1  0.36175201  0.66326124  0.54607855  1  -1.143033  0  -0.310555  -0.528524  0  2.317979  0
O  O59  1  0.65786617  0.47300139  0.31280624  1  -1.14804  0  -0.310208  -0.528053  0  2.311225  0
O  O60  1  0.44449815  0.53163164  0.35745722  1  -1.162303  0  -0.307549  -0.547548  0  2.329602  0
O  O61  1  0.61596333  0.33983448  0.50379135  1  -1.155458  0  -0.309331  -0.53046  0  2.319665  0
O  O62  1  0.42058115  0.35630546  0.50236664  1  -1.17506  0  -0.321258  -0.571803  0  2.351203  0
O  O63  1  0.53373335  0.50690645  0.64457267  1  -1.160588  0  -0.306848  -0.537222  0  2.369933  0
O  O64  1  0.32063337  0.48690061  0.70023789  1  -1.138462  0  -0.313113  -0.529066  0  2.276485  0
O  O65  1  0.10937345  0.36798903  0.91432871  1  -0.440446  0  -0.122303  -0.312048  0  1.874555  0
O  O66  1  0.29062045  0.27983814  0.78389415  1  -0.426701  0  -0.118671  -0.310953  0  1.89793  0
O  O67  1  0.57992051  0.75179188  0.65642869  1  -0.423727  0  -0.122456  -0.309683  0  1.894689  0
O  O68  1  0.75185761  0.80754795  0.51020145  1  -0.477677  0  -0.135271  -0.349483  0  1.916453  0
O  O69  1  0.01228363  0.23353004  0.68208880  1  -0.401579  0  -0.118724  -0.311309  0  1.881606  0
O  O70  1  0.93538393  0.23307728  0.56319500  1  -0.45296  0  -0.126527  -0.324584  0  1.896421  0
O  O71  1  0.73328483  0.66817804  0.20217294  1  -0.433809  0  -0.120483  -0.311818  0  1.907161  0
O  O72  1  0.91682967  0.57173795  0.08591986  1  -0.432943  0  -0.126071  -0.318192  0  1.871628  0
O  O73  1  0.75551706  0.40927333  0.77739704  1  -0.45069  0  -0.121527  -0.327751  0  1.956002  0
O  O74  1  0.84919228  0.54950266  0.75065097  1  -0.45604  0  -0.123739  -0.325651  0  1.918715  0
F  F75  1  0.26274097  0.30981946  0.22139736  1  -0.634696  0  -0.096909  -0.138972  0  1.318527  0
F  F76  1  0.17717543  0.64703127  0.45922895  1  -0.60545  0  -0.043258  -0.098944  0  1.367202  0
F  F77  1  0.55377347  0.56214633  0.81567349  1  -0.617342  0  -0.068461  -0.096113  0  1.445965  0
