# generated using pymatgen
data_CdH4C7N4Cl
_symmetry_space_group_name_H-M   'P 1'
_cell_length_a   6.99627434
_cell_length_b   7.54959830
_cell_length_c   8.46777969
_cell_angle_alpha   95.87416630
_cell_angle_beta   104.77457757
_cell_angle_gamma   113.60874539
_symmetry_Int_Tables_number   1
_chemical_formula_structural   CdH4C7N4Cl
_chemical_formula_sum   'Cd2 H8 C14 N8 Cl2'
_cell_volume   385.57762763
_cell_formula_units_Z   2
loop_
 _symmetry_equiv_pos_site_id
 _symmetry_equiv_pos_as_xyz
  1  'x, y, z'
loop_
 _atom_site_type_symbol
 _atom_site_label
 _atom_site_symmetry_multiplicity
 _atom_site_fract_x
 _atom_site_fract_y
 _atom_site_fract_z
 _atom_site_occupancy
 _atom_site_hle17_bader_spin_density
 _atom_site_hle17_ddec_charge
 _atom_site_hle17_ddec_spin_density
 _atom_site_hle17_ddec_sum_bond_order
 _atom_site_hle17_magmom
 _atom_site_hse06_10hf_bader_spin_density
 _atom_site_hse06_10hf_ddec_charge
 _atom_site_hse06_10hf_ddec_spin_density
 _atom_site_hse06_10hf_ddec_sum_bond_order
 _atom_site_hse06_10hf_magmom
 _atom_site_hse06_bader_spin_density
 _atom_site_hse06_ddec_charge
 _atom_site_hse06_ddec_spin_density
 _atom_site_hse06_ddec_sum_bond_order
 _atom_site_hse06_magmom
 _atom_site_pbe_bader_spin_density
 _atom_site_pbe_cm5_charge
 _atom_site_pbe_ddec_charge
 _atom_site_pbe_ddec_spin_density
 _atom_site_pbe_ddec_sum_bond_order
 _atom_site_pbe_magmom
Cd  Cd0  1  0.00475163  0.21249811  0.37906954  1  0  0.979349  0  1.843766  0  0  0.780999  0  2.30558  0  0  0.83259  0  2.264853  0  0  0.695183  0.744727  0  2.332964  0
Cd  Cd1  1  0.99524805  0.78750158  0.62092922  1  0  0.97936  0  1.843761  0  0  0.781012  0  2.305577  0  0  0.832602  0  2.264851  0  0  0.69519  0.744739  0  2.332956  0
H  H2  1  0.20403698  0.07686604  0.99364097  1  0  0.083871  0  0.950697  0  0  0.09018  0  1.021037  0  0  0.092743  0  1.018826  0  0  0.107642  0.088273  0  1.022668  0
H  H3  1  0.79596126  0.92313369  0.00635512  1  0  0.083867  0  0.95073  0  0  0.090176  0  1.021061  0  0  0.092739  0  1.01885  0  0  0.107621  0.088271  0  1.022695  0
H  H4  1  0.11561565  0.50312868  0.83211230  1  0  0.084525  0  0.963838  0  0  0.090081  0  1.034281  0  0  0.092945  0  1.031531  0  0  0.102255  0.08794  0  1.036367  0
H  H5  1  0.88438106  0.49686802  0.16788671  1  0  0.084541  0  0.963805  0  0  0.090105  0  1.034249  0  0  0.092969  0  1.031499  0  0  0.102275  0.087965  0  1.036336  0
H  H6  1  0.35590551  0.51323851  0.11055061  1  0  0.112187  0  0.936127  0  0  0.122109  0  0.993889  0  0  0.1251  0  0.993731  0  0  0.106628  0.119973  0  0.994153  0
H  H7  1  0.64409490  0.48676267  0.88944845  1  0  0.112229  0  0.936061  0  0  0.122131  0  0.993846  0  0  0.12514  0  0.993672  0  0  0.106641  0.119994  0  0.99411  0
H  H8  1  0.52950700  0.82406169  0.33862279  1  0  0.099537  0  0.97093  0  0  0.10734  0  1.037193  0  0  0.109575  0  1.036027  0  0  0.100483  0.105664  0  1.03809  0
H  H9  1  0.47049418  0.17594101  0.66137422  1  0  0.099566  0  0.970871  0  0  0.107351  0  1.037171  0  0  0.109587  0  1.036006  0  0  0.100487  0.105674  0  1.038066  0
C  C10  1  0.52249377  0.42483597  0.46100184  1  0  0.23842  0  3.901606  0  0  0.218693  0  4.159589  0  0  0.229322  0  4.175625  0  0  0.199921  0.211637  0  4.148542  0
C  C11  1  0.47750803  0.57516514  0.53900224  1  0  0.238359  0  3.901642  0  0  0.218698  0  4.159564  0  0  0.229327  0  4.175599  0  0  0.199924  0.211641  0  4.148517  0
C  C12  1  0.47810413  0.16110043  0.31131217  1  0  0.321145  0  3.766425  0  0  0.290966  0  4.035559  0  0  0.305753  0  4.051575  0  0  0.212717  0.28125  0  4.02454  0
C  C13  1  0.52189624  0.83890072  0.68868924  1  0  0.321031  0  3.766471  0  0  0.290831  0  4.035651  0  0  0.305617  0  4.051667  0  0  0.212683  0.281116  0  4.024627  0
C  C14  1  0.37856107  0.97404798  0.18524675  1  0  -0.037662  0  3.7769  0  0  -0.01513  0  4.013305  0  0  -0.022144  0  4.034974  0  0  -0.002359  -0.010942  0  3.998819  0
C  C15  1  0.62144231  0.02595321  0.81475178  1  0  -0.03756  0  3.776829  0  0  -0.015046  0  4.013255  0  0  -0.022059  0  4.034921  0  0  -0.002342  -0.010858  0  3.998765  0
C  C16  1  0.23928210  0.95442403  0.02600216  1  0  0.10782  0  3.671785  0  0  0.067745  0  3.923128  0  0  0.075594  0  3.94077  0  0  0.048874  0.06279  0  3.911068  0
C  C17  1  0.76071830  0.04557715  0.97399690  1  0  0.107777  0  3.671876  0  0  0.067726  0  3.923208  0  0  0.075576  0  3.940848  0  0  0.048861  0.062767  0  3.911153  0
C  C18  1  0.19151590  0.63473626  0.93488192  1  0  0.123462  0  3.703188  0  0  0.090392  0  3.955629  0  0  0.098358  0  3.973696  0  0  0.040623  0.085326  0  3.943337  0
C  C19  1  0.80848161  0.36526198  0.06511387  1  0  0.123501  0  3.703262  0  0  0.090416  0  3.955721  0  0  0.09838  0  3.973794  0  0  0.040619  0.085349  0  3.94343  0
C  C20  1  0.32670388  0.64153165  0.08971519  1  0  -0.1051  0  3.715813  0  0  -0.116115  0  3.971741  0  0  -0.123634  0  3.992174  0  0  -0.083081  -0.111446  0  3.958207  0
C  C21  1  0.67329434  0.35846806  0.91028207  1  0  -0.10517  0  3.715946  0  0  -0.116176  0  3.971899  0  0  -0.123711  0  3.992323  0  0  -0.083115  -0.111506  0  3.958362  0
C  C22  1  0.42193594  0.81348671  0.21653505  1  0  -0.018066  0  3.682751  0  0  -0.04984  0  3.935462  0  0  -0.04505  0  3.95243  0  0  -0.065047  -0.052616  0  3.923957  0
C  C23  1  0.57806591  0.18651443  0.78346668  1  0  -0.018132  0  3.682752  0  0  -0.049881  0  3.935448  0  0  -0.045096  0  3.952426  0  0  -0.06506  -0.052656  0  3.923936  0
N  N24  1  0.36302596  0.25834547  0.34843838  1  0  -0.489829  0  3.094238  0  0  -0.429661  0  3.364045  0  0  -0.450669  0  3.376607  0  0  -0.35025  -0.415214  0  3.355009  0
N  N25  1  0.63697511  0.74165416  0.65156540  1  0  -0.489809  0  3.094263  0  0  -0.429649  0  3.364052  0  0  -0.450661  0  3.376627  0  0  -0.350278  -0.415202  0  3.355014  0
N  N26  1  0.72451727  0.43460992  0.49414373  1  0  -0.292487  0  3.069995  0  0  -0.24503  0  3.349427  0  0  -0.259038  0  3.366805  0  0  -0.244771  -0.235342  0  3.337312  0
N  N27  1  0.27548238  0.56538677  0.50585709  1  0  -0.292422  0  3.069918  0  0  -0.244972  0  3.349325  0  0  -0.258985  0  3.366714  0  0  -0.244739  -0.235287  0  3.337212  0
N  N28  1  0.69614949  0.26390867  0.39753415  1  0  -0.304608  0  3.103262  0  0  -0.246612  0  3.387061  0  0  -0.264189  0  3.405636  0  0  -0.239072  -0.234595  0  3.374067  0
N  N29  1  0.30384945  0.73608954  0.60246430  1  0  -0.304612  0  3.103205  0  0  -0.246618  0  3.387024  0  0  -0.264194  0  3.4056  0  0  -0.23909  -0.234599  0  3.374026  0
N  N30  1  0.14906438  0.78929489  0.90380714  1  0  -0.337022  0  3.288582  0  0  -0.258069  0  3.55804  0  0  -0.278799  0  3.578139  0  0  -0.336291  -0.243991  0  3.54393  0
N  N31  1  0.85093603  0.21070629  0.09619192  1  0  -0.337048  0  3.288631  0  0  -0.258092  0  3.558083  0  0  -0.278827  0  3.578196  0  0  -0.336276  -0.244015  0  3.543977  0
Cl  Cl32  1  0.09301494  0.17227815  0.69151713  1  0  -0.565513  0  1.000644  0  0  -0.498027  0  1.288504  0  0  -0.518428  0  1.269782  0  0  -0.293425  -0.483411  0  1.300966  0
Cl  Cl33  1  0.90698398  0.82772004  0.30848250  1  0  -0.565505  0  1.000617  0  0  -0.498032  0  1.288491  0  0  -0.518431  0  1.269764  0  0  -0.29343  -0.483416  0  1.300955  0
