# generated using pymatgen
data_NdCu2H16C17I2(NO4)2
_symmetry_space_group_name_H-M   'P 1'
_cell_length_a   8.06855522
_cell_length_b   8.14152584
_cell_length_c   18.76926163
_cell_angle_alpha   86.73846831
_cell_angle_beta   86.08645363
_cell_angle_gamma   79.64075483
_symmetry_Int_Tables_number   1
_chemical_formula_structural   NdCu2H16C17I2(NO4)2
_chemical_formula_sum   'Nd2 Cu4 H32 C34 I4 N4 O16'
_cell_volume   1208.78217069
_cell_formula_units_Z   2
loop_
 _symmetry_equiv_pos_site_id
 _symmetry_equiv_pos_as_xyz
  1  'x, y, z'
loop_
 _atom_site_type_symbol
 _atom_site_label
 _atom_site_symmetry_multiplicity
 _atom_site_fract_x
 _atom_site_fract_y
 _atom_site_fract_z
 _atom_site_occupancy
 _atom_site_hle17_bader_spin_density
 _atom_site_hle17_ddec_charge
 _atom_site_hle17_ddec_spin_density
 _atom_site_hle17_ddec_sum_bond_order
 _atom_site_hle17_magmom
 _atom_site_hse06_10hf_bader_spin_density
 _atom_site_hse06_10hf_ddec_charge
 _atom_site_hse06_10hf_ddec_spin_density
 _atom_site_hse06_10hf_ddec_sum_bond_order
 _atom_site_hse06_10hf_magmom
 _atom_site_hse06_bader_spin_density
 _atom_site_hse06_ddec_charge
 _atom_site_hse06_ddec_spin_density
 _atom_site_hse06_ddec_sum_bond_order
 _atom_site_hse06_magmom
 _atom_site_pbe_bader_spin_density
 _atom_site_pbe_cm5_charge
 _atom_site_pbe_ddec_charge
 _atom_site_pbe_ddec_spin_density
 _atom_site_pbe_ddec_sum_bond_order
 _atom_site_pbe_magmom
Nd  Nd0  1  0.71255624  0.30212129  0.00422731  1  0  2.279939  0  1.586469  0  0  2.111214  0  2.051453  0  0  2.212069  0  1.900185  0  0  1.468721  2.078011  0  2.085081  0
Nd  Nd1  1  0.28741990  0.69786899  0.99576849  1  0  2.279977  0  1.586483  0  0  2.111206  0  2.051525  0  0  2.212104  0  1.90021  0  0  1.468679  2.078005  0  2.085144  0
Cu  Cu2  1  0.40267754  0.39336642  0.52069244  1  0  0.223913  0  2.238515  0  0  0.148803  0  2.721838  0  0  0.162408  0  2.66432  0  0  0.235604  0.141915  0  2.75908  0
Cu  Cu3  1  0.59731652  0.60663637  0.47931040  1  0  0.223926  0  2.238418  0  0  0.14883  0  2.721714  0  0  0.162434  0  2.664219  0  0  0.235642  0.141945  0  2.758947  0
Cu  Cu4  1  0.12192225  0.58847657  0.48487274  1  0  0.223487  0  2.266395  0  0  0.147918  0  2.754118  0  0  0.16145  0  2.695431  0  0  0.235999  0.141037  0  2.792347  0
Cu  Cu5  1  0.87808896  0.41151870  0.51511956  1  0  0.223534  0  2.266272  0  0  0.147934  0  2.75401  0  0  0.161494  0  2.695333  0  0  0.236019  0.141062  0  2.792219  0
H  H6  1  0.35705884  0.72560288  0.15860309  1  0  0.083792  0  0.967046  0  0  0.090116  0  1.039158  0  0  0.092201  0  1.038267  0  0  0.11037  0.087815  0  1.041359  0
H  H7  1  0.64294267  0.27439114  0.84139013  1  0  0.083665  0  0.966874  0  0  0.090037  0  1.038971  0  0  0.092122  0  1.038078  0  0  0.110343  0.087736  0  1.041177  0
H  H8  1  0.14249599  0.00521847  0.83426050  1  0  0.133076  0  0.931372  0  0  0.145404  0  0.984331  0  0  0.149165  0  0.982845  0  0  0.119366  0.142725  0  0.985504  0
H  H9  1  0.85749235  0.99479432  0.16573588  1  0  0.133095  0  0.931465  0  0  0.145429  0  0.984408  0  0  0.14919  0  0.982922  0  0  0.119373  0.142739  0  0.985579  0
H  H10  1  0.43314904  0.39434911  0.24820538  1  0  0.122159  0  0.946124  0  0  0.134682  0  1.001685  0  0  0.138486  0  1.000505  0  0  0.107985  0.131847  0  1.002701  0
H  H11  1  0.56686597  0.60564616  0.75178892  1  0  0.122185  0  0.946249  0  0  0.134707  0  1.001808  0  0  0.138512  0  1.000627  0  0  0.107966  0.131869  0  1.002821  0
H  H12  1  0.04515193  0.10353603  0.06906363  1  0  0.449693  0  0.843974  0  0  0.418428  0  0.906713  0  0  0.430227  0  0.889685  0  0  0.300069  0.410261  0  0.918563  0
H  H13  1  0.95483321  0.89645300  0.93093402  1  0  0.449681  0  0.843998  0  0  0.418493  0  0.906629  0  0  0.430281  0  0.889612  0  0  0.30011  0.410326  0  0.91848  0
H  H14  1  0.07646702  0.28548068  0.04005283  1  0  0.438036  0  0.836496  0  0  0.414968  0  0.89163  0  0  0.425338  0  0.876443  0  0  0.31474  0.407664  0  0.902458  0
H  H15  1  0.92351944  0.71450086  0.95994444  1  0  0.43809  0  0.836476  0  0  0.415042  0  0.891533  0  0  0.42541  0  0.876349  0  0  0.314752  0.407739  0  0.902355  0
H  H16  1  0.89741969  0.57704705  0.06502619  1  0  0.443218  0  0.855989  0  0  0.414574  0  0.915442  0  0  0.425527  0  0.899719  0  0  0.304735  0.407015  0  0.926362  0
H  H17  1  0.10256271  0.42295074  0.93497346  1  0  0.443148  0  0.856048  0  0  0.414429  0  0.915602  0  0  0.425423  0  0.899836  0  0  0.304674  0.406854  0  0.926538  0
H  H18  1  0.70742639  0.65531780  0.04412874  1  0  0.434386  0  0.87222  0  0  0.402833  0  0.936953  0  0  0.414257  0  0.920627  0  0  0.300391  0.394731  0  0.94866  0
H  H19  1  0.29255299  0.34466874  0.95586971  1  0  0.434294  0  0.87236  0  0  0.402751  0  0.937084  0  0  0.414176  0  0.920758  0  0  0.300369  0.394651  0  0.948791  0
H  H20  1  0.57663506  0.85294723  0.66724335  1  0  0.09349  0  0.976276  0  0  0.102957  0  1.039483  0  0  0.106072  0  1.038427  0  0  0.089583  0.100601  0  1.040506  0
H  H21  1  0.42335019  0.14705682  0.33276296  1  0  0.093584  0  0.976197  0  0  0.103052  0  1.039393  0  0  0.106169  0  1.038335  0  0  0.089638  0.100695  0  1.040427  0
H  H22  1  0.58360987  0.05545988  0.56354284  1  0  0.076467  0  0.959771  0  0  0.080956  0  1.03476  0  0  0.084073  0  1.031755  0  0  0.096105  0.078344  0  1.037387  0
H  H23  1  0.41636585  0.94453417  0.43646034  1  0  0.076406  0  0.959863  0  0  0.080891  0  1.034874  0  0  0.084009  0  1.031871  0  0  0.09604  0.078281  0  1.037504  0
H  H24  1  0.98682846  0.93052521  0.42669415  1  0  0.078116  0  0.955301  0  0  0.081991  0  1.029942  0  0  0.085438  0  1.02646  0  0  0.097323  0.079158  0  1.032858  0
H  H25  1  0.01318767  0.06947132  0.57330327  1  0  0.078109  0  0.955349  0  0  0.081993  0  1.029934  0  0  0.085462  0  1.026407  0  0  0.097327  0.079143  0  1.032892  0
H  H26  1  0.38644974  0.93564052  0.77597468  1  0  0.1147  0  0.953891  0  0  0.124285  0  1.014776  0  0  0.128262  0  1.010792  0  0  0.108199  0.121446  0  1.017661  0
H  H27  1  0.61355661  0.06437853  0.22403582  1  0  0.114552  0  0.954048  0  0  0.12418  0  1.014896  0  0  0.128124  0  1.010958  0  0  0.108139  0.121342  0  1.017778  0
H  H28  1  0.24174739  0.41938929  0.66711912  1  0  0.076059  0  0.957294  0  0  0.08068  0  1.030916  0  0  0.084384  0  1.027184  0  0  0.101717  0.077801  0  1.033804  0
H  H29  1  0.75826781  0.58062851  0.33288897  1  0  0.076145  0  0.957152  0  0  0.080745  0  1.030813  0  0  0.084466  0  1.027059  0  0  0.101746  0.077871  0  1.033703  0
H  H30  1  0.29655952  0.51421594  0.34542184  1  0  0.07136  0  0.974435  0  0  0.074108  0  1.053358  0  0  0.077778  0  1.048997  0  0  0.098514  0.071141  0  1.056885  0
H  H31  1  0.70345119  0.48578183  0.65456882  1  0  0.071302  0  0.974514  0  0  0.07415  0  1.053309  0  0  0.07782  0  1.04895  0  0  0.098559  0.07118  0  1.056826  0
H  H32  1  0.12864246  0.37797780  0.78959474  1  0  0.102627  0  0.918447  0  0  0.116973  0  0.971192  0  0  0.120255  0  0.968511  0  0  0.113501  0.114508  0  0.973219  0
H  H33  1  0.87137387  0.62204876  0.21041947  1  0  0.102687  0  0.918468  0  0  0.117053  0  0.971188  0  0  0.120292  0  0.968562  0  0  0.113494  0.114586  0  0.973216  0
H  H34  1  0.02321973  0.10214676  0.31404887  1  0  0.107679  0  0.940252  0  0  0.118606  0  0.995421  0  0  0.122296  0  0.994164  0  0  0.102982  0.115816  0  0.996622  0
H  H35  1  0.97680090  0.89785977  0.68595027  1  0  0.107695  0  0.940283  0  0  0.118571  0  0.995488  0  0  0.122259  0  0.994234  0  0  0.10301  0.115802  0  0.996666  0
H  H36  1  0.20290590  0.96595482  0.21059892  1  0  0.105303  0  0.931885  0  0  0.119114  0  0.983836  0  0  0.122581  0  0.980874  0  0  0.111325  0.116631  0  0.985903  0
H  H37  1  0.79712234  0.03405796  0.78940085  1  0  0.10517  0  0.931848  0  0  0.118987  0  0.983819  0  0  0.122454  0  0.980855  0  0  0.111227  0.11651  0  0.985892  0
C  C38  1  0.26223262  0.72759305  0.26854210  1  0  0.020797  0  3.803044  0  0  0.045182  0  4.034869  0  0  0.038056  0  4.061162  0  0  -0.011181  0.049685  0  4.017017  0
C  C39  1  0.73778524  0.27240723  0.73145250  1  0  0.020612  0  3.80305  0  0  0.045022  0  4.034916  0  0  0.037886  0  4.061228  0  0  -0.011215  0.049535  0  4.017044  0
C  C40  1  0.35165198  0.64454272  0.20684103  1  0  -0.007337  0  3.719469  0  0  -0.037545  0  3.976083  0  0  -0.031679  0  3.996127  0  0  -0.059898  -0.041345  0  3.962918  0
C  C41  1  0.64835940  0.35545880  0.79315217  1  0  -0.007015  0  3.718844  0  0  -0.037255  0  3.975433  0  0  -0.031386  0  3.995481  0  0  -0.059844  -0.041055  0  3.962257  0
C  C42  1  0.10757347  0.14062127  0.83619147  1  0  -0.225345  0  3.673356  0  0  -0.240409  0  3.935104  0  0  -0.252443  0  3.950868  0  0  -0.093229  -0.232348  0  3.924073  0
C  C43  1  0.89242081  0.85939402  0.16380997  1  0  -0.225335  0  3.673429  0  0  -0.240395  0  3.935158  0  0  -0.252424  0  3.950901  0  0  -0.093241  -0.232313  0  3.924106  0
C  C44  1  0.97064428  0.20190394  0.88843146  1  0  0.681875  0  3.925058  0  0  0.634349  0  4.219942  0  0  0.669115  0  4.215849  0  0  0.196337  0.610236  0  4.225625  0
C  C45  1  0.02934108  0.79809886  0.11157168  1  0  0.681963  0  3.925466  0  0  0.63441  0  4.220376  0  0  0.669178  0  4.216286  0  0  0.196325  0.610299  0  4.226047  0
C  C46  1  0.42325134  0.48222791  0.20193857  1  0  -0.235915  0  3.637243  0  0  -0.245895  0  3.882057  0  0  -0.25941  0  3.898303  0  0  -0.093921  -0.236943  0  3.870771  0
C  C47  1  0.57676092  0.51777612  0.79805719  1  0  -0.23603  0  3.637134  0  0  -0.246043  0  3.882017  0  0  -0.259559  0  3.898261  0  0  -0.093882  -0.237084  0  3.870716  0
C  C48  1  0.50051958  0.41448593  0.13394458  1  0  0.71991  0  3.899494  0  0  0.681447  0  4.17927  0  0  0.717282  0  4.174547  0  0  0.209785  0.656817  0  4.185847  0
C  C49  1  0.49947713  0.58550060  0.86605113  1  0  0.719745  0  3.899278  0  0  0.681277  0  4.179068  0  0  0.717108  0  4.174365  0  0  0.209679  0.656648  0  4.185626  0
C  C50  1  0.49760958  0.97610079  0.67004953  1  0  -0.110626  0  3.780148  0  0  -0.119202  0  4.026464  0  0  -0.12657  0  4.048764  0  0  -0.093578  -0.114784  0  4.012231  0
C  C51  1  0.50238292  0.02390451  0.32995703  1  0  -0.110644  0  3.779855  0  0  -0.119201  0  4.02621  0  0  -0.126567  0  4.048499  0  0  -0.093607  -0.114785  0  4.011992  0
C  C52  1  0.50333309  0.08896248  0.61160283  1  0  0.133859  0  3.650703  0  0  0.100568  0  3.901678  0  0  0.108129  0  3.918459  0  0  0.038762  0.095147  0  3.891553  0
C  C53  1  0.49665399  0.91103782  0.38840138  1  0  0.133737  0  3.650834  0  0  0.100434  0  3.901854  0  0  0.107989  0  3.918648  0  0  0.038666  0.095012  0  3.891741  0
C  C54  1  0.06598564  0.87804278  0.38109338  1  0  0.132129  0  3.65798  0  0  0.099665  0  3.909988  0  0  0.107562  0  3.926431  0  0  0.039978  0.094127  0  3.899984  0
C  C55  1  0.93402375  0.12195625  0.61890156  1  0  0.132013  0  3.658284  0  0  0.099561  0  3.910229  0  0  0.107457  0  3.926689  0  0  0.039925  0.094018  0  3.900219  0
C  C56  1  0.39270714  0.02281049  0.72986373  1  0  -0.056918  0  3.658822  0  0  -0.081861  0  3.901246  0  0  -0.078024  0  3.91759  0  0  -0.06827  -0.084334  0  3.890285  0
C  C57  1  0.60730444  0.97719981  0.27014521  1  0  -0.056912  0  3.658511  0  0  -0.081863  0  3.900987  0  0  -0.078001  0  3.917348  0  0  -0.068278  -0.084332  0  3.890028  0
C  C58  1  0.31263908  0.29168116  0.66959858  1  0  0.079811  0  3.644999  0  0  0.04414  0  3.890154  0  0  0.049513  0  3.908268  0  0  0.044251  0.040442  0  3.878749  0
C  C59  1  0.68737431  0.70833289  0.33041020  1  0  0.079609  0  3.644814  0  0  0.043948  0  3.890117  0  0  0.049356  0  3.908146  0  0  0.04416  0.040245  0  3.878731  0
C  C60  1  0.29577050  0.18500739  0.72995888  1  0  0.030308  0  3.821638  0  0  0.053376  0  4.057276  0  0  0.046947  0  4.084115  0  0  -0.008922  0.057516  0  4.039175  0
C  C61  1  0.70424933  0.81501291  0.27005218  1  0  0.030714  0  3.821465  0  0  0.053692  0  4.057224  0  0  0.047243  0  4.084094  0  0  -0.008637  0.057828  0  4.039141  0
C  C62  1  0.23820775  0.64438044  0.33497278  1  0  0.097315  0  3.627984  0  0  0.06336  0  3.869205  0  0  0.07059  0  3.88559  0  0  0.048964  0.058508  0  3.858844  0
C  C63  1  0.76179953  0.35561608  0.66502017  1  0  0.097293  0  3.628356  0  0  0.063236  0  3.869632  0  0  0.070468  0  3.886027  0  0  0.04883  0.058389  0  3.859248  0
C  C64  1  0.17490294  0.24325363  0.78810876  1  0  -0.015324  0  3.698618  0  0  -0.044102  0  3.949802  0  0  -0.03868  0  3.967679  0  0  -0.062166  -0.047564  0  3.937531  0
C  C65  1  0.82510693  0.75676667  0.21190212  1  0  -0.01556  0  3.69874  0  0  -0.044336  0  3.949953  0  0  -0.038885  0  3.967856  0  0  -0.062277  -0.047801  0  3.93768  0
C  C66  1  0.08598769  0.97208773  0.31789533  1  0  -0.114688  0  3.759273  0  0  -0.125861  0  4.010406  0  0  -0.133658  0  4.032248  0  0  -0.087869  -0.121069  0  3.996297  0
C  C67  1  0.91403083  0.02791630  0.68210181  1  0  -0.114677  0  3.75942  0  0  -0.125775  0  4.010512  0  0  -0.133573  0  4.032356  0  0  -0.087845  -0.120996  0  3.996396  0
C  C68  1  0.18560453  0.89678187  0.26123483  1  0  -0.052718  0  3.700385  0  0  -0.077981  0  3.946275  0  0  -0.074306  0  3.965121  0  0  -0.066102  -0.080042  0  3.93318  0
C  C69  1  0.81441566  0.10321966  0.73876179  1  0  -0.052559  0  3.700121  0  0  -0.077839  0  3.945977  0  0  -0.074165  0  3.964829  0  0  -0.066026  -0.079915  0  3.932901  0
C  C70  1  0.43300607  0.05597482  0.97758082  1  0  0.567798  0  3.91518  0  0  0.525984  0  4.205444  0  0  0.555606  0  4.200991  0  0  0.230198  0.505679  0  4.211221  0
C  C71  1  0.56696336  0.94402546  0.02241603  1  0  0.568181  0  3.915436  0  0  0.526391  0  4.20562  0  0  0.556006  0  4.201174  0  0  0.230284  0.506085  0  4.211399  0
I  I72  1  0.16887033  0.27459546  0.45278784  1  0  -0.352049  0  1.790414  0  0  -0.302817  0  2.252739  0  0  -0.319436  0  2.209568  0  0  -0.168705  -0.290083  0  2.280837  0
I  I73  1  0.83114330  0.72540107  0.54720914  1  0  -0.35201  0  1.790294  0  0  -0.302823  0  2.252668  0  0  -0.319444  0  2.209503  0  0  -0.168697  -0.290092  0  2.280761  0
I  I74  1  0.33014855  0.69862466  0.56712391  1  0  -0.345186  0  1.732855  0  0  -0.293672  0  2.176552  0  0  -0.311069  0  2.135939  0  0  -0.175992  -0.280171  0  2.202672  0
I  I75  1  0.66985087  0.30137563  0.43287720  1  0  -0.345164  0  1.732796  0  0  -0.293633  0  2.176479  0  0  -0.311044  0  2.135886  0  0  -0.175981  -0.280136  0  2.2026  0
N  N76  1  0.41251578  0.24491034  0.61128042  1  0  -0.254821  0  3.372243  0  0  -0.177856  0  3.650934  0  0  -0.19248  0  3.663754  0  0  -0.357554  -0.169115  0  3.643123  0
N  N77  1  0.58748500  0.75508996  0.38872438  1  0  -0.25469  0  3.372064  0  0  -0.177713  0  3.650716  0  0  -0.192353  0  3.663565  0  0  -0.357482  -0.168971  0  3.642917  0
N  N78  1  0.14239789  0.71695478  0.38977034  1  0  -0.255485  0  3.364639  0  0  -0.180025  0  3.644194  0  0  -0.194584  0  3.65518  0  0  -0.355771  -0.171431  0  3.637744  0
N  N79  1  0.85760865  0.28303924  0.61022429  1  0  -0.255264  0  3.364813  0  0  -0.179796  0  3.644339  0  0  -0.194364  0  3.655344  0  0  -0.355689  -0.171205  0  3.637882  0
O  O80  1  0.30841878  0.99666767  0.96114417  1  0  -0.619613  0  2.050501  0  0  -0.573185  0  2.292266  0  0  -0.602153  0  2.284025  0  0  -0.344646  -0.55714  0  2.296436  0
O  O81  1  0.69154536  0.00328638  0.03885833  1  0  -0.619756  0  2.051013  0  0  -0.573276  0  2.292656  0  0  -0.60223  0  2.284421  0  0  -0.344693  -0.557227  0  2.29681  0
O  O82  1  0.46200326  0.20311824  0.96124080  1  0  -0.683684  0  2.120981  0  0  -0.625653  0  2.358809  0  0  -0.65656  0  2.347911  0  0  -0.358935  -0.608264  0  2.365021  0
O  O83  1  0.53798416  0.79685956  0.03876559  1  0  -0.683894  0  2.120745  0  0  -0.625854  0  2.358547  0  0  -0.656764  0  2.347643  0  0  -0.35894  -0.608462  0  2.364753  0
O  O84  1  0.87671520  0.09938531  0.91636671  1  0  -0.730884  0  2.014806  0  0  -0.670707  0  2.249431  0  0  -0.702525  0  2.237957  0  0  -0.368602  -0.65236  0  2.256555  0
O  O85  1  0.12328532  0.90060123  0.08363153  1  0  -0.730921  0  2.014997  0  0  -0.670648  0  2.249563  0  0  -0.702493  0  2.238128  0  0  -0.368569  -0.652297  0  2.25666  0
O  O86  1  0.93760272  0.35500811  0.90598471  1  0  -0.712499  0  2.00757  0  0  -0.651045  0  2.232721  0  0  -0.681875  0  2.22244  0  0  -0.361206  -0.633297  0  2.239026  0
O  O87  1  0.06237941  0.64499219  0.09402021  1  0  -0.712539  0  2.007576  0  0  -0.65111  0  2.232718  0  0  -0.681926  0  2.222424  0  0  -0.361167  -0.633377  0  2.239028  0
O  O88  1  0.61569657  0.28497605  0.13455409  1  0  -0.689853  0  1.911259  0  0  -0.641608  0  2.136345  0  0  -0.671523  0  2.123903  0  0  -0.371451  -0.624953  0  2.143649  0
O  O89  1  0.38429645  0.71501048  0.86544281  1  0  -0.689829  0  1.911113  0  0  -0.641545  0  2.136187  0  0  -0.671481  0  2.123761  0  0  -0.371439  -0.62489  0  2.143487  0
O  O90  1  0.45409646  0.48599448  0.07321741  1  0  -0.828862  0  2.088077  0  0  -0.765937  0  2.343494  0  0  -0.804211  0  2.330651  0  0  -0.440032  -0.747733  0  2.351024  0
O  O91  1  0.54589346  0.51398830  0.92677863  1  0  -0.828718  0  2.087968  0  0  -0.765824  0  2.343465  0  0  -0.804059  0  2.33056  0  0  -0.439976  -0.747648  0  2.351049  0
O  O92  1  0.98936335  0.22263361  0.05969491  1  0  -0.902703  0  1.791382  0  0  -0.851121  0  1.969092  0  0  -0.875976  0  1.930615  0  0  -0.638983  -0.838325  0  1.992237  0
O  O93  1  0.01062306  0.77735543  0.94030376  1  0  -0.902724  0  1.791415  0  0  -0.8512  0  1.968971  0  0  -0.876055  0  1.930516  0  0  -0.639021  -0.838428  0  1.992145  0
O  O94  1  0.80545500  0.56303605  0.03388075  1  0  -0.926906  0  1.843048  0  0  -0.870383  0  2.031328  0  0  -0.898109  0  1.995192  0  0  -0.638521  -0.855485  0  2.053679  0
O  O95  1  0.19453175  0.43695798  0.96611724  1  0  -0.926759  0  1.843158  0  0  -0.870136  0  2.031494  0  0  -0.897913  0  1.995274  0  0  -0.63843  -0.855222  0  2.053889  0
