# generated using pymatgen
data_ZnH24C30(NO2)2
_symmetry_space_group_name_H-M   'P 1'
_cell_length_a   9.36300388
_cell_length_b   9.81526033
_cell_length_c   14.49600000
_cell_angle_alpha   106.95441742
_cell_angle_beta   97.40548171
_cell_angle_gamma   102.00886955
_symmetry_Int_Tables_number   1
_chemical_formula_structural   ZnH24C30(NO2)2
_chemical_formula_sum   'Zn2 H48 C60 N4 O8'
_cell_volume   1220.54775519
_cell_formula_units_Z   2
loop_
 _symmetry_equiv_pos_site_id
 _symmetry_equiv_pos_as_xyz
  1  'x, y, z'
loop_
 _atom_site_type_symbol
 _atom_site_label
 _atom_site_symmetry_multiplicity
 _atom_site_fract_x
 _atom_site_fract_y
 _atom_site_fract_z
 _atom_site_occupancy
 _atom_site_hle17_bader_spin_density
 _atom_site_hle17_ddec_charge
 _atom_site_hle17_ddec_spin_density
 _atom_site_hle17_ddec_sum_bond_order
 _atom_site_hle17_magmom
 _atom_site_hse06_10hf_bader_spin_density
 _atom_site_hse06_10hf_ddec_charge
 _atom_site_hse06_10hf_ddec_spin_density
 _atom_site_hse06_10hf_ddec_sum_bond_order
 _atom_site_hse06_10hf_magmom
 _atom_site_hse06_bader_spin_density
 _atom_site_hse06_ddec_charge
 _atom_site_hse06_ddec_spin_density
 _atom_site_hse06_ddec_sum_bond_order
 _atom_site_hse06_magmom
 _atom_site_pbe_bader_charge
 _atom_site_pbe_bader_spin_density
 _atom_site_pbe_cm5_charge
 _atom_site_pbe_ddec_charge
 _atom_site_pbe_ddec_spin_density
 _atom_site_pbe_ddec_sum_bond_order
 _atom_site_pbe_magmom
Zn  Zn0  1  0.08272172  0.61367937  0.90973468  1  0  1.046395  0  1.800949  0  0  0.859209  0  2.257909  0  0  0.910451  0  2.201043  0  1.315884  0  0.694425  0.823122  0  2.296812  0
Zn  Zn1  1  0.91727953  0.38631981  0.09026581  1  0  1.046498  0  1.800909  0  0  0.859277  0  2.25788  0  0  0.910516  0  2.201014  0  1.315916  0  0.694445  0.82319  0  2.296787  0
H  H2  1  0.40966725  0.77928360  0.00525806  1  0  0.085791  0  0.944545  0  0  0.096312  0  1.005872  0  0  0.098376  0  1.004019  0  0.133601  0  0.117569  0.094506  0  1.007873  0
H  H3  1  0.59033077  0.22071558  0.99474148  1  0  0.085813  0  0.944494  0  0  0.096312  0  1.005848  0  0  0.098378  0  1.003991  0  0.133638  0  0.117578  0.094499  0  1.007858  0
H  H4  1  0.54922192  0.02322689  0.12948903  1  0  0.106365  0  0.979945  0  0  0.113764  0  1.045128  0  0  0.115941  0  1.04696  0  0.126835  0  0.103325  0.111701  0  1.045115  0
H  H5  1  0.45077639  0.97677339  0.87051213  1  0  0.106331  0  0.97998  0  0  0.113731  0  1.045162  0  0  0.115907  0  1.047  0  0.126856  0  0.103308  0.111667  0  1.045152  0
H  H6  1  0.12328687  0.12481629  0.14994802  1  0  0.122231  0  0.996849  0  0  0.129538  0  1.059144  0  0  0.133995  0  1.056804  0  0.168598  0  0.105419  0.126373  0  1.060994  0
H  H7  1  0.87671028  0.87517958  0.85005355  1  0  0.122173  0  0.996939  0  0  0.129485  0  1.05922  0  0  0.13394  0  1.056887  0  0.168428  0  0.105435  0.126322  0  1.06107  0
H  H8  1  0.00516533  0.87676201  0.02653238  1  0  0.076625  0  0.97254  0  0  0.08389  0  1.041293  0  0  0.086194  0  1.039408  0  0.097055  0  0.1129  0.081783  0  1.043699  0
H  H9  1  0.99483211  0.12323497  0.97346944  1  0  0.07662  0  0.972527  0  0  0.083878  0  1.041302  0  0  0.086182  0  1.039419  0  0.097102  0  0.112883  0.081773  0  1.043709  0
H  H10  1  0.55151945  0.25495548  0.24163407  1  0  0.110345  0  0.986209  0  0  0.119535  0  1.048389  0  0  0.123596  0  1.046091  0  0.124039  0  0.101399  0.117082  0  1.049687  0
H  H11  1  0.44847857  0.74504370  0.75836615  1  0  0.110446  0  0.986069  0  0  0.119571  0  1.048324  0  0  0.123634  0  1.04602  0  0.12401  0  0.101398  0.117108  0  1.049635  0
H  H12  1  0.24411839  0.32230388  0.25354873  1  0  0.101083  0  0.973858  0  0  0.110296  0  1.03755  0  0  0.113758  0  1.035509  0  0.07002  0  0.101025  0.108406  0  1.038336  0
H  H13  1  0.75587827  0.67769420  0.74645186  1  0  0.101038  0  0.973892  0  0  0.110293  0  1.037539  0  0  0.113756  0  1.035495  0  0.070051  0  0.101026  0.108403  0  1.038325  0
H  H14  1  0.66767159  0.45531900  0.34964872  1  0  0.105146  0  0.962668  0  0  0.115232  0  1.022794  0  0  0.11854  0  1.02082  0  0.118784  0  0.104501  0.112878  0  1.024236  0
H  H15  1  0.33232808  0.54468239  0.65035139  1  0  0.105139  0  0.962678  0  0  0.115226  0  1.022797  0  0  0.118531  0  1.020829  0  0.118775  0  0.104503  0.112873  0  1.024241  0
H  H16  1  0.78645485  0.69061715  0.48155867  1  0  0.082616  0  0.954038  0  0  0.097363  0  1.009672  0  0  0.09976  0  1.009035  0  0.011086  0  0.09937  0.095743  0  1.010124  0
H  H17  1  0.21354590  0.30938425  0.51843877  1  0  0.082582  0  0.954073  0  0  0.097335  0  1.009708  0  0  0.099734  0  1.00907  0  0.011109  0  0.09934  0.095713  0  1.010162  0
H  H18  1  0.35697108  0.78078111  0.49766923  1  0  0.082477  0  0.963447  0  0  0.094655  0  1.025201  0  0  0.097045  0  1.024542  0  0.049529  0  0.096352  0.092982  0  1.025622  0
H  H19  1  0.64302939  0.21921917  0.50233210  1  0  0.082447  0  0.963496  0  0  0.094598  0  1.025278  0  0  0.097005  0  1.024602  0  0.049534  0  0.096333  0.092948  0  1.025675  0
H  H20  1  0.23663064  0.54252654  0.36525009  1  0  0.097663  0  0.941547  0  0  0.110004  0  0.997198  0  0  0.112678  0  0.996814  0  0.09831  0  0.102499  0.108042  0  0.997945  0
H  H21  1  0.76336875  0.45747375  0.63474978  1  0  0.097681  0  0.941547  0  0  0.110028  0  0.997192  0  0  0.112702  0  0.996808  0  0.098324  0  0.102502  0.108063  0  0.997942  0
H  H22  1  0.56885393  0.94927010  0.61152036  1  0  0.089271  0  0.952947  0  0  0.102836  0  1.014042  0  0  0.105142  0  1.013021  0  0.089715  0  0.102369  0.101135  0  1.014967  0
H  H23  1  0.43114546  0.05073019  0.38847882  1  0  0.089284  0  0.952939  0  0  0.102844  0  1.014045  0  0  0.105149  0  1.013024  0  0.089731  0  0.10236  0.101144  0  1.01497  0
H  H24  1  0.86852491  0.93184248  0.54881006  1  0  0.083181  0  0.961302  0  0  0.095293  0  1.024934  0  0  0.098211  0  1.023427  0  0.057699  0  0.097241  0.093255  0  1.026076  0
H  H25  1  0.13147671  0.06816221  0.45118879  1  0  0.083136  0  0.96126  0  0  0.095238  0  1.024905  0  0  0.098156  0  1.023396  0  0.05807  0  0.097203  0.093189  0  1.026058  0
H  H26  1  0.06298627  0.16154617  0.61442365  1  0  0.09545  0  0.970094  0  0  0.104704  0  1.035772  0  0  0.10745  0  1.035815  0  0.083948  0  0.10016  0.102419  0  1.036649  0
H  H27  1  0.93701556  0.83845522  0.38557733  1  0  0.095495  0  0.970101  0  0  0.104759  0  1.035755  0  0  0.107513  0  1.035789  0  0.083917  0  0.100179  0.102476  0  1.036631  0
H  H28  1  0.16540892  0.41249101  0.73897023  1  0  0.088499  0  0.949089  0  0  0.095132  0  1.015924  0  0  0.097479  0  1.014133  0  0.138851  0  0.117459  0.093192  0  1.017676  0
H  H29  1  0.83459213  0.58751149  0.26102952  1  0  0.088468  0  0.94915  0  0  0.095106  0  1.015979  0  0  0.097453  0  1.014188  0  0.138825  0  0.117462  0.093178  0  1.017733  0
H  H30  1  0.78842452  0.37760601  0.86035319  1  0  0.079804  0  0.959224  0  0  0.088957  0  1.023189  0  0  0.090936  0  1.021639  0  0.111305  0  0.116439  0.087567  0  1.02406  0
H  H31  1  0.21157876  0.62240090  0.13964624  1  0  0.079777  0  0.959259  0  0  0.08895  0  1.023215  0  0  0.090929  0  1.021665  0  0.111291  0  0.116397  0.087559  0  1.024088  0
H  H32  1  0.66900604  0.12888428  0.74224717  1  0  0.099393  0  0.981663  0  0  0.109322  0  1.045427  0  0  0.11168  0  1.046278  0  0.110276  0  0.102741  0.107621  0  1.044887  0
H  H33  1  0.33099293  0.87112262  0.25775120  1  0  0.099378  0  0.981681  0  0  0.10931  0  1.045408  0  0  0.111685  0  1.046241  0  0.109857  0  0.102751  0.107595  0  1.044909  0
H  H34  1  0.29488213  0.97392172  0.60981706  1  0  0.076461  0  0.977732  0  0  0.086116  0  1.046075  0  0  0.088921  0  1.045044  0  0.038552  0  0.088635  0.084247  0  1.04673  0
H  H35  1  0.70511970  0.02607967  0.39018322  1  0  0.076444  0  0.977757  0  0  0.086104  0  1.04609  0  0  0.088908  0  1.045062  0  0.038561  0  0.088632  0.084235  0  1.046745  0
H  H36  1  0.46335505  0.22687766  0.67963336  1  0  0.076496  0  1.008485  0  0  0.085499  0  1.073824  0  0  0.086757  0  1.075978  0  0.077544  0  0.092243  0.084894  0  1.072078  0
H  H37  1  0.53664434  0.77312262  0.32036858  1  0  0.07655  0  1.008447  0  0  0.085521  0  1.07381  0  0  0.086779  0  1.075967  0  0.077497  0  0.092244  0.084918  0  1.072059  0
H  H38  1  0.47154715  0.38223859  0.85012563  1  0  0.098028  0  0.943883  0  0  0.112641  0  0.999843  0  0  0.115423  0  0.998866  0  0.087755  0  0.102082  0.110679  0  1.000615  0
H  H39  1  0.52845195  0.61776059  0.14987469  1  0  0.097997  0  0.943895  0  0  0.112608  0  0.999859  0  0  0.11539  0  0.998882  0  0.087776  0  0.102074  0.110646  0  1.00063  0
H  H40  1  0.14922257  0.02757167  0.88483435  1  0  0.099166  0  0.966522  0  0  0.111039  0  1.029715  0  0  0.113387  0  1.029755  0  0.062851  0  0.098922  0.109209  0  1.030038  0
H  H41  1  0.85077782  0.97242421  0.11516473  1  0  0.099204  0  0.966451  0  0  0.111065  0  1.029657  0  0  0.113413  0  1.029698  0  0.062861  0  0.098914  0.109241  0  1.029961  0
H  H42  1  0.98774924  0.83836370  0.68222355  1  0  0.103493  0  0.938024  0  0  0.117858  0  1.000007  0  0  0.119862  0  0.99935  0  0.034999  0  0.096615  0.116559  0  1.000451  0
H  H43  1  0.01225309  0.16163549  0.31777566  1  0  0.103502  0  0.937975  0  0  0.117838  0  0.999995  0  0  0.11984  0  0.99934  0  0.034959  0  0.096613  0.116541  0  1.000437  0
H  H44  1  0.13201348  0.77282268  0.62875587  1  0  0.101147  0  0.92408  0  0  0.117564  0  0.979511  0  0  0.120206  0  0.977637  0  0.028515  0  0.097446  0.115698  0  0.980975  0
H  H45  1  0.86799051  0.22717871  0.37124460  1  0  0.101139  0  0.92403  0  0  0.117567  0  0.979439  0  0  0.120209  0  0.977565  0  0.028535  0  0.097453  0.115703  0  0.980903  0
H  H46  1  0.43278281  0.37920607  0.01569539  1  0  0.116216  0  0.933654  0  0  0.12989  0  0.99659  0  0  0.132725  0  0.99426  0  0.056612  0  0.10267  0.127539  0  0.999102  0
H  H47  1  0.56721815  0.62079201  0.98430555  1  0  0.116205  0  0.933664  0  0  0.129896  0  0.996597  0  0  0.132731  0  0.994268  0  0.056616  0  0.102687  0.127546  0  0.999114  0
H  H48  1  0.28704095  0.24103016  0.02863595  1  0  0.107016  0  0.966548  0  0  0.119733  0  1.029692  0  0  0.121481  0  1.03037  0  0.068089  0  0.096126  0.118946  0  1.028532  0
H  H49  1  0.71296167  0.75897013  0.97136625  1  0  0.106932  0  0.966618  0  0  0.119669  0  1.029765  0  0  0.121421  0  1.030439  0  0.068123  0  0.096086  0.118884  0  1.028607  0
C  C50  1  0.35175488  0.85972697  0.03968957  1  0  0.134658  0  3.70677  0  0  0.10364  0  3.956211  0  0  0.111894  0  3.974241  0  0.46701  0  0.047034  0.098507  0  3.944048  0
C  C51  1  0.64824422  0.14027222  0.96031075  1  0  0.134779  0  3.70681  0  0  0.103772  0  3.956258  0  0  0.112027  0  3.974286  0  0.467868  0  0.047088  0.098643  0  3.9441  0
C  C52  1  0.42813684  0.99536108  0.10885035  1  0  -0.176093  0  3.697516  0  0  -0.19183  0  3.942019  0  0  -0.200838  0  3.964057  0  -0.112506  0  -0.086985  -0.185428  0  3.92822  0
C  C53  1  0.57186060  0.00463590  0.89115008  1  0  -0.176137  0  3.697573  0  0  -0.191875  0  3.942089  0  0  -0.200885  0  3.964128  0  -0.11323  0  -0.086994  -0.185467  0  3.928299  0
C  C54  1  0.34919560  0.09597317  0.15254676  1  0  0.142168  0  3.802195  0  0  0.158412  0  4.029849  0  0  0.165502  0  4.051044  0  0.002764  0  0.008339  0.15306  0  4.015186  0
C  C55  1  0.65080185  0.90402381  0.84745505  1  0  0.14219  0  3.802195  0  0  0.158426  0  4.029852  0  0  0.165516  0  4.051049  0  0.002778  0  0.008328  0.15305  0  4.015223  0
C  C56  1  0.19267116  0.05230489  0.12120619  1  0  -0.181409  0  3.693593  0  0  -0.197139  0  3.939528  0  0  -0.206001  0  3.959401  0  -0.076105  0  -0.09005  -0.191138  0  3.926336  0
C  C57  1  0.80732628  0.94769208  0.87879631  1  0  -0.181344  0  3.693699  0  0  -0.19708  0  3.939658  0  0  -0.205939  0  3.959533  0  -0.076224  0  -0.090041  -0.191075  0  3.926478  0
C  C58  1  0.12554890  0.91532022  0.05183672  1  0  0.117956  0  3.734876  0  0  0.084723  0  3.990191  0  0  0.092045  0  4.009043  0  0.463659  0  0.034284  0.08014  0  3.978066  0
C  C59  1  0.87444855  0.08467676  0.94816440  1  0  0.117989  0  3.734982  0  0  0.084747  0  3.990295  0  0  0.092068  0  4.009148  0  0.46392  0  0.034298  0.080174  0  3.978147  0
C  C60  1  0.43029623  0.23655195  0.22588920  1  0  -0.121224  0  3.69425  0  0  -0.139191  0  3.94034  0  0  -0.145565  0  3.961895  0  -0.08348  0  -0.09046  -0.134467  0  3.925325  0
C  C61  1  0.56970150  0.76344613  0.77411147  1  0  -0.121277  0  3.694145  0  0  -0.139191  0  3.940245  0  0  -0.145565  0  3.961804  0  -0.083721  0  -0.09044  -0.134453  0  3.92524  0
C  C62  1  0.36533655  0.34139552  0.27217463  1  0  -0.087693  0  3.69738  0  0  -0.107499  0  3.944314  0  0  -0.108957  0  3.965931  0  -0.010143  0  -0.08043  -0.106453  0  3.929049  0
C  C63  1  0.63466147  0.65860366  0.72782491  1  0  -0.087664  0  3.697467  0  0  -0.107492  0  3.944377  0  0  -0.108975  0  3.965973  0  -0.010013  0  -0.08044  -0.106443  0  3.92911  0
C  C64  1  0.44249743  0.48119687  0.34753558  1  0  0.096718  0  3.797026  0  0  0.115684  0  4.02706  0  0  0.115968  0  4.052252  0  0.030738  0  -0.00333  0.115507  0  4.010189  0
C  C65  1  0.55750225  0.51880452  0.65246384  1  0  0.096698  0  3.796991  0  0  0.11564  0  4.027061  0  0  0.116009  0  4.05213  0  0.030808  0  -0.003339  0.115454  0  4.010203  0
C  C66  1  0.59902265  0.52643103  0.38180750  1  0  -0.097338  0  3.695311  0  0  -0.113315  0  3.936221  0  0  -0.116081  0  3.957604  0  -0.083737  0  -0.080051  -0.111111  0  3.921257  0
C  C67  1  0.40097674  0.47356926  0.61819167  1  0  -0.097323  0  3.695403  0  0  -0.11329  0  3.936305  0  0  -0.116082  0  3.95767  0  -0.08376  0  -0.080041  -0.111083  0  3.921344  0
C  C68  1  0.66588286  0.65979131  0.45536129  1  0  -0.10184  0  3.73517  0  0  -0.120671  0  3.980559  0  0  -0.123557  0  4.003069  0  0.030817  0  -0.08354  -0.118048  0  3.964895  0
C  C69  1  0.33411926  0.34021118  0.54463855  1  0  -0.1018  0  3.735288  0  0  -0.120633  0  3.980674  0  0  -0.123523  0  4.003193  0  0.030773  0  -0.083521  -0.11801  0  3.965007  0
C  C70  1  0.58081296  0.75529803  0.49836420  1  0  0.077256  0  3.831265  0  0  0.095819  0  4.064764  0  0  0.094734  0  4.090305  0  0.0296  0  -0.014409  0.09597  0  4.047624  0
C  C71  1  0.41918780  0.24470336  0.50163462  1  0  0.077275  0  3.831257  0  0  0.095818  0  4.064784  0  0  0.094733  0  4.09033  0  0.029914  0  -0.014393  0.095969  0  4.047651  0
C  C72  1  0.42483944  0.70893797  0.46530594  1  0  -0.109156  0  3.750052  0  0  -0.128071  0  3.99797  0  0  -0.130677  0  4.019709  0  -0.151089  0  -0.087697  -0.126087  0  3.983101  0
C  C73  1  0.57516131  0.29106342  0.53469357  1  0  -0.109088  0  3.75008  0  0  -0.127981  0  3.998009  0  0  -0.130604  0  4.019753  0  -0.151103  0  -0.087673  -0.126016  0  3.983137  0
C  C74  1  0.35743850  0.57583243  0.39101378  1  0  -0.111156  0  3.737665  0  0  -0.130372  0  3.985518  0  0  -0.133403  0  4.007119  0  -0.070486  0  -0.087239  -0.12871  0  3.971782  0
C  C75  1  0.64256089  0.42416786  0.60898539  1  0  -0.111195  0  3.737602  0  0  -0.130407  0  3.985448  0  0  -0.133467  0  4.007034  0  -0.070485  0  -0.08725  -0.128742  0  3.971724  0
C  C76  1  0.64685097  0.89914862  0.57195962  1  0  -0.077475  0  3.737025  0  0  -0.099242  0  3.988075  0  0  -0.09778  0  4.008449  0  -0.007557  0  -0.076034  -0.100018  0  3.974125  0
C  C77  1  0.35314763  0.10085277  0.42803833  1  0  -0.077549  0  3.737101  0  0  -0.099318  0  3.988163  0  0  -0.097857  0  4.008537  0  -0.007853  0  -0.076045  -0.100091  0  3.974204  0
C  C78  1  0.79137810  0.97703033  0.59185486  1  0  -0.140346  0  3.757551  0  0  -0.159078  0  4.010784  0  0  -0.164834  0  4.031323  0  -0.1325  0  -0.096406  -0.154797  0  3.996513  0
C  C79  1  0.20862186  0.02297216  0.40814204  1  0  -0.140287  0  3.757515  0  0  -0.158979  0  4.010725  0  0  -0.164738  0  4.031267  0  -0.132856  0  -0.096342  -0.154688  0  3.996452  0
C  C80  1  0.85372334  0.12255569  0.66464944  1  0  0.140803  0  3.818562  0  0  0.156556  0  4.046083  0  0  0.163129  0  4.068431  0  0.024857  0  0.0059  0.152168  0  4.031094  0
C  C81  1  0.14628014  0.87744791  0.33534866  1  0  0.140927  0  3.818338  0  0  0.156626  0  4.045929  0  0  0.163198  0  4.068282  0  0.024828  0  0.005891  0.152241  0  4.030931  0
C  C82  1  0.99633367  0.20626646  0.66622177  1  0  -0.177273  0  3.717187  0  0  -0.191992  0  3.959904  0  0  -0.201403  0  3.982544  0  -0.067653  0  -0.09006  -0.186241  0  3.945513  0
C  C83  1  0.00366679  0.79373383  0.33377957  1  0  -0.177476  0  3.717126  0  0  -0.192184  0  3.95987  0  0  -0.2016  0  3.982505  0  -0.06761  0  -0.090119  -0.186433  0  3.945485  0
C  C84  1  0.05519200  0.34548666  0.73571538  1  0  0.135205  0  3.705212  0  0  0.103645  0  3.953733  0  0  0.111599  0  3.972476  0  0.473964  0  0.046363  0.098509  0  3.941236  0
C  C85  1  0.94481148  0.65451693  0.26428479  1  0  0.135288  0  3.705401  0  0  0.103723  0  3.953941  0  0  0.111676  0  3.972688  0  0.474062  0  0.046375  0.09857  0  3.94146  0
C  C86  1  0.84417452  0.32669828  0.80332430  1  0  0.138146  0  3.702975  0  0  0.10528  0  3.955592  0  0  0.113301  0  3.97331  0  0.450533  0  0.045103  0.099879  0  3.944019  0
C  C87  1  0.15582789  0.67330532  0.19667440  1  0  0.13817  0  3.702885  0  0  0.105306  0  3.955486  0  0  0.113326  0  3.97321  0  0.450492  0  0.045178  0.09991  0  3.943906  0
C  C88  1  0.77804344  0.18725090  0.73654392  1  0  -0.164056  0  3.698391  0  0  -0.181794  0  3.943967  0  0  -0.190315  0  3.966306  0  -0.052197  0  -0.08603  -0.176267  0  3.929591  0
C  C89  1  0.22195437  0.81275159  0.26345418  1  0  -0.16408  0  3.698458  0  0  -0.181791  0  3.944065  0  0  -0.190328  0  3.966396  0  -0.05182  0  -0.086054  -0.176268  0  3.92968  0
C  C90  1  0.20815425  0.98384192  0.74197287  1  0  0.123784  0  3.755562  0  0  0.145923  0  3.992055  0  0  0.147316  0  4.016279  0  0.013276  0  -0.011397  0.14465  0  3.975763  0
C  C91  1  0.79184750  0.01615506  0.25802792  1  0  0.123675  0  3.755687  0  0  0.145879  0  3.992064  0  0  0.147273  0  4.016287  0  0.013283  0  -0.011419  0.144584  0  3.975804  0
C  C92  1  0.29898186  0.04101290  0.68537255  1  0  -0.151807  0  3.771475  0  0  -0.172842  0  4.021441  0  0  -0.17667  0  4.042374  0  -0.126332  0  -0.10514  -0.169548  0  4.007564  0
C  C93  1  0.70102047  0.95898629  0.31462872  1  0  -0.151694  0  3.771457  0  0  -0.172746  0  4.021391  0  0  -0.176573  0  4.042325  0  -0.126339  0  -0.105109  -0.169444  0  4.007517  0
C  C94  1  0.39338619  0.18348507  0.72429338  1  0  -0.073567  0  3.828567  0  0  -0.083718  0  4.079609  0  0  -0.083943  0  4.101498  0  -0.06198  0  -0.101433  -0.084412  0  4.065527  0
C  C95  1  0.60661076  0.81651412  0.27570883  1  0  -0.073713  0  3.82849  0  0  -0.083865  0  4.079573  0  0  -0.084092  0  4.101465  0  -0.061985  0  -0.101457  -0.084556  0  4.065483  0
C  C96  1  0.39865810  0.27062424  0.82018087  1  0  -0.125784  0  3.7307  0  0  -0.15052  0  3.98222  0  0  -0.153683  0  4.002623  0  -0.056453  0  -0.095575  -0.148255  0  3.968496  0
C  C97  1  0.60134100  0.72937495  0.17981945  1  0  -0.125689  0  3.730663  0  0  -0.150424  0  3.982154  0  0  -0.153589  0  4.002557  0  -0.056434  0  -0.095551  -0.148157  0  3.968429  0
C  C98  1  0.31080819  0.21538497  0.87906985  1  0  0.130153  0  3.749003  0  0  0.151968  0  3.986896  0  0  0.153371  0  4.010687  0  -0.021228  0  -0.006858  0.151407  0  3.970281  0
C  C99  1  0.68919278  0.78461312  0.12093178  1  0  0.130148  0  3.749025  0  0  0.151991  0  3.986892  0  0  0.153399  0  4.010681  0  -0.021278  0  -0.006888  0.151431  0  3.97028  0
C  C100  1  0.21626058  0.07233276  0.83904506  1  0  -0.180175  0  3.663508  0  0  -0.205675  0  3.904492  0  0  -0.209604  0  3.925505  0  -0.06593  0  -0.095237  -0.202121  0  3.889918  0
C  C101  1  0.78374088  0.92766312  0.16095549  1  0  -0.180164  0  3.663456  0  0  -0.205671  0  3.904377  0  0  -0.209603  0  3.92539  0  -0.065899  0  -0.09521  -0.202107  0  3.889813  0
C  C102  1  0.10339835  0.83057619  0.69831239  1  0  -0.299301  0  3.696  0  0  -0.342189  0  3.936298  0  0  -0.347014  0  3.942149  0  -0.010281  0  -0.163803  -0.338853  0  3.932383  0
C  C103  1  0.89660398  0.16942300  0.30168751  1  0  -0.299314  0  3.695857  0  0  -0.342175  0  3.936147  0  0  -0.347002  0  3.941999  0  -0.010236  0  -0.163799  -0.338836  0  3.932242  0
C  C104  1  0.11221819  0.73846479  0.76680295  1  0  0.68045  0  3.882401  0  0  0.637854  0  4.180068  0  0  0.670171  0  4.174305  0  1.579301  0  0.19611  0.615447  0  4.18369  0
C  C105  1  0.88778249  0.26153219  0.23319499  1  0  0.680511  0  3.882145  0  0  0.637838  0  4.179907  0  0  0.670158  0  4.174145  0  1.579306  0  0.196053  0.615431  0  4.183527  0
C  C106  1  0.31840060  0.30989261  0.98343007  1  0  -0.319083  0  3.680455  0  0  -0.362888  0  3.921096  0  0  -0.368506  0  3.926977  0  -0.035329  0  -0.164924  -0.359069  0  3.917046  0
C  C107  1  0.68160036  0.69010548  0.01657088  1  0  -0.318973  0  3.680429  0  0  -0.362853  0  3.921091  0  0  -0.368474  0  3.926978  0  -0.0353  0  -0.164898  -0.359048  0  3.917063  0
C  C108  1  0.21317561  0.41096482  0.98611749  1  0  0.724797  0  3.831531  0  0  0.678216  0  4.130141  0  0  0.7125  0  4.121139  0  1.581102  0  0.218608  0.655102  0  4.135084  0
C  C109  1  0.78682564  0.58903436  0.01388301  1  0  0.724783  0  3.831508  0  0  0.678223  0  4.130088  0  0  0.712509  0  4.121083  0  1.580428  0  0.218588  0.655113  0  4.135032  0
N  N110  1  0.20229203  0.81880450  0.01170655  1  0  -0.337407  0  3.305846  0  0  -0.254015  0  3.570999  0  0  -0.274205  0  3.587813  0  -1.250363  0  -0.330929  -0.240193  0  3.558403  0
N  N111  1  0.79770571  0.18119359  0.98829344  1  0  -0.337549  0  3.306117  0  0  -0.254134  0  3.571257  0  0  -0.274326  0  3.588072  0  -1.25055  0  -0.330982  -0.240313  0  3.558662  0
N  N112  1  0.98041344  0.40585696  0.80349292  1  0  -0.33186  0  3.289523  0  0  -0.249139  0  3.554019  0  0  -0.269142  0  3.570252  0  -1.254884  0  -0.326927  -0.236139  0  3.543375  0
N  N113  1  0.01958731  0.59414443  0.19650728  1  0  -0.331864  0  3.289441  0  0  -0.249174  0  3.553984  0  0  -0.269177  0  3.570218  0  -1.254852  0  -0.326954  -0.236175  0  3.543345  0
O  O114  1  0.22115231  0.68326301  0.77566136  1  0  -0.63738  0  1.913951  0  0  -0.585849  0  2.139671  0  0  -0.609618  0  2.130128  0  -1.195549  0  -0.326067  -0.569336  0  2.146119  0
O  O115  1  0.77884543  0.31673507  0.22433587  1  0  -0.637335  0  1.913737  0  0  -0.585814  0  2.13951  0  0  -0.609585  0  2.129965  0  -1.195521  0  -0.32599  -0.569309  0  2.145968  0
O  O116  1  0.00654786  0.72415240  0.81458037  1  0  -0.656624  0  2.032717  0  0  -0.590279  0  2.28582  0  0  -0.618818  0  2.275206  0  -1.182719  0  -0.325434  -0.570308  0  2.292143  0
O  O117  1  0.99345037  0.27584348  0.18541646  1  0  -0.656683  0  2.032672  0  0  -0.590302  0  2.285844  0  0  -0.618826  0  2.275196  0  -1.182765  0  -0.325456  -0.570329  0  2.292167  0
O  O118  1  0.09417739  0.37758175  0.01646189  1  0  -0.663833  0  2.091767  0  0  -0.597165  0  2.371349  0  0  -0.623649  0  2.355298  0  -1.213214  0  -0.325732  -0.578471  0  2.38165  0
O  O119  1  0.90582357  0.62241634  0.98353768  1  0  -0.663766  0  2.091721  0  0  -0.597147  0  2.371329  0  0  -0.623632  0  2.35528  0  -1.21299  0  -0.325722  -0.578439  0  2.381599  0
O  O120  1  0.25150768  0.51982014  0.95550137  1  0  -0.650599  0  2.018654  0  0  -0.589625  0  2.289112  0  0  -0.617261  0  2.275559  0  -1.186386  0  -0.319493  -0.570453  0  2.298063  0
O  O121  1  0.74849602  0.48018015  0.04450092  1  0  -0.650727  0  2.018787  0  0  -0.589676  0  2.28914  0  0  -0.617311  0  2.275587  0  -1.185972  0  -0.319481  -0.5705  0  2.298087  0
