# generated using pymatgen
data_CuH20C24N4O5
_symmetry_space_group_name_H-M   'P 1'
_cell_length_a   12.05103049
_cell_length_b   13.75142174
_cell_length_c   14.73439507
_cell_angle_alpha   90.00114287
_cell_angle_beta   100.73944234
_cell_angle_gamma   90.00044191
_symmetry_Int_Tables_number   1
_chemical_formula_structural   CuH20C24N4O5
_chemical_formula_sum   'Cu4 H80 C96 N16 O20'
_cell_volume   2398.99816361
_cell_formula_units_Z   4
loop_
 _symmetry_equiv_pos_site_id
 _symmetry_equiv_pos_as_xyz
  1  'x, y, z'
loop_
 _atom_site_type_symbol
 _atom_site_label
 _atom_site_symmetry_multiplicity
 _atom_site_fract_x
 _atom_site_fract_y
 _atom_site_fract_z
 _atom_site_occupancy
 _atom_site_pbe_bader_charge
 _atom_site_pbe_bader_spin_density
 _atom_site_pbe_cm5_charge
 _atom_site_pbe_ddec_charge
 _atom_site_pbe_ddec_spin_density
 _atom_site_pbe_ddec_sum_bond_order
 _atom_site_pbe_magmom
Cu  Cu0  1  0.41967993  0.40637384  0.21034841  1  1.061466  -0.586183  0.73845  0.793552  -0.757542  2.230409  -0.579
Cu  Cu1  1  0.08031046  0.90640241  0.28963298  1  1.061514  0.586139  0.738475  0.793771  0.757524  2.230224  0.579
Cu  Cu2  1  0.58036858  0.59360492  0.78966465  1  1.06159  0.586183  0.73851  0.793569  0.75753  2.230252  0.579
Cu  Cu3  1  0.91963947  0.09366434  0.71033933  1  1.061226  -0.5862  0.738501  0.793695  -0.757544  2.230062  -0.579
H  H4  1  0.74218693  0.52207726  0.05388383  1  0.526293  -0.000235  0.329884  0.306949  -0.00016  0.923641  0.0
H  H5  1  0.75780960  0.02206348  0.44611854  1  0.52788  0.000232  0.32987  0.306895  0.00016  0.923411  0.0
H  H6  1  0.25784420  0.47792986  0.94608914  1  0.522812  0.000239  0.329931  0.307011  0.00016  0.923707  0.0
H  H7  1  0.24219779  0.97793564  0.55394908  1  0.524527  -0.000237  0.32989  0.306978  -0.00016  0.923399  0.0
H  H8  1  0.27942507  0.67269310  0.39736198  1  0.50529  -0.000574  0.346428  0.30862  -0.000337  0.885679  0.0
H  H9  1  0.22055224  0.17272565  0.10263689  1  0.505875  0.000574  0.346482  0.308741  0.000337  0.88571  0.0
H  H10  1  0.72057600  0.32726166  0.60265849  1  0.505774  0.000574  0.346445  0.308703  0.000337  0.885801  0.0
H  H11  1  0.77944834  0.82729020  0.89734617  1  0.506049  -0.000573  0.346411  0.3087  -0.000337  0.885649  0.0
H  H12  1  0.60301573  0.10440563  0.27426233  1  0.07126  -6.2e-05  0.107338  0.131009  2.6e-05  0.962459  0.0
H  H13  1  0.89696835  0.60440317  0.22572834  1  0.071023  6.1e-05  0.107309  0.130973  -2.7e-05  0.962425  0.0
H  H14  1  0.39702107  0.89558477  0.72573733  1  0.071385  6.2e-05  0.107269  0.130843  -2.7e-05  0.962496  0.0
H  H15  1  0.10298313  0.39560758  0.77425915  1  0.071056  -6.4e-05  0.107305  0.130929  2.6e-05  0.962811  0.0
H  H16  1  0.57920142  0.12751623  0.15351131  1  0.057055  -0.000384  0.098183  0.115616  -0.000239  0.991514  0.0
H  H17  1  0.92078197  0.62753652  0.34649189  1  0.056912  0.000382  0.098233  0.115694  0.000238  0.991649  0.0
H  H18  1  0.42081505  0.87248217  0.84649124  1  0.05686  0.000382  0.098184  0.115624  0.000238  0.991492  0.0
H  H19  1  0.07921499  0.37249678  0.65351570  1  0.057129  -0.000383  0.098232  0.115638  -0.000238  0.991638  0.0
H  H20  1  0.76828545  0.21508965  0.29918045  1  0.074813  4.1e-05  0.098339  0.065227  1.6e-05  1.025114  0.0
H  H21  1  0.73172949  0.71514280  0.20081660  1  0.07463  -4.2e-05  0.098348  0.065243  -1.6e-05  1.025056  0.0
H  H22  1  0.23174959  0.78489638  0.70082640  1  0.074769  -4.2e-05  0.098342  0.065234  -1.6e-05  1.025054  0.0
H  H23  1  0.26826822  0.28494358  0.79920197  1  0.074232  4.2e-05  0.098427  0.065337  1.6e-05  1.025208  0.0
H  H24  1  0.78770561  0.11513214  0.22494589  1  0.058225  -0.000863  0.096803  0.064116  -0.000456  1.014313  -0.001
H  H25  1  0.71225680  0.61513336  0.27502493  1  0.046451  0.000869  0.096852  0.064197  0.000456  1.014197  0.001
H  H26  1  0.21231935  0.88486408  0.77505325  1  0.057985  0.000863  0.096835  0.064319  0.000456  1.014227  0.001
H  H27  1  0.28768378  0.38486140  0.72495268  1  0.057814  -0.000863  0.096805  0.064203  -0.000456  1.014415  -0.001
H  H28  1  0.80074463  0.36209913  0.03324347  1  0.077952  -0.000227  0.102608  0.116066  -0.000111  1.029916  0.0
H  H29  1  0.69922985  0.86216256  0.46674350  1  0.078216  0.000227  0.102519  0.115861  0.000111  1.030049  0.0
H  H30  1  0.19927602  0.63788690  0.96676381  1  0.077651  0.000227  0.102691  0.116072  0.000111  1.029914  0.0
H  H31  1  0.30074779  0.13792092  0.53325085  1  0.0779  -0.000226  0.102585  0.115958  -0.000111  1.030185  0.0
H  H32  1  0.99011816  0.42966239  0.02624070  1  0.089484  -4e-06  0.098731  0.10101  1e-05  1.02952  0.0
H  H33  1  0.50984877  0.92969005  0.47373482  1  0.089594  3e-06  0.098751  0.100987  -1e-05  1.029299  0.0
H  H34  1  0.00991459  0.57031637  0.97373931  1  0.089806  4e-06  0.098643  0.100897  -1e-05  1.029322  0.0
H  H35  1  0.49010348  0.07036724  0.52626161  1  0.09003  -4e-06  0.09866  0.100979  1e-05  1.029179  0.0
H  H36  1  0.12770230  0.28391094  0.28000663  1  0.105218  -0.000368  0.096862  0.100072  -0.00033  1.033068  0.0
H  H37  1  0.37229341  0.78384337  0.21997492  1  0.104963  0.000368  0.09691  0.100198  0.000332  1.033277  0.0
H  H38  1  0.87232666  0.71614200  0.72001690  1  0.105729  0.000367  0.096832  0.100166  0.00033  1.032831  0.0
H  H39  1  0.62766157  0.21614048  0.78000023  1  0.105694  -0.000366  0.096917  0.100139  -0.00033  1.032921  0.0
H  H40  1  0.94113392  0.21682832  0.28847038  1  0.075066  -2.8e-05  0.095053  0.09857  -2.4e-05  1.099841  0.0
H  H41  1  0.55889400  0.71682196  0.21149749  1  0.074705  2.8e-05  0.094981  0.098548  2.4e-05  1.099536  0.0
H  H42  1  0.05891109  0.78320644  0.71155502  1  0.075092  2.8e-05  0.094948  0.098382  2.4e-05  1.099802  0.0
H  H43  1  0.44106961  0.28318443  0.78846002  1  0.074733  -2.8e-05  0.094931  0.098416  -2.4e-05  1.09982  0.0
H  H44  1  0.67069351  0.38545391  0.14876571  1  0.217346  -0.00048  0.136908  0.095204  -0.000154  1.056488  0.0
H  H45  1  0.82930468  0.88543713  0.35124784  1  0.216603  0.000479  0.136883  0.095099  0.000154  1.05674  0.0
H  H46  1  0.32938805  0.61454375  0.85124105  1  0.217026  0.000481  0.136956  0.095063  0.000155  1.056634  0.0
H  H47  1  0.17063771  0.11453218  0.64880608  1  0.217763  -0.00048  0.137005  0.095243  -0.000155  1.056509  0.0
H  H48  1  0.32760211  0.59736306  0.11870003  1  0.069803  -0.000213  0.102721  0.112513  -9.1e-05  1.034924  0.0
H  H49  1  0.17238718  0.09736509  0.38127985  1  0.069568  0.000213  0.102662  0.112459  9.1e-05  1.034438  0.0
H  H50  1  0.67242308  0.40256479  0.88127471  1  0.069906  0.000214  0.102755  0.112343  9.1e-05  1.034685  0.0
H  H51  1  0.82757441  0.90258385  0.61871196  1  0.069995  -0.000214  0.102757  0.112482  -9.1e-05  1.035026  0.0
H  H52  1  0.32834421  0.76036446  0.04240830  1  0.052151  2.7e-05  0.099103  0.095963  1e-05  1.031288  0.0
H  H53  1  0.17163421  0.26036926  0.45758366  1  0.052361  -2.7e-05  0.099091  0.095865  -1e-05  1.031321  0.0
H  H54  1  0.67163012  0.23957358  0.95757806  1  0.051397  -2.7e-05  0.099043  0.095986  -1e-05  1.031206  0.0
H  H55  1  0.82835018  0.73958841  0.54241244  1  0.051684  2.7e-05  0.099054  0.09597  1e-05  1.031089  0.0
H  H56  1  0.49676548  0.81914912  0.98675106  1  0.056554  9.2e-05  0.098523  0.094451  7.4e-05  1.010622  0.0
H  H57  1  0.00322682  0.31916012  0.51324506  1  0.056452  -9.2e-05  0.098508  0.094417  -7.4e-05  1.010544  0.0
H  H58  1  0.50319542  0.18081727  0.01322367  1  0.056924  -9.2e-05  0.098613  0.09445  -7.4e-05  1.010405  0.0
H  H59  1  0.99678520  0.68082736  0.48678054  1  0.056457  9.2e-05  0.09859  0.094519  7.4e-05  1.01037  0.0
H  H60  1  0.66853577  0.71502879  0.99744797  1  0.079732  -0.000512  0.107136  0.1211  -0.000272  0.99353  0.0
H  H61  1  0.83145170  0.21504083  0.50255887  1  0.080329  0.000513  0.107098  0.121026  0.000273  0.993484  0.0
H  H62  1  0.33144637  0.28495434  0.00251791  1  0.078893  0.000513  0.107201  0.121098  0.000272  0.993501  0.0
H  H63  1  0.16855570  0.78494448  0.49750807  1  0.078699  -0.000514  0.107162  0.121043  -0.000273  0.993624  0.0
H  H64  1  0.23487762  0.55624973  0.26303151  1  0.143805  -0.000708  0.146992  0.11023  -0.000272  0.967181  0.0
H  H65  1  0.26512786  0.05629129  0.23697379  1  0.144418  0.000706  0.147045  0.110224  0.000271  0.967147  0.0
H  H66  1  0.76514206  0.44369558  0.73698919  1  0.144187  0.000707  0.146998  0.110146  0.000272  0.967162  0.0
H  H67  1  0.73488962  0.94375001  0.76301194  1  0.143832  -0.000707  0.146934  0.110169  -0.000272  0.967308  0.0
H  H68  1  0.64282747  0.46352345  0.35262115  1  0.118709  -0.000305  0.105295  0.126638  -0.000135  1.018621  0.0
H  H69  1  0.85716399  0.96354272  0.14739658  1  0.118351  0.000304  0.105293  0.126596  0.000134  1.01862  0.0
H  H70  1  0.35719624  0.53645749  0.64742123  1  0.118935  0.000305  0.105297  0.12674  0.000135  1.018648  0.0
H  H71  1  0.14283647  0.03649349  0.85259935  1  0.118005  -0.000305  0.105327  0.126729  -0.000135  1.01859  0.0
H  H72  1  0.76178790  0.54284941  0.49065730  1  0.048608  2.1e-05  0.095831  0.092636  7e-06  0.996546  0.0
H  H73  1  0.73820785  0.04283321  0.00936373  1  0.048455  -2.1e-05  0.095833  0.092652  -7e-06  0.996494  0.0
H  H74  1  0.23822481  0.45714607  0.50938537  1  0.04832  -2.1e-05  0.09592  0.092813  -7e-06  0.99641  0.0
H  H75  1  0.26180797  0.95718336  0.99061767  1  0.048284  2.1e-05  0.095873  0.092836  7e-06  0.996363  0.0
H  H76  1  0.67767301  0.65843494  0.58751630  1  0.07232  5.1e-05  0.10131  0.103984  2.9e-05  1.003482  0.0
H  H77  1  0.82230531  0.15840856  0.91249310  1  0.07265  -5.1e-05  0.101341  0.104078  -2.9e-05  1.003717  0.0
H  H78  1  0.32231438  0.34155691  0.41251964  1  0.072724  -5.1e-05  0.101439  0.104154  -2.9e-05  1.003667  0.0
H  H79  1  0.17772149  0.84160437  0.08749072  1  0.072645  5.2e-05  0.10139  0.104105  2.9e-05  1.00351  0.0
H  H80  1  0.47569048  0.70614641  0.54652799  1  0.09417  -0.000644  0.108132  0.131588  -0.000311  1.001862  0.0
H  H81  1  0.02428011  0.20615566  0.95347544  1  0.094135  0.000643  0.10809  0.131594  0.000311  1.002041  0.0
H  H82  1  0.52428858  0.29382726  0.45349374  1  0.094451  0.000644  0.108094  0.131633  0.000312  1.001812  0.0
H  H83  1  0.97574410  0.79386673  0.04651408  1  0.094407  -0.000644  0.108126  0.131668  -0.000312  1.001933  0.0
C  C84  1  0.54870732  0.25066216  0.23811614  1  1.563598  0.000741  0.189997  0.612729  -0.000656  4.171821  0.003
C  C85  1  0.95129788  0.75065458  0.26188169  1  1.56263  -0.000741  0.189966  0.612804  0.000653  4.171726  -0.003
C  C86  1  0.45132181  0.74932169  0.76188977  1  1.562455  -0.000741  0.190181  0.613341  0.000654  4.17093  -0.003
C  C87  1  0.04868562  0.24934309  0.73811835  1  1.5638  0.000738  0.18981  0.612596  -0.000656  4.172547  0.003
C  C88  1  0.61322476  0.15875638  0.22151397  1  -0.061762  -0.006623  -0.164998  -0.317734  -0.004905  3.923383  -0.005
C  C89  1  0.88675991  0.65875973  0.27848230  1  -0.061067  0.006616  -0.165003  -0.31782  0.004901  3.923397  0.005
C  C90  1  0.38680183  0.84123474  0.77849154  1  -0.061405  0.006622  -0.164844  -0.317498  0.004906  3.923092  0.005
C  C91  1  0.11320836  0.34125903  0.72151871  1  -0.061514  -0.006633  -0.165011  -0.317583  -0.004912  3.92341  -0.005
C  C92  1  0.73809204  0.18109125  0.23162765  1  0.398552  -0.002152  -0.070794  0.047193  -0.001436  3.878853  -0.002
C  C93  1  0.76188544  0.68109660  0.26835162  1  0.410488  0.002142  -0.070745  0.047249  0.001435  3.878392  0.002
C  C94  1  0.26194219  0.81890278  0.76837431  1  0.398983  0.002151  -0.071044  0.046741  0.001436  3.87931  0.002
C  C95  1  0.23807441  0.31891270  0.73164467  1  0.399325  -0.002152  -0.071023  0.046817  -0.001437  3.879352  -0.002
C  C96  1  0.85795979  0.28536742  0.16132729  1  0.43771  0.000553  0.085262  0.265542  0.000377  4.039671  0.0
C  C97  1  0.64202498  0.78539741  0.33863841  1  0.436833  -0.000554  0.085261  0.265326  -0.000377  4.039864  0.0
C  C98  1  0.14207446  0.71463098  0.83867332  1  0.437531  -0.000553  0.085279  0.265435  -0.000377  4.039786  0.0
C  C99  1  0.35792324  0.21464606  0.66133567  1  0.436713  0.000553  0.08528  0.265476  0.000377  4.039776  0.0
C  C100  1  0.87234727  0.34724920  0.08841611  1  -0.043948  -0.000853  -0.112118  -0.221263  -0.000559  4.007182  -0.001
C  C101  1  0.62762709  0.84727738  0.41156490  1  -0.044354  0.000852  -0.112147  -0.220966  0.000558  4.006559  0.001
C  C102  1  0.12768270  0.65274483  0.91158993  1  -0.04412  0.000853  -0.112111  -0.221084  0.000558  4.006774  0.001
C  C103  1  0.37234046  0.15277483  0.58842310  1  -0.043986  -0.000853  -0.11215  -0.221046  -0.000558  4.007522  -0.001
C  C104  1  0.97864772  0.38422941  0.08432858  1  -0.044594  -0.001285  -0.087857  -0.072243  -0.000876  4.009736  -0.001
C  C105  1  0.52132287  0.88424807  0.41564939  1  -0.043198  0.001284  -0.087836  -0.072224  0.000875  4.009334  0.001
C  C106  1  0.02138164  0.61575662  0.91565226  1  -0.044513  0.001285  -0.087912  -0.072285  0.000875  4.009856  0.001
C  C107  1  0.47863689  0.11579614  0.58435638  1  -0.043853  -0.001284  -0.087831  -0.072378  -0.000875  4.010274  -0.001
C  C108  1  0.07233351  0.36105645  0.15282167  1  -0.04141  -0.008202  -0.045722  -0.086354  -0.005818  4.031079  -0.006
C  C109  1  0.42763020  0.86104553  0.34715260  1  -0.05704  0.00819  -0.045608  -0.086362  0.005809  4.030228  0.006
C  C110  1  0.92770254  0.63893540  0.84716770  1  -0.041539  0.008201  -0.045693  -0.086238  0.005817  4.031202  0.006
C  C111  1  0.57231787  0.13895795  0.65283842  1  -0.042174  -0.008199  -0.045629  -0.086245  -0.005814  4.031517  -0.006
C  C112  1  0.05559773  0.30203330  0.22655294  1  0.003718  -2.8e-05  -0.092728  -0.067843  -9.1e-05  4.006409  0.0
C  C113  1  0.44439074  0.80198926  0.27341233  1  0.018729  2.8e-05  -0.092756  -0.067865  9.3e-05  4.006503  0.0
C  C114  1  0.94443393  0.69799782  0.77345337  1  0.002567  2.8e-05  -0.092866  -0.068215  9.1e-05  4.006545  0.0
C  C115  1  0.55556001  0.19799823  0.72656351  1  0.002432  -2.7e-05  -0.093016  -0.068192  -9.1e-05  4.006775  0.0
C  C116  1  0.95014396  0.26405605  0.23133754  1  -0.083612  -0.000172  -0.114996  -0.220578  -7e-05  4.015458  0.0
C  C117  1  0.54984888  0.76405574  0.26864257  1  -0.082667  0.000173  -0.115058  -0.220807  7.1e-05  4.016444  0.0
C  C118  1  0.04988841  0.73596780  0.76868314  1  -0.083062  0.000172  -0.114928  -0.22032  7e-05  4.015945  0.0
C  C119  1  0.45010783  0.23595938  0.73132878  1  -0.082489  -0.000172  -0.114861  -0.220356  -7e-05  4.016177  0.0
C  C120  1  0.18905666  0.39375488  0.14651013  1  1.531625  -0.000757  0.183704  0.547692  -0.002123  4.263904  0.001
C  C121  1  0.31090093  0.89371344  0.35343701  1  1.530735  0.000757  0.18404  0.547863  0.002117  4.264251  -0.001
C  C122  1  0.81098438  0.60624061  0.85348817  1  1.531913  0.000759  0.183864  0.547714  0.002125  4.264235  -0.001
C  C123  1  0.68903807  0.10627768  0.64652881  1  1.532059  -0.000754  0.183858  0.54788  -0.002123  4.26449  0.001
C  C124  1  0.62806781  0.45382296  0.12887458  1  0.971466  0.00128  0.163882  0.198943  0.000599  3.912973  0.001
C  C125  1  0.87192028  0.95381249  0.37112914  1  0.972226  -0.001276  0.163875  0.198862  -0.000596  3.912786  -0.001
C  C126  1  0.37199441  0.54616016  0.87112028  1  0.97068  -0.001278  0.163539  0.198403  -0.000599  3.913757  -0.001
C  C127  1  0.12802646  0.04615900  0.62891121  1  0.970575  0.001282  0.163629  0.198415  0.000602  3.914212  0.001
C  C128  1  0.50022863  0.56822265  0.10464286  1  0.354414  -0.00297  0.081345  0.132403  -0.002677  4.036015  -0.003
C  C129  1  0.99976512  0.06821836  0.39535313  1  0.354132  0.002969  0.081408  0.132443  0.002673  4.036067  0.003
C  C130  1  0.49980737  0.43175320  0.89535124  1  0.354146  0.002972  0.081378  0.132223  0.002678  4.036099  0.003
C  C131  1  0.00018881  0.93176403  0.60464425  1  0.353902  -0.002976  0.081428  0.132328  -0.002681  4.036062  -0.003
C  C132  1  0.40216380  0.62469569  0.09520884  1  0.004271  -0.000158  -0.095419  -0.166454  -5.6e-05  3.989391  0.0
C  C133  1  0.09781546  0.12470027  0.40479223  1  0.004398  0.000159  -0.095447  -0.166433  5.7e-05  3.989279  0.0
C  C134  1  0.59784516  0.37525471  0.90478301  1  0.003915  0.000158  -0.095429  -0.166114  5.6e-05  3.988938  0.0
C  C135  1  0.90214011  0.87527849  0.59521016  1  0.004079  -0.000157  -0.095387  -0.16642  -5.6e-05  3.990034  0.0
C  C136  1  0.40354608  0.71479719  0.05233321  1  0.015738  0.000313  -0.098952  -0.093695  0.000194  4.027286  0.0
C  C137  1  0.09643675  0.21479759  0.44767149  1  0.015925  -0.000313  -0.098917  -0.093653  -0.000194  4.027397  0.0
C  C138  1  0.59645771  0.28516485  0.94766868  1  0.015869  -0.000313  -0.098837  -0.093787  -0.000194  4.026845  0.0
C  C139  1  0.90352734  0.78518844  0.55232410  1  0.015512  0.000312  -0.098853  -0.093498  0.000194  4.026768  0.0
C  C140  1  0.49937853  0.74828968  0.01989981  1  -0.055602  -1e-05  -0.092389  -0.07036  2.9e-05  4.020176  0.0
C  C141  1  0.00061061  0.24829526  0.48010620  1  -0.055804  1.1e-05  -0.092439  -0.070281  -2.9e-05  4.020068  0.0
C  C142  1  0.50060926  0.25169126  0.98009479  1  -0.056021  9e-06  -0.092571  -0.070468  -3e-05  4.019967  0.0
C  C143  1  0.99938292  0.75170532  0.51990764  1  -0.055302  -9e-06  -0.092615  -0.070725  3e-05  4.020209  0.0
C  C144  1  0.59599308  0.69154240  0.02593432  1  0.023101  -0.000188  -0.09015  -0.159176  -0.000161  4.003665  0.0
C  C145  1  0.90399707  0.19154075  0.47406110  1  0.02342  0.000187  -0.090096  -0.15913  0.00016  4.003911  0.0
C  C146  1  0.40400917  0.30844436  0.97405172  1  0.024464  0.000188  -0.09022  -0.159193  0.000161  4.003933  0.0
C  C147  1  0.09598708  0.80844892  0.52596008  1  0.024436  -0.000189  -0.090094  -0.159009  -0.000162  4.004058  0.0
C  C148  1  0.59393301  0.60076748  0.06759754  1  0.337883  -0.003101  0.0944  0.14004  -0.00213  4.022362  -0.002
C  C149  1  0.90605008  0.10077516  0.43240387  1  0.336959  0.003103  0.094436  0.13995  0.002131  4.022527  0.002
C  C150  1  0.40608613  0.39921055  0.93239050  1  0.337492  0.003103  0.094636  0.140311  0.002132  4.022225  0.002
C  C151  1  0.09392984  0.89922178  0.56761799  1  0.338954  -0.003105  0.094562  0.14017  -0.002133  4.022323  -0.002
C  C152  1  0.31686743  0.56370267  0.30758966  1  1.038005  0.002841  0.168289  0.193539  0.001682  3.941636  0.002
C  C153  1  0.18314832  0.06372845  0.19241176  1  1.037378  -0.002846  0.168396  0.193695  -0.001683  3.941094  -0.002
C  C154  1  0.68315999  0.43626809  0.69241733  1  1.037477  -0.002848  0.168525  0.193675  -0.001683  3.941856  -0.002
C  C155  1  0.81686057  0.93631649  0.80758687  1  1.037369  0.00284  0.168381  0.193675  0.001683  3.941401  0.002
C  C156  1  0.49524838  0.54678199  0.36883155  1  0.339906  -0.003751  0.089419  0.1427  -0.003496  4.023131  -0.004
C  C157  1  0.00475532  0.04678935  0.13117086  1  0.338522  0.003749  0.089538  0.142984  0.003492  4.02277  0.004
C  C158  1  0.50478066  0.45320695  0.63118249  1  0.339638  0.003752  0.089681  0.143119  0.003496  4.022601  0.004
C  C159  1  0.99524002  0.95325632  0.86883037  1  0.346706  -0.003718  0.08957  0.142694  -0.003496  4.02296  -0.004
C  C160  1  0.60887193  0.51944598  0.39207847  1  0.009085  -0.000717  -0.094917  -0.165511  -0.000459  3.98081  -0.001
C  C161  1  0.89112784  0.01944948  0.10793531  1  0.010327  0.000718  -0.095023  -0.165625  0.000459  3.980689  0.001
C  C162  1  0.39114680  0.48054368  0.60795294  1  0.007436  0.000718  -0.095097  -0.165922  0.000459  3.980825  0.001
C  C163  1  0.10888367  0.98058891  0.89205491  1  0.009956  -0.000718  -0.095106  -0.165686  -0.000459  3.980905  -0.001
C  C164  1  0.67301225  0.56272012  0.47004814  1  -0.05379  0.000564  -0.100356  -0.091501  0.000367  4.042288  0.0
C  C165  1  0.82698382  0.06271039  0.02996390  1  -0.054992  -0.000565  -0.100276  -0.091431  -0.000368  4.04204  0.0
C  C166  1  0.32699035  0.43728046  0.52998886  1  -0.092755  -0.000564  -0.100354  -0.091478  -0.000368  4.041974  0.0
C  C167  1  0.17303122  0.93731200  0.97001127  1  -0.055548  0.000565  -0.100165  -0.09158  0.000368  4.042209  0.0
C  C168  1  0.62580445  0.62956993  0.52467293  1  0.038086  -0.000179  -0.095685  -0.083925  -0.00011  4.013444  0.0
C  C169  1  0.87417954  0.12956172  0.97532684  1  0.037896  0.000179  -0.095713  -0.083994  0.000111  4.013455  0.0
C  C170  1  0.37419241  0.37042483  0.47534551  1  0.077513  0.000178  -0.09591  -0.084349  0.000111  4.013232  0.0
C  C171  1  0.12583887  0.87046358  0.02465022  1  0.03858  -0.000179  -0.095729  -0.083987  -0.000111  4.013122  0.0
C  C172  1  0.51292781  0.65731465  0.50230935  1  -0.071603  -0.000382  -0.087265  -0.151278  -0.000312  3.968087  0.0
C  C173  1  0.98705988  0.15731672  0.99769070  1  -0.071572  0.000381  -0.087296  -0.151419  0.000311  3.968485  0.0
C  C174  1  0.48707073  0.34267138  0.49771004  1  -0.072249  0.000383  -0.087072  -0.151151  0.000312  3.968116  0.0
C  C175  1  0.01296437  0.84269767  0.00229340  1  -0.07099  -0.000383  -0.087317  -0.151423  -0.000312  3.967663  0.0
C  C176  1  0.44933657  0.61571958  0.42308833  1  0.367714  -0.004845  0.09869  0.150151  -0.003292  4.00006  -0.004
C  C177  1  0.05066379  0.11572769  0.07690600  1  0.368185  0.004844  0.098784  0.15014  0.003293  4.000079  0.004
C  C178  1  0.55067816  0.38426282  0.57691869  1  0.36868  0.004848  0.098488  0.149995  0.003295  3.999962  0.004
C  C179  1  0.94934091  0.88431288  0.92308857  1  0.366986  -0.004848  0.098654  0.15031  -0.003294  3.999883  -0.004
N  N180  1  0.52570362  0.47652198  0.14365183  1  -1.193093  -0.059305  -0.371594  -0.369596  -0.040483  3.577975  -0.05
N  N181  1  0.97429494  0.97651969  0.35634652  1  -1.192706  0.059311  -0.371524  -0.369487  0.040491  3.577707  0.05
N  N182  1  0.47435098  0.52345169  0.85634319  1  -1.192165  0.059297  -0.371482  -0.369042  0.040477  3.578181  0.05
N  N183  1  0.02565802  0.02346489  0.64366360  1  -1.192915  -0.059333  -0.371532  -0.369215  -0.0405  3.57818  -0.05
N  N184  1  0.67266491  0.52645137  0.08411198  1  -1.293456  -0.002461  -0.37609  -0.274433  -0.001508  3.607978  -0.002
N  N185  1  0.82733089  0.02644919  0.41588413  1  -1.295201  0.002465  -0.376121  -0.274201  0.001509  3.608026  0.002
N  N186  1  0.32736952  0.47354339  0.91587034  1  -1.28875  0.002456  -0.376195  -0.274352  0.001508  3.608131  0.002
N  N187  1  0.17263695  0.97354629  0.58416161  1  -1.291733  -0.002454  -0.376177  -0.274237  -0.001505  3.608675  -0.002
N  N188  1  0.40929591  0.51548133  0.29778519  1  -1.199933  -0.076729  -0.367112  -0.357218  -0.052234  3.585363  -0.065
N  N189  1  0.09070492  0.01549576  0.20221440  1  -1.199031  0.076723  -0.36734  -0.357625  0.05223  3.585489  0.065
N  N190  1  0.59072981  0.48449962  0.70222357  1  -1.199104  0.076773  -0.367444  -0.357656  0.052262  3.585981  0.065
N  N191  1  0.90928525  0.98455427  0.79779687  1  -1.206122  -0.076782  -0.367376  -0.357479  -0.052252  3.585642  -0.065
N  N192  1  0.33649964  0.62432029  0.38151704  1  -1.259878  -0.001125  -0.370086  -0.262996  -0.000628  3.620535  -0.001
N  N193  1  0.16349149  0.12433610  0.11848116  1  -1.260433  0.001123  -0.370253  -0.263128  0.000627  3.620817  0.001
N  N194  1  0.66351681  0.37565920  0.61848753  1  -1.260723  0.001124  -0.37002  -0.262812  0.000628  3.620592  0.001
N  N195  1  0.83651148  0.87569283  0.88151789  1  -1.25952  -0.001126  -0.369986  -0.263175  -0.00063  3.620434  -0.001
O  O196  1  0.45880694  0.27057540  0.17801673  1  -1.113168  -0.118261  -0.335825  -0.547574  -0.076997  2.266149  -0.104
O  O197  1  0.04121557  0.77058602  0.32197668  1  -1.112711  0.118256  -0.335874  -0.547768  0.076997  2.26567  0.104
O  O198  1  0.54124088  0.72941936  0.82197992  1  -1.112567  0.118223  -0.335934  -0.548008  0.076976  2.2659  0.104
O  O199  1  0.95880540  0.22944437  0.67799739  1  -1.113077  -0.118243  -0.335833  -0.547715  -0.076991  2.266712  -0.104
O  O200  1  0.58609530  0.30423164  0.30588460  1  -1.185132  -0.009928  -0.333467  -0.581207  -0.006091  2.129414  -0.009
O  O201  1  0.91391311  0.80422239  0.19410907  1  -1.184641  0.009905  -0.333453  -0.581171  0.006077  2.129351  0.009
O  O202  1  0.41391592  0.69574058  0.69413612  1  -1.184699  0.009908  -0.333557  -0.581451  0.006078  2.129186  0.009
O  O203  1  0.08605014  0.19579346  0.80588639  1  -1.185053  -0.009898  -0.333197  -0.580936  -0.006072  2.129982  -0.009
O  O204  1  0.75210828  0.24838703  0.15915371  1  -1.071624  7.8e-05  -0.176561  -0.203546  0.000122  2.541813  0.0
O  O205  1  0.74787100  0.74841963  0.34081017  1  -1.071437  -8e-05  -0.176497  -0.203357  -0.000123  2.541707  0.0
O  O206  1  0.24792861  0.75159464  0.84083714  1  -1.072202  -7.9e-05  -0.176243  -0.203225  -0.000122  2.542034  0.0
O  O207  1  0.25206459  0.25162313  0.65915851  1  -1.071909  7.9e-05  -0.176316  -0.203339  0.000122  2.541757  0.0
O  O208  1  0.20832916  0.44485251  0.08020573  1  -1.197199  -0.001531  -0.34587  -0.593668  -0.000576  2.126361  -0.001
O  O209  1  0.29156820  0.94478561  0.41973401  1  -1.196336  0.00154  -0.346112  -0.593823  0.000582  2.127178  0.001
O  O210  1  0.79171430  0.55517934  0.91980516  1  -1.196776  0.001532  -0.345913  -0.593565  0.000577  2.126759  0.001
O  O211  1  0.70831513  0.05519606  0.58021620  1  -1.196655  -0.001533  -0.346095  -0.593918  -0.000577  2.126844  -0.001
O  O212  1  0.26616201  0.36366326  0.21481146  1  -1.120193  -0.105231  -0.344703  -0.557865  -0.067952  2.356529  -0.094
O  O213  1  0.23381073  0.86364619  0.28510516  1  -1.120771  0.105335  -0.344889  -0.558011  0.068016  2.35554  0.094
O  O214  1  0.73387837  0.63629805  0.78516705  1  -1.120409  0.105252  -0.344771  -0.557967  0.067961  2.356577  0.094
O  O215  1  0.76613270  0.13635875  0.71483898  1  -1.12072  -0.1052  -0.344648  -0.557856  -0.067928  2.356601  -0.094
