# generated using pymatgen
data_H12Pb(C2O)8
_symmetry_space_group_name_H-M   'P 1'
_cell_length_a   8.77230975
_cell_length_b   8.54546671
_cell_length_c   12.16696317
_cell_angle_alpha   70.42983972
_cell_angle_beta   85.95435388
_cell_angle_gamma   73.31624961
_symmetry_Int_Tables_number   1
_chemical_formula_structural   H12Pb(C2O)8
_chemical_formula_sum   'H24 Pb2 C32 O16'
_cell_volume   822.88062244
_cell_formula_units_Z   2
loop_
 _symmetry_equiv_pos_site_id
 _symmetry_equiv_pos_as_xyz
  1  'x, y, z'
loop_
 _atom_site_type_symbol
 _atom_site_label
 _atom_site_symmetry_multiplicity
 _atom_site_fract_x
 _atom_site_fract_y
 _atom_site_fract_z
 _atom_site_occupancy
 _atom_site_hle17_bader_spin_density
 _atom_site_hle17_ddec_charge
 _atom_site_hle17_ddec_spin_density
 _atom_site_hle17_ddec_sum_bond_order
 _atom_site_hle17_magmom
 _atom_site_hse06_10hf_bader_spin_density
 _atom_site_hse06_10hf_ddec_charge
 _atom_site_hse06_10hf_ddec_spin_density
 _atom_site_hse06_10hf_ddec_sum_bond_order
 _atom_site_hse06_10hf_magmom
 _atom_site_hse06_bader_spin_density
 _atom_site_hse06_ddec_charge
 _atom_site_hse06_ddec_spin_density
 _atom_site_hse06_ddec_sum_bond_order
 _atom_site_hse06_magmom
 _atom_site_pbe_bader_spin_density
 _atom_site_pbe_cm5_charge
 _atom_site_pbe_ddec_charge
 _atom_site_pbe_ddec_spin_density
 _atom_site_pbe_ddec_sum_bond_order
 _atom_site_pbe_magmom
H  H0  1  0.85708632  0.47487893  0.87952550  1  0  0.379121  0  0.855697  0  0  0.354655  0  0.932091  0  0  0.363535  0  0.922467  0  0  0.318387  0.348313  0  0.938965  0
H  H1  1  0.14291730  0.52511292  0.12048214  1  0  0.379141  0  0.855639  0  0  0.354674  0  0.932047  0  0  0.363553  0  0.922422  0  0  0.318333  0.348336  0  0.938914  0
H  H2  1  0.42477610  0.97570382  0.70401779  1  0  0.423387  0  0.863318  0  0  0.395314  0  0.932171  0  0  0.405005  0  0.918076  0  0  0.302591  0.388465  0  0.942135  0
H  H3  1  0.57523017  0.02429606  0.29598144  1  0  0.423518  0  0.863058  0  0  0.395382  0  0.932059  0  0  0.40509  0  0.917948  0  0  0.302605  0.388519  0  0.942033  0
H  H4  1  0.27829744  0.14460925  0.68339352  1  0  0.431765  0  0.83137  0  0  0.402218  0  0.905392  0  0  0.412061  0  0.894137  0  0  0.310505  0.39522  0  0.913366  0
H  H5  1  0.72170314  0.85537683  0.31660315  1  0  0.431624  0  0.831623  0  0  0.402088  0  0.905624  0  0  0.411932  0  0.894369  0  0  0.310426  0.395092  0  0.913595  0
H  H6  1  0.05434929  0.27610711  0.46172301  1  0  0.122855  0  0.940533  0  0  0.129942  0  1.007607  0  0  0.134235  0  1.003829  0  0  0.112748  0.126844  0  1.010333  0
H  H7  1  0.94565263  0.72390596  0.53826867  1  0  0.122939  0  0.94044  0  0  0.129963  0  1.007584  0  0  0.134257  0  1.003804  0  0  0.112701  0.12686  0  1.01032  0
H  H8  1  0.67178121  0.38419275  0.22077104  1  0  0.102782  0  0.953765  0  0  0.112328  0  1.016248  0  0  0.115947  0  1.013814  0  0  0.102402  0.10973  0  1.018037  0
H  H9  1  0.32821809  0.61582173  0.77921881  1  0  0.102783  0  0.953741  0  0  0.112227  0  1.01632  0  0  0.115841  0  1.013895  0  0  0.102365  0.109629  0  1.018107  0
H  H10  1  0.08012420  0.94194853  0.25943357  1  0  0.1145  0  0.949761  0  0  0.120772  0  1.015228  0  0  0.125499  0  1.010718  0  0  0.10763  0.117325  0  1.018538  0
H  H11  1  0.91986213  0.05805804  0.74056597  1  0  0.114531  0  0.949722  0  0  0.120797  0  1.015201  0  0  0.125523  0  1.010692  0  0  0.107628  0.117377  0  1.018475  0
H  H12  1  0.68722339  0.14314578  0.93524897  1  0  0.119551  0  0.940864  0  0  0.131076  0  0.996041  0  0  0.134837  0  0.994418  0  0  0.111512  0.128376  0  0.997378  0
H  H13  1  0.31279410  0.85684092  0.06475502  1  0  0.119469  0  0.940782  0  0  0.131003  0  0.995976  0  0  0.134781  0  0.994332  0  0  0.11148  0.128302  0  0.99731  0
H  H14  1  0.83997320  0.50206143  0.04033546  1  0  0.073019  0  0.99595  0  0  0.082717  0  1.064374  0  0  0.084771  0  1.063623  0  0  0.096002  0.081226  0  1.064902  0
H  H15  1  0.16002712  0.49792519  0.95967591  1  0  0.072966  0  0.995975  0  0  0.082697  0  1.064375  0  0  0.084734  0  1.063638  0  0  0.096008  0.081205  0  1.064897  0
H  H16  1  0.67921284  0.18129825  0.11628822  1  0  0.066473  0  0.937502  0  0  0.0787  0  1.004267  0  0  0.079086  0  1.003534  0  0  0.105715  0.078349  0  1.004894  0
H  H17  1  0.32077769  0.81870061  0.88371112  1  0  0.066508  0  0.93749  0  0  0.078686  0  1.0043  0  0  0.079072  0  1.003568  0  0  0.105719  0.078331  0  1.004923  0
H  H18  1  0.85729619  0.20397030  0.03929770  1  0  0.046133  0  0.945372  0  0  0.058383  0  1.017637  0  0  0.057993  0  1.017605  0  0  0.096336  0.058606  0  1.01769  0
H  H19  1  0.14269185  0.79602486  0.96070008  1  0  0.046081  0  0.945427  0  0  0.05831  0  1.017704  0  0  0.057919  0  1.017673  0  0  0.096321  0.058541  0  1.017756  0
H  H20  1  0.91067353  0.63492971  0.17473732  1  0  0.123285  0  0.954211  0  0  0.131241  0  1.016524  0  0  0.134997  0  1.015025  0  0  0.111003  0.128551  0  1.017754  0
H  H21  1  0.08932537  0.36506745  0.82526776  1  0  0.123266  0  0.954152  0  0  0.131171  0  1.016542  0  0  0.134926  0  1.015045  0  0  0.110975  0.128479  0  1.017766  0
H  H22  1  0.60742458  0.01357933  0.80583056  1  0  0.124949  0  0.960154  0  0  0.133086  0  1.019828  0  0  0.136711  0  1.016856  0  0  0.115711  0.130372  0  1.022135  0
H  H23  1  0.39259035  0.98641788  0.19416801  1  0  0.125109  0  0.960046  0  0  0.133198  0  1.019769  0  0  0.136846  0  1.016756  0  0  0.11576  0.130485  0  1.022087  0
Pb  Pb24  1  0.45091732  0.28060164  0.48662646  1  0  1.343973  0  1.369244  0  0  1.16757  0  1.751325  0  0  1.228795  0  1.706605  0  0  0.643126  1.123169  0  1.782862  0
Pb  Pb25  1  0.54907717  0.71939957  0.51337548  1  0  1.343923  0  1.369308  0  0  1.167501  0  1.751377  0  0  1.228735  0  1.70665  0  0  0.643084  1.12311  0  1.782889  0
C  C26  1  0.00370162  0.24346915  0.39583114  1  0  -0.067573  0  3.662311  0  0  -0.107385  0  3.913498  0  0  -0.104711  0  3.930991  0  0  -0.073104  -0.108818  0  3.901646  0
C  C27  1  0.99629718  0.75654256  0.60416343  1  0  -0.067626  0  3.662293  0  0  -0.107374  0  3.913482  0  0  -0.1047  0  3.930977  0  0  -0.073043  -0.108812  0  3.901638  0
C  C28  1  0.08221380  0.09597266  0.36655097  1  0  -0.063156  0  3.761153  0  0  -0.036428  0  3.998772  0  0  -0.046106  0  4.023408  0  0  -0.019227  -0.030281  0  3.982244  0
C  C29  1  0.91778189  0.90403764  0.63344734  1  0  -0.063155  0  3.761027  0  0  -0.036402  0  3.998625  0  0  -0.04608  0  4.023263  0  0  -0.019255  -0.030254  0  3.982092  0
C  C30  1  0.87323986  0.16513980  0.22317368  1  0  0.043694  0  3.766899  0  0  0.066737  0  4.011515  0  0  0.063985  0  4.035074  0  0  -0.023112  0.068326  0  3.995583  0
C  C31  1  0.12675678  0.83486670  0.77682375  1  0  0.043705  0  3.766857  0  0  0.0667  0  4.011505  0  0  0.063949  0  4.035061  0  0  -0.023145  0.06828  0  3.995591  0
C  C32  1  0.76331791  0.49319040  0.38416638  1  0  0.652194  0  3.909163  0  0  0.600608  0  4.200044  0  0  0.635392  0  4.194338  0  0  0.212837  0.576997  0  4.202966  0
C  C33  1  0.23668350  0.50682007  0.61582670  1  0  0.652178  0  3.909387  0  0  0.600642  0  4.200206  0  0  0.635427  0  4.194496  0  0  0.212804  0.577014  0  4.203145  0
C  C34  1  0.78930534  0.30526882  0.25867329  1  0  -0.128085  0  3.718152  0  0  -0.15913  0  3.966264  0  0  -0.159346  0  3.986183  0  0  -0.086633  -0.158579  0  3.952678  0
C  C35  1  0.21069314  0.69474431  0.74131853  1  0  -0.128106  0  3.718143  0  0  -0.159016  0  3.966278  0  0  -0.159227  0  3.986189  0  0  -0.086672  -0.15847  0  3.95269  0
C  C36  1  0.85467253  0.34524728  0.34415412  1  0  -0.053882  0  3.763043  0  0  -0.02886  0  4.001558  0  0  -0.036629  0  4.023791  0  0  -0.016715  -0.024022  0  3.986667  0
C  C37  1  0.14532760  0.65476849  0.65583542  1  0  -0.053838  0  3.763099  0  0  -0.028863  0  4.001599  0  0  -0.036629  0  4.023828  0  0  -0.016629  -0.024012  0  3.986697  0
C  C38  1  0.01681564  0.05745311  0.28043145  1  0  -0.093877  0  3.687435  0  0  -0.131401  0  3.938466  0  0  -0.129472  0  3.956326  0  0  -0.08248  -0.132371  0  3.926452  0
C  C39  1  0.98317809  0.94255580  0.71956971  1  0  -0.094077  0  3.687452  0  0  -0.131607  0  3.938546  0  0  -0.129677  0  3.95641  0  0  -0.082555  -0.13259  0  3.926502  0
C  C40  1  0.81124298  0.89575456  0.06126468  1  0  0.314821  0  3.774643  0  0  0.298304  0  4.038355  0  0  0.314205  0  4.051665  0  0  0.100876  0.287551  0  4.029211  0
C  C41  1  0.18875336  0.10422984  0.93874159  1  0  0.314512  0  3.774845  0  0  0.298207  0  4.038275  0  0  0.314103  0  4.051594  0  0  0.100747  0.28746  0  4.029115  0
C  C42  1  0.23753855  0.97783155  0.42541180  1  0  0.636417  0  3.92661  0  0  0.585903  0  4.215891  0  0  0.620203  0  4.212643  0  0  0.204756  0.562711  0  4.217058  0
C  C43  1  0.76245518  0.02217736  0.57458936  1  0  0.636369  0  3.92659  0  0  0.585835  0  4.215909  0  0  0.620133  0  4.21266  0  0  0.204642  0.56264  0  4.217069  0
C  C44  1  0.72155365  0.74863311  0.91056809  1  0  -0.145761  0  3.842642  0  0  -0.124787  0  4.082886  0  0  -0.13838  0  4.109691  0  0  -0.039593  -0.115924  0  4.064785  0
C  C45  1  0.27845664  0.25135498  0.08943593  1  0  -0.145664  0  3.842531  0  0  -0.124606  0  4.082728  0  0  -0.138197  0  4.109535  0  0  -0.039503  -0.115753  0  4.064647  0
C  C46  1  0.72150281  0.00287339  0.95887416  1  0  -0.192393  0  3.70158  0  0  -0.210326  0  3.954137  0  0  -0.219258  0  3.973274  0  0  -0.097178  -0.204486  0  3.941244  0
C  C47  1  0.27850213  0.99712256  0.04112761  1  0  -0.192244  0  3.701459  0  0  -0.21027  0  3.953984  0  0  -0.219213  0  3.973113  0  0  -0.097161  -0.204428  0  3.941083  0
C  C48  1  0.67344364  0.67505595  0.82947499  1  0  0.651861  0  3.797799  0  0  0.601367  0  4.097211  0  0  0.635426  0  4.08858  0  0  0.234908  0.578098  0  4.102752  0
C  C49  1  0.32658007  0.32492388  0.17053676  1  0  0.652213  0  3.798084  0  0  0.601559  0  4.097646  0  0  0.635612  0  4.089013  0  0  0.235088  0.57829  0  4.103214  0
C  C50  1  0.81008718  0.64274546  0.01436264  1  0  -0.074119  0  3.822533  0  0  -0.095224  0  4.068167  0  0  -0.092371  0  4.09047  0  0  -0.09473  -0.096755  0  4.052918  0
C  C51  1  0.18991229  0.35724006  0.98564572  1  0  -0.074208  0  3.822674  0  0  -0.095355  0  4.068299  0  0  -0.092492  0  4.090615  0  0  -0.094779  -0.096879  0  4.053042  0
C  C52  1  0.81023247  0.13521220  0.12241038  1  0  0.055899  0  3.645633  0  0  -0.011771  0  3.910232  0  0  -0.002582  0  3.915306  0  0  -0.059567  -0.017873  0  3.906559  0
C  C53  1  0.18976182  0.86478532  0.87758907  1  0  0.056003  0  3.645597  0  0  -0.011615  0  3.910194  0  0  -0.002427  0  3.91527  0  0  -0.059522  -0.017742  0  3.906547  0
C  C54  1  0.85326127  0.71451685  0.08972681  1  0  -0.197495  0  3.729431  0  0  -0.216664  0  3.984775  0  0  -0.224663  0  4.003237  0  0  -0.10466  -0.211518  0  3.972538  0
C  C55  1  0.14673235  0.28547378  0.91028319  1  0  -0.197268  0  3.72915  0  0  -0.21646  0  3.98448  0  0  -0.224457  0  4.00294  0  0  -0.104577  -0.211314  0  3.972227  0
C  C56  1  0.67617854  0.92892915  0.88529148  1  0  -0.000706  0  3.689672  0  0  -0.027565  0  3.940633  0  0  -0.022053  0  3.958194  0  0  -0.066319  -0.030905  0  3.928642  0
C  C57  1  0.32383392  0.07106411  0.11471052  1  0  -0.000973  0  3.689677  0  0  -0.027809  0  3.940651  0  0  -0.02231  0  3.958216  0  0  -0.066453  -0.031152  0  3.92868  0
O  O58  1  0.61136061  0.51496344  0.39567191  1  0  -0.692261  0  1.992405  0  0  -0.608813  0  2.222756  0  0  -0.643634  0  2.216131  0  0  -0.298706  -0.584113  0  2.22641  0
O  O59  1  0.38864132  0.48504946  0.60432309  1  0  -0.692268  0  1.992459  0  0  -0.608829  0  2.222786  0  0  -0.643647  0  2.216151  0  0  -0.298697  -0.584129  0  2.226456  0
O  O60  1  0.75810435  0.51265859  0.83340319  1  0  -0.52463  0  2.036696  0  0  -0.476277  0  2.237271  0  0  -0.494452  0  2.222181  0  0  -0.332853  -0.463599  0  2.247531  0
O  O61  1  0.24189989  0.48733092  0.16659998  1  0  -0.524866  0  2.03621  0  0  -0.476483  0  2.23685  0  0  -0.494662  0  2.221758  0  0  -0.332911  -0.4638  0  2.247112  0
O  O62  1  0.29541614  0.83777959  0.40148949  1  0  -0.616878  0  1.934491  0  0  -0.548711  0  2.156486  0  0  -0.578582  0  2.150206  0  0  -0.296372  -0.527813  0  2.160068  0
O  O63  1  0.70457246  0.16221734  0.59852351  1  0  -0.616881  0  1.93449  0  0  -0.548721  0  2.156507  0  0  -0.578591  0  2.150228  0  0  -0.296381  -0.527821  0  2.160085  0
O  O64  1  0.30642421  0.02020077  0.49530177  1  0  -0.705522  0  2.003442  0  0  -0.635906  0  2.24233  0  0  -0.66766  0  2.238118  0  0  -0.311203  -0.613485  0  2.244477  0
O  O65  1  0.69358688  0.97981222  0.50468869  1  0  -0.705472  0  2.003486  0  0  -0.635844  0  2.242356  0  0  -0.667594  0  2.238142  0  0  -0.311095  -0.613442  0  2.244539  0
O  O66  1  0.55966310  0.74899927  0.75922453  1  0  -0.565761  0  2.018809  0  0  -0.516223  0  2.251502  0  0  -0.539826  0  2.244032  0  0  -0.259475  -0.500006  0  2.256468  0
O  O67  1  0.44032644  0.25100394  0.24076488  1  0  -0.565857  0  2.019986  0  0  -0.516254  0  2.252807  0  0  -0.53983  0  2.245288  0  0  -0.259539  -0.500037  0  2.257779  0
O  O68  1  0.39429932  0.10026870  0.69246251  1  0  -0.809372  0  1.894543  0  0  -0.751236  0  2.090917  0  0  -0.77276  0  2.064782  0  0  -0.553015  -0.735849  0  2.108878  0
O  O69  1  0.60569788  0.89972649  0.30753155  1  0  -0.809378  0  1.894558  0  0  -0.751173  0  2.091006  0  0  -0.772727  0  2.064822  0  0  -0.552934  -0.735774  0  2.109038  0
O  O70  1  0.86212977  0.95293310  0.13920889  1  0  -0.272816  0  2.351462  0  0  -0.195487  0  2.582414  0  0  -0.215726  0  2.585088  0  0  -0.162666  -0.181219  0  2.580033  0
O  O71  1  0.13786403  0.04706156  0.86079695  1  0  -0.272782  0  2.351647  0  0  -0.195478  0  2.582469  0  0  -0.215717  0  2.585147  0  0  -0.162599  -0.181206  0  2.580092  0
O  O72  1  0.83617541  0.58778053  0.40517312  1  0  -0.622307  0  1.895805  0  0  -0.568624  0  2.11306  0  0  -0.594385  0  2.104102  0  0  -0.309367  -0.550495  0  2.118636  0
O  O73  1  0.16382551  0.41222720  0.59482385  1  0  -0.622257  0  1.89596  0  0  -0.568586  0  2.113186  0  0  -0.594348  0  2.104228  0  0  -0.30931  -0.550454  0  2.118769  0
