# generated using pymatgen
data_ZnH3C13(NO2)2
_symmetry_space_group_name_H-M   'P 1'
_cell_length_a   17.05181692
_cell_length_b   17.07662545
_cell_length_c   17.10337984
_cell_angle_alpha   65.97082823
_cell_angle_beta   66.09249689
_cell_angle_gamma   66.19947187
_symmetry_Int_Tables_number   1
_chemical_formula_structural   ZnH3C13(NO2)2
_chemical_formula_sum   'Zn6 H18 C78 N12 O24'
_cell_volume   3985.12170256
_cell_formula_units_Z   6
loop_
 _symmetry_equiv_pos_site_id
 _symmetry_equiv_pos_as_xyz
  1  'x, y, z'
loop_
 _atom_site_type_symbol
 _atom_site_label
 _atom_site_symmetry_multiplicity
 _atom_site_fract_x
 _atom_site_fract_y
 _atom_site_fract_z
 _atom_site_occupancy
 _atom_site_pbe_bader_charge
 _atom_site_pbe_bader_spin_density
 _atom_site_pbe_cm5_charge
 _atom_site_pbe_ddec_charge
 _atom_site_pbe_ddec_spin_density
 _atom_site_pbe_ddec_sum_bond_order
 _atom_site_pbe_magmom
Zn  Zn0  1  0.57721084  0.00002836  0.99986061  1  1.319421  0  0.763563  1.006218  0  2.007314  0
Zn  Zn1  1  0.42277120  0.99997787  0.00014153  1  1.32049  0  0.763526  1.006198  0  2.007403  0
Zn  Zn2  1  0.00021386  0.00004867  0.57676954  1  1.322305  0  0.763397  1.005713  0  2.007874  0
Zn  Zn3  1  0.99978090  0.99995197  0.42323203  1  1.321259  0  0.763344  1.005758  0  2.008003  0
Zn  Zn4  1  0.00030502  0.57705247  0.99970020  1  1.320966  0  0.763403  1.005909  0  2.007753  0
Zn  Zn5  1  0.99968237  0.42294902  0.00030461  1  1.322172  0  0.763359  1.0059  0  2.008093  0
H  H6  1  0.63566165  0.53862733  0.88450072  1  0.074526  0  0.108837  0.108824  0  0.982733  0
H  H7  1  0.14234485  0.44124145  0.54028666  1  0.081954  0  0.111445  0.112951  0  0.977603  0
H  H8  1  0.36622324  0.11662568  0.45904758  1  0.087013  0  0.107991  0.107614  0  0.984707  0
H  H9  1  0.63378021  0.88336988  0.54095019  1  0.087005  0  0.108029  0.107662  0  0.984708  0
H  H10  1  0.72859934  0.72879218  0.02549089  1  0.166848  0  0.122135  0.144218  0  0.985101  0
H  H11  1  0.27139074  0.27121429  0.97450611  1  0.167233  0  0.12219  0.144275  0  0.985011  0
H  H12  1  0.72841661  0.02541182  0.72855593  1  0.168519  0  0.122143  0.143943  0  0.98584  0
H  H13  1  0.27156616  0.97460384  0.27145024  1  0.168316  0  0.122151  0.144063  0  0.985735  0
H  H14  1  0.02566861  0.72816494  0.72820083  1  0.17643  0  0.122214  0.143987  0  0.985654  0
H  H15  1  0.97434489  0.27183349  0.27179109  1  0.176196  0  0.122235  0.144046  0  0.985505  0
H  H16  1  0.36433308  0.46137522  0.11549132  1  0.074489  0  0.1088  0.108736  0  0.982779  0
H  H17  1  0.44290868  0.14336694  0.53740972  1  0.095537  0  0.111758  0.114028  0  0.977469  0
H  H18  1  0.55709611  0.85662952  0.46258655  1  0.095155  0  0.11172  0.11397  0  0.977445  0
H  H19  1  0.88475365  0.63565608  0.53742840  1  0.043793  0  0.10812  0.107194  0  0.984759  0
H  H20  1  0.11524516  0.36435109  0.46257061  1  0.043977  0  0.108165  0.107162  0  0.984888  0
H  H21  1  0.55849996  0.46081263  0.85754600  1  0.086078  0  0.11194  0.11397  0  0.977236  0
H  H22  1  0.44149745  0.53918531  0.14244917  1  0.086104  0  0.111914  0.113921  0  0.977216  0
H  H23  1  0.85765263  0.55876228  0.45972014  1  0.081925  0  0.111419  0.112938  0  0.977502  0
C  C24  1  0.59177946  0.59267036  0.02662709  1  0.074703  0  0.028636  0.015506  0  3.900073  0
C  C25  1  0.02260785  0.82890754  0.56311260  1  1.577623  0  0.223386  0.59348  0  4.169594  0
C  C26  1  0.17079762  0.43599557  0.97791897  1  1.579154  0  0.224832  0.595571  0  4.170133  0
C  C27  1  0.82918778  0.56401354  0.02207945  1  1.579507  0  0.224797  0.595581  0  4.170356  0
C  C28  1  0.02263243  0.56310046  0.82913231  1  1.579513  0  0.223868  0.593052  0  4.170151  0
C  C29  1  0.97736172  0.43691320  0.17086886  1  1.579539  0  0.22378  0.592985  0  4.170343  0
C  C30  1  0.82913671  0.02184300  0.56384508  1  1.575185  0  0.224913  0.596073  0  4.168752  0
C  C31  1  0.17085480  0.97816633  0.43617181  1  1.575553  0  0.224876  0.596011  0  4.168729  0
C  C32  1  0.56365640  0.82926541  0.02271791  1  1.578796  0  0.225863  0.595097  0  4.170721  0
C  C33  1  0.43632900  0.17074114  0.97728507  1  1.579466  0  0.225804  0.595014  0  4.171048  0
C  C34  1  0.54394625  0.54410484  0.01511736  1  -0.036978  0  -0.005977  0.058027  0  4.023422  0
C  C35  1  0.40820658  0.40733726  0.97336700  1  0.07591  0  0.028492  0.015404  0  3.900112  0
C  C36  1  0.45604515  0.45590188  0.98487375  1  -0.037674  0  -0.005955  0.058029  0  4.023195  0
C  C37  1  0.54370296  0.01498489  0.54439838  1  -0.042498  0  -0.005009  0.060833  0  4.022022  0
C  C38  1  0.45629914  0.98500914  0.45560115  1  -0.042695  0  -0.004981  0.06094  0  4.021988  0
C  C39  1  0.01520905  0.54386676  0.54405946  1  -0.030923  0  -0.006543  0.057865  0  4.021978  0
C  C40  1  0.98478637  0.45613113  0.45594180  1  -0.030804  0  -0.006471  0.057854  0  4.021913  0
C  C41  1  0.46731896  0.52220830  0.07997012  1  -0.00567  0  -0.075209  -0.098948  0  3.958378  0
C  C42  1  0.53267511  0.47779316  0.92002322  1  -0.00556  0  -0.075192  -0.098973  0  3.958198  0
C  C43  1  0.57508649  0.93463320  0.52271617  1  -0.008402  0  -0.077321  -0.105633  0  3.963994  0
C  C44  1  0.42491696  0.06536236  0.47728161  1  -0.008443  0  -0.077359  -0.105622  0  3.964062  0
C  C45  1  0.07989261  0.46719804  0.52282224  1  -0.005495  0  -0.075708  -0.099216  0  3.956841  0
C  C46  1  0.59150336  0.02653628  0.59290686  1  0.041641  0  0.028899  0.016903  0  3.896765  0
C  C47  1  0.92010552  0.53280165  0.47718361  1  -0.005203  0  -0.075723  -0.099195  0  3.956809  0
C  C48  1  0.42388907  0.47850779  0.06474873  1  0.002512  0  -0.076261  -0.103737  0  3.961218  0
C  C49  1  0.57610767  0.52148969  0.93524690  1  0.002811  0  -0.076356  -0.103977  0  3.961214  0
C  C50  1  0.06457737  0.42390147  0.47918756  1  0.026657  0  -0.077193  -0.104335  0  3.960451  0
C  C51  1  0.93541607  0.57609701  0.52082012  1  0.026631  0  -0.077046  -0.104318  0  3.960481  0
C  C52  1  0.53193400  0.91954514  0.47870930  1  -0.014892  0  -0.07628  -0.101257  0  3.959965  0
C  C53  1  0.46806945  0.08045171  0.52128619  1  -0.015179  0  -0.076323  -0.101329  0  3.960184  0
C  C54  1  0.68179787  0.55140034  0.02876667  1  0.096413  0  0.02955  0.028728  0  3.989515  0
C  C55  1  0.31819285  0.44860912  0.97121891  1  0.096409  0  0.02966  0.028819  0  3.989406  0
C  C56  1  0.55006266  0.02956983  0.68243602  1  0.052908  0  0.030295  0.029146  0  3.985488  0
C  C57  1  0.40849407  0.97345975  0.40709669  1  0.04167  0  0.028876  0.016844  0  3.896734  0
C  C58  1  0.44993409  0.97042511  0.31756707  1  0.052333  0  0.030293  0.029061  0  3.985309  0
C  C59  1  0.02931449  0.68152173  0.55106657  1  0.072746  0  0.029161  0.027565  0  3.988781  0
C  C60  1  0.97068963  0.31847493  0.44893107  1  0.085113  0  0.029114  0.027415  0  3.988742  0
C  C61  1  0.44950440  0.31758305  0.97081653  1  0.056634  0  0.030997  0.029986  0  3.987625  0
C  C62  1  0.55048701  0.68242239  0.02917919  1  0.056843  0  0.031035  0.030166  0  3.987847  0
C  C63  1  0.97102798  0.44968838  0.31752776  1  0.053632  0  0.030182  0.030587  0  3.985761  0
C  C64  1  0.02896210  0.55031041  0.68247998  1  0.053995  0  0.030025  0.030322  0  3.985798  0
C  C65  1  0.31825799  0.97174308  0.44834330  1  0.125719  0  0.028911  0.027739  0  3.991174  0
C  C66  1  0.68173612  0.02825969  0.55166234  1  0.125955  0  0.029006  0.027867  0  3.99102  0
C  C67  1  0.73150854  0.60122979  0.02781669  1  -0.058518  0  0.002969  -0.047047  0  3.916553  0
C  C68  1  0.02675883  0.59157956  0.59257059  1  0.086666  0  0.028756  0.016785  0  3.896717  0
C  C69  1  0.26848282  0.39877371  0.97216990  1  -0.058871  0  0.002831  -0.0471  0  3.91604  0
C  C70  1  0.60027909  0.02871677  0.73159538  1  -0.055522  0  0.002648  -0.04674  0  3.911789  0
C  C71  1  0.39970697  0.97128574  0.26840957  1  -0.055565  0  0.002585  -0.046693  0  3.911691  0
C  C72  1  0.02828574  0.73119443  0.60070040  1  -0.044007  0  0.002682  -0.04791  0  3.914063  0
C  C73  1  0.97172507  0.26880221  0.39929276  1  -0.043976  0  0.002773  -0.047647  0  3.914212  0
C  C74  1  0.39937984  0.26835433  0.97140014  1  -0.053963  0  0.002494  -0.046925  0  3.914215  0
C  C75  1  0.60060890  0.73164933  0.02860032  1  -0.052528  0  0.002437  -0.047117  0  3.914414  0
C  C76  1  0.97150132  0.39972785  0.26849122  1  -0.042724  0  0.002336  -0.048535  0  3.912237  0
C  C77  1  0.02849814  0.60027401  0.73151086  1  -0.043016  0  0.002369  -0.048433  0  3.911773  0
C  C78  1  0.26858750  0.97244557  0.39877038  1  -0.046427  0  0.003121  -0.047189  0  3.916961  0
C  C79  1  0.97323727  0.40842069  0.40742943  1  0.086915  0  0.028716  0.01673  0  3.896905  0
C  C80  1  0.73140396  0.02756181  0.60123679  1  -0.046696  0  0.003128  -0.047267  0  3.916911  0
C  C81  1  0.68998003  0.69023383  0.02750430  1  0.099835  0  -0.064282  -0.09167  0  3.92771  0
C  C82  1  0.31001137  0.30977033  0.97249078  1  0.10044  0  -0.064341  -0.091909  0  3.927785  0
C  C83  1  0.68976640  0.02743732  0.69013524  1  0.098237  0  -0.063533  -0.090101  0  3.927117  0
C  C84  1  0.31021903  0.97257244  0.30987167  1  0.099133  0  -0.063474  -0.090246  0  3.927307  0
C  C85  1  0.02767207  0.68960806  0.68982278  1  0.081962  0  -0.062754  -0.088294  0  3.925086  0
C  C86  1  0.97234146  0.31039422  0.31017164  1  0.082725  0  -0.062733  -0.088353  0  3.925361  0
C  C87  1  0.71777517  0.45826838  0.03473232  1  0.839928  0  0.170914  0.223998  0  4.036282  0
C  C88  1  0.28221486  0.54174127  0.96525113  1  0.839879  0  0.170975  0.224096  0  4.036489  0
C  C89  1  0.45749085  0.03252623  0.71994871  1  0.870534  0  0.173703  0.227875  0  4.0287  0
C  C90  1  0.43675198  0.97723547  0.17081883  1  1.579062  0  0.224268  0.593522  0  4.172722  0
C  C91  1  0.54250458  0.96747165  0.28005372  1  0.870389  0  0.17377  0.227979  0  4.02861  0
C  C92  1  0.03594240  0.71744362  0.45778586  1  0.855416  0  0.170639  0.22355  0  4.03473  0
C  C93  1  0.96405500  0.28254791  0.54221427  1  0.842642  0  0.170628  0.223634  0  4.034813  0
C  C94  1  0.54173995  0.27983580  0.96886801  1  0.867742  0  0.173383  0.226473  0  4.031297  0
C  C95  1  0.45825147  0.72016965  0.03113238  1  0.867905  0  0.173289  0.226174  0  4.03136  0
C  C96  1  0.96929370  0.54190185  0.27948176  1  0.866252  0  0.172224  0.224373  0  4.034896  0
C  C97  1  0.03067029  0.45811344  0.72052637  1  0.865741  0  0.172293  0.22449  0  4.034696  0
C  C98  1  0.28201199  0.96657234  0.54123025  1  0.833545  0  0.170849  0.222312  0  4.037994  0
C  C99  1  0.71798345  0.03342939  0.45877352  1  0.833568  0  0.170714  0.222182  0  4.037896  0
C  C100  1  0.56323610  0.02276839  0.82918649  1  1.578466  0  0.224311  0.593664  0  4.172644  0
C  C101  1  0.97739626  0.17109167  0.43687873  1  1.577797  0  0.223331  0.593396  0  4.169564  0
N  N102  1  0.74040135  0.38161058  0.04341227  1  -1.055302  0  -0.286184  -0.309268  0  2.647352  0
N  N103  1  0.03497183  0.38228288  0.74471616  1  -1.06351  0  -0.285361  -0.30913  0  2.65308  0
N  N104  1  0.25927993  0.95871443  0.61765208  1  -1.043436  0  -0.286902  -0.308825  0  2.647334  0
N  N105  1  0.74071752  0.04128737  0.38235084  1  -1.043233  0  -0.28677  -0.308709  0  2.647353  0
N  N106  1  0.25959605  0.61839567  0.95657132  1  -1.055505  0  -0.286251  -0.309377  0  2.647461  0
N  N107  1  0.38129359  0.03825412  0.74353688  1  -1.064116  0  -0.285738  -0.310786  0  2.649221  0
N  N108  1  0.61870247  0.96173844  0.25646163  1  -1.063803  0  -0.285724  -0.310771  0  2.649096  0
N  N109  1  0.04550921  0.73962190  0.38102216  1  -1.069549  0  -0.287627  -0.310638  0  2.645213  0
N  N110  1  0.95447407  0.26036343  0.61897983  1  -1.069543  0  -0.287647  -0.310712  0  2.645358  0
N  N111  1  0.61763065  0.25561869  0.96438602  1  -1.05799  0  -0.284805  -0.308666  0  2.650365  0
N  N112  1  0.38235941  0.74438330  0.03561108  1  -1.058238  0  -0.284751  -0.308512  0  2.650143  0
N  N113  1  0.96496064  0.61773699  0.25529359  1  -1.063991  0  -0.285421  -0.309197  0  2.653553  0
O  O114  1  0.51734466  0.98022599  0.13259189  1  -1.144552  0  -0.292486  -0.530197  0  2.343368  0
O  O115  1  0.13285024  0.98140595  0.51644837  1  -1.144806  0  -0.293175  -0.530662  0  2.34217  0
O  O116  1  0.48305085  0.86738869  0.01999432  1  -1.14443  0  -0.293111  -0.530677  0  2.346909  0
O  O117  1  0.51692917  0.13261555  0.98000828  1  -1.145046  0  -0.293133  -0.530688  0  2.347104  0
O  O118  1  0.61714086  0.86663931  0.01886806  1  -1.143034  0  -0.307329  -0.537669  0  2.279002  0
O  O119  1  0.38284050  0.13336583  0.98113305  1  -1.142905  0  -0.307258  -0.537602  0  2.279136  0
O  O120  1  0.86670099  0.01858776  0.61669891  1  -1.142109  0  -0.306177  -0.537673  0  2.279562  0
O  O121  1  0.13328316  0.98143265  0.38331176  1  -1.142205  0  -0.306151  -0.537647  0  2.279174  0
O  O122  1  0.01909620  0.61636788  0.86626782  1  -1.14022  0  -0.305044  -0.535823  0  2.277933  0
O  O123  1  0.98085373  0.38364826  0.13374744  1  -1.141031  0  -0.305039  -0.535953  0  2.277644  0
O  O124  1  0.13322237  0.38284895  0.98149778  1  -1.143783  0  -0.306544  -0.537757  0  2.280514  0
O  O125  1  0.48264006  0.01977755  0.86741201  1  -1.144315  0  -0.2925  -0.530229  0  2.34325  0
O  O126  1  0.86675173  0.61713278  0.01856322  1  -1.143976  0  -0.306501  -0.537778  0  2.280516  0
O  O127  1  0.98068216  0.13361744  0.38404934  1  -1.138146  0  -0.304849  -0.536273  0  2.278033  0
O  O128  1  0.01931322  0.86638683  0.61593471  1  -1.137863  0  -0.304889  -0.536199  0  2.278365  0
O  O129  1  0.38330447  0.98093960  0.13363003  1  -1.142727  0  -0.306086  -0.536773  0  2.278642  0
O  O130  1  0.61668025  0.01906586  0.86637191  1  -1.142472  0  -0.306129  -0.536851  0  2.278752  0
O  O131  1  0.98069635  0.13305008  0.51721662  1  -1.14522  0  -0.293619  -0.530113  0  2.339334  0
O  O132  1  0.01931173  0.86694602  0.48276501  1  -1.145256  0  -0.293561  -0.530132  0  2.339159  0
O  O133  1  0.13282761  0.51641841  0.98087225  1  -1.143897  0  -0.293042  -0.530574  0  2.342766  0
O  O134  1  0.86717508  0.48359394  0.01908155  1  -1.144085  0  -0.293115  -0.530654  0  2.342405  0
O  O135  1  0.01965805  0.48253678  0.86739591  1  -1.14582  0  -0.293033  -0.530058  0  2.342888  0
O  O136  1  0.98037959  0.51745472  0.13259953  1  -1.145374  0  -0.293004  -0.529875  0  2.343372  0
O  O137  1  0.86714993  0.01859509  0.48356428  1  -1.14436  0  -0.293203  -0.530737  0  2.341776  0
