# generated using pymatgen
data_ZnH9C16BrNO5
_symmetry_space_group_name_H-M   'P 1'
_cell_length_a   9.71448103
_cell_length_b   11.04388546
_cell_length_c   17.71138211
_cell_angle_alpha   90.78256263
_cell_angle_beta   89.02544217
_cell_angle_gamma   91.88350464
_symmetry_Int_Tables_number   1
_chemical_formula_structural   ZnH9C16BrNO5
_chemical_formula_sum   'Zn2 H18 C32 Br2 N2 O10'
_cell_volume   1898.71205492
_cell_formula_units_Z   2
loop_
 _symmetry_equiv_pos_site_id
 _symmetry_equiv_pos_as_xyz
  1  'x, y, z'
loop_
 _atom_site_type_symbol
 _atom_site_label
 _atom_site_symmetry_multiplicity
 _atom_site_fract_x
 _atom_site_fract_y
 _atom_site_fract_z
 _atom_site_occupancy
 _atom_site_pbe_bader_charge
 _atom_site_pbe_bader_spin_density
 _atom_site_pbe_cm5_charge
 _atom_site_pbe_ddec_charge
 _atom_site_pbe_ddec_spin_density
 _atom_site_pbe_ddec_sum_bond_order
 _atom_site_pbe_magmom
Zn  Zn0  1  0.63379098  0.50301623  0.49982680  1  1.278909  0  0.661486  0.80799  0  2.417405  0
Zn  Zn1  1  0.35281780  0.49542646  0.50323645  1  1.280581  0  0.66691  0.816736  0  2.461498  0
H  H2  1  0.28054721  0.09988236  0.52032516  1  0.113352  0  0.100685  0.105809  0  1.003161  0
H  H3  1  0.81622533  0.14285851  0.44878241  1  0.049843  0  0.093673  0.102765  0  0.987035  0
H  H4  1  0.82737687  0.12029985  0.54813153  1  0.05249  0  0.093722  0.100903  0  0.989493  0
H  H5  1  0.81828730  0.91935114  0.42606916  1  0.010972  0  0.091908  0.097191  0  1.001989  0
H  H6  1  0.83881065  0.89523374  0.52514033  1  0.047955  0  0.095077  0.105289  0  0.982843  0
H  H7  1  0.10819056  0.37945517  0.59424165  1  0.155889  0  0.14251  0.125469  0  0.953233  0
H  H8  1  0.84835364  0.37791297  0.58584913  1  0.147643  0  0.139774  0.122969  0  0.972444  0
H  H9  1  0.88625836  0.74544572  0.40860097  1  0.145585  0  0.112718  0.110289  0  1.008639  0
H  H10  1  0.14760177  0.62380507  0.34440842  1  0.113758  0  0.112926  0.147671  0  0.97906  0
H  H11  1  0.69109648  0.43019824  0.73035738  1  0.117308  0  0.112175  0.135319  0  0.986547  0
H  H12  1  0.14820898  0.74377830  0.41341680  1  0.089706  0  0.117154  0.150855  0  0.959532  0
H  H13  1  0.29519783  0.54876555  0.89294642  1  0.094536  0  0.108529  0.125822  0  0.983842  0
H  H14  1  0.68900129  0.37723706  0.26920045  1  0.084299  0  0.098504  0.115111  0  1.03387  0
H  H15  1  0.26462837  0.47211250  0.26081007  1  0.101834  0  0.099334  0.103748  0  1.025495  0
H  H16  1  0.27399614  0.45684214  0.11976036  1  0.093593  0  0.10681  0.109974  0  0.985611  0
H  H17  1  0.28775235  0.87556518  0.50920136  1  0.073272  0  0.097481  0.099166  0  1.019275  0
H  H18  1  0.69779094  0.36193115  0.92575336  1  0.629382  0  0.32428  0.357336  0  0.902588  0
H  H19  1  0.79158198  0.33398393  0.15454930  1  0.611574  0  0.339961  0.370153  0  0.866893  0
C  C20  1  0.50679677  0.73482620  0.48863798  1  1.586741  0  0.214993  0.597859  0  4.172341  0
C  C21  1  0.49088720  0.46135733  0.88936683  1  0.079118  0  -0.016233  0.022339  0  4.144084  0
C  C22  1  0.49121736  0.43538845  0.96703900  1  -0.243558  0  -0.048254  -0.115632  0  4.161078  0
C  C23  1  0.49374952  0.41588792  0.03482178  1  -0.092132  0  -0.038333  -0.074507  0  4.121942  0
C  C24  1  0.60346386  0.38204376  0.15731582  1  0.422704  0  0.083558  0.270996  0  4.054826  0
C  C25  1  0.59817108  0.39311526  0.23576299  1  0.035031  0  -0.109381  -0.253363  0  4.008296  0
C  C26  1  0.47758891  0.42886911  0.27294705  1  0.034724  0  -0.016467  0.006214  0  3.976364  0
C  C27  1  0.35892505  0.44763233  0.23115643  1  -0.000388  0  -0.099629  -0.127751  0  4.030128  0
C  C28  1  0.36417002  0.43861163  0.15307028  1  -0.084028  0  -0.083141  -0.10839  0  3.98043  0
C  C29  1  0.48719010  0.40937964  0.11423542  1  0.063755  0  -0.009613  0.036159  0  4.088696  0
C  C30  1  0.62674462  0.94353159  0.49280462  1  -0.072039  0  -0.00514  0.060108  0  3.877484  0
C  C31  1  0.47732503  0.45384694  0.35622895  1  1.54961  0  0.212049  0.58993  0  4.162373  0
C  C32  1  0.50750419  0.86975086  0.49471623  1  -0.037903  0  -0.014278  -0.0732  0  3.968004  0
C  C33  1  0.38285982  0.93041900  0.50588626  1  0.021892  0  -0.089268  -0.10525  0  4.001856  0
C  C34  1  0.37885402  0.05598275  0.51319833  1  -0.092435  0  -0.087889  -0.101986  0  3.997087  0
C  C35  1  0.50015480  0.12965745  0.51180569  1  0.054606  0  -0.013301  -0.068799  0  3.971257  0
C  C36  1  0.62296184  0.06924858  0.50238686  1  -0.048476  0  -0.005711  0.061913  0  3.883289  0
C  C37  1  0.77798416  0.08716801  0.49609763  1  -0.020073  0  -0.153792  -0.19832  0  3.89605  0
C  C38  1  0.78240293  0.94540488  0.48306665  1  -0.005101  0  -0.152177  -0.197124  0  3.886691  0
C  C39  1  0.07391064  0.56622871  0.45715452  1  0.5818  0  0.149844  0.213954  0  3.866008  0
C  C40  1  0.05732439  0.43357693  0.55262321  1  0.439199  0  0.078399  0.058467  0  3.843976  0
C  C41  1  0.91355052  0.43310220  0.54827903  1  0.5233  0  0.074571  0.052564  0  3.839643  0
C  C42  1  0.49559235  0.26426756  0.51648341  1  1.538943  0  0.213805  0.598948  0  4.173706  0
C  C43  1  0.93094834  0.56558659  0.45295272  1  0.51145  0  0.139295  0.146848  0  3.87522  0
C  C44  1  0.93390608  0.66042613  0.39217819  1  0.005548  0  -0.058206  -0.012743  0  3.735814  0
C  C45  1  0.09679245  0.65829493  0.39570436  1  0.001688  0  -0.137726  -0.264226  0  3.801519  0
C  C46  1  0.49450832  0.52054737  0.64876372  1  1.601697  0  0.213506  0.605905  0  4.159873  0
C  C47  1  0.60451601  0.42936628  0.84283280  1  0.52467  0  0.088934  0.275027  0  4.060453  0
C  C48  1  0.60407247  0.45525644  0.76610683  1  0.047837  0  -0.092894  -0.202213  0  3.937189  0
C  C49  1  0.49247456  0.51070517  0.73327052  1  -0.024864  0  -0.01486  -0.048334  0  3.949708  0
C  C50  1  0.38124563  0.54499171  0.78019095  1  -0.082533  0  -0.021611  0.077605  0  3.961303  0
C  C51  1  0.38085528  0.52120459  0.85692506  1  0.016214  0  -0.089532  -0.158565  0  3.963282  0
Br  Br52  1  0.85579881  0.61393325  0.29479572  1  -0.090821  0  0.002034  -0.083457  0  1.2915  0
Br  Br53  1  0.22887787  0.63180999  0.74454832  1  -0.067737  0  -0.01004  -0.093399  0  1.366149  0
N  N54  1  0.14065856  0.50114483  0.50636003  1  -1.213631  0  -0.28237  -0.170176  0  3.446609  0
N  N55  1  0.84711425  0.50035263  0.49763671  1  -1.180415  0  -0.279419  -0.155705  0  3.446162  0
O  O56  1  0.62252970  0.68457986  0.47841684  1  -1.156331  0  -0.317683  -0.541433  0  2.290515  0
O  O57  1  0.39032627  0.67923359  0.49540409  1  -1.16952  0  -0.316466  -0.549348  0  2.338619  0
O  O58  1  0.59200754  0.44939258  0.38988219  1  -1.163567  0  -0.319864  -0.554769  0  2.347992  0
O  O59  1  0.36256212  0.48033649  0.38726553  1  -1.167248  0  -0.319594  -0.546148  0  2.319812  0
O  O60  1  0.61011356  0.32190141  0.52652178  1  -1.170978  0  -0.318589  -0.550789  0  2.314135  0
O  O61  1  0.37895786  0.31148088  0.50817756  1  -1.160533  0  -0.319611  -0.54634  0  2.308409  0
O  O62  1  0.61038453  0.53922533  0.61551777  1  -1.163271  0  -0.32148  -0.551201  0  2.278551  0
O  O63  1  0.37921707  0.50347955  0.61675137  1  -1.158032  0  -0.318264  -0.548461  0  2.397785  0
O  O64  1  0.71429872  0.37310037  0.87144332  1  -1.14108  0  -0.351587  -0.434892  0  2.242434  0
O  O65  1  0.71968908  0.34898110  0.11846668  1  -1.126316  0  -0.3542  -0.448881  0  2.252027  0
