# generated using pymatgen
data_ZnH5C3SNO2
_symmetry_space_group_name_H-M   'P 1'
_cell_length_a   5.73325877
_cell_length_b   9.19766415
_cell_length_c   9.11305521
_cell_angle_alpha   90.00089137
_cell_angle_beta   89.99943535
_cell_angle_gamma   90.00006921
_symmetry_Int_Tables_number   1
_chemical_formula_structural   ZnH5C3SNO2
_chemical_formula_sum   'Zn4 H20 C12 S4 N4 O8'
_cell_volume   480.55499177
_cell_formula_units_Z   4
loop_
 _symmetry_equiv_pos_site_id
 _symmetry_equiv_pos_as_xyz
  1  'x, y, z'
loop_
 _atom_site_type_symbol
 _atom_site_label
 _atom_site_symmetry_multiplicity
 _atom_site_fract_x
 _atom_site_fract_y
 _atom_site_fract_z
 _atom_site_occupancy
 _atom_site_pbe_bader_spin_density
 _atom_site_pbe_cm5_charge
 _atom_site_pbe_ddec_charge
 _atom_site_pbe_ddec_spin_density
 _atom_site_pbe_ddec_sum_bond_order
 _atom_site_pbe_magmom
Zn  Zn0  1  0.57464296  0.17224092  0.91766785  1  0  0.540625  0.643128  0  2.457632  0
Zn  Zn1  1  0.92536877  0.82776117  0.41766195  1  0  0.540596  0.643041  0  2.457617  0
Zn  Zn2  1  0.07463985  0.32775667  0.08233373  1  0  0.540618  0.643153  0  2.457636  0
Zn  Zn3  1  0.42535649  0.67224576  0.58233137  1  0  0.540622  0.643088  0  2.457653  0
H  H4  1  0.58972381  0.36430114  0.70812929  1  0  0.295786  0.295892  0  0.958358  0
H  H5  1  0.91029151  0.63570321  0.20812371  1  0  0.295857  0.29608  0  0.958324  0
H  H6  1  0.08970939  0.13570189  0.29187440  1  0  0.295864  0.2961  0  0.958282  0
H  H7  1  0.41027463  0.86429503  0.79188066  1  0  0.295803  0.295944  0  0.958338  0
H  H8  1  0.81070724  0.39722987  0.81367312  1  0  0.292231  0.290165  0  0.941906  0
H  H9  1  0.68930627  0.60276847  0.31366606  1  0  0.29227  0.290272  0  0.9417  0
H  H10  1  0.31070322  0.10276881  0.18633372  1  0  0.292264  0.290254  0  0.941769  0
H  H11  1  0.18929308  0.89723519  0.68633736  1  0  0.292237  0.290209  0  0.941722  0
H  H12  1  0.20367800  0.34903971  0.71610672  1  0  0.094039  0.110778  0  1.06041  0
H  H13  1  0.29632302  0.65096257  0.21609653  1  0  0.094046  0.110798  0  1.060373  0
H  H14  1  0.70367096  0.15096114  0.28389962  1  0  0.094048  0.110803  0  1.060353  0
H  H15  1  0.79630469  0.84902913  0.78390189  1  0  0.094046  0.110774  0  1.060363  0
H  H16  1  0.23651656  0.17375547  0.63628897  1  0  0.093884  0.107245  0  1.028032  0
H  H17  1  0.26350327  0.82625321  0.13628944  1  0  0.093866  0.107248  0  1.027968  0
H  H18  1  0.73650186  0.32625082  0.36370951  1  0  0.093857  0.107218  0  1.028056  0
H  H19  1  0.76348115  0.67373741  0.86370478  1  0  0.09385  0.107218  0  1.02801  0
H  H20  1  0.88717890  0.30717459  0.55351685  1  0  0.10964  0.077038  0  0.998528  0
H  H21  1  0.61283908  0.69282849  0.05350945  1  0  0.109611  0.077052  0  0.998499  0
H  H22  1  0.38716379  0.19283496  0.44649067  1  0  0.109612  0.07703  0  0.998483  0
H  H23  1  0.11281061  0.80716865  0.94648671  1  0  0.109619  0.077007  0  0.998514  0
C  C24  1  0.13219665  0.23878670  0.71265825  1  0  -0.166864  -0.182304  0  3.894726  0
C  C25  1  0.36782013  0.76121554  0.21265490  1  0  -0.16694  -0.182404  0  3.894707  0
C  C26  1  0.63218824  0.26121633  0.28734411  1  0  -0.166937  -0.182384  0  3.89468  0
C  C27  1  0.86780480  0.73877726  0.78733874  1  0  -0.166877  -0.182319  0  3.894712  0
C  C28  1  0.88192783  0.24399194  0.65601876  1  0  -0.008236  0.048281  0  3.871695  0
C  C29  1  0.61808141  0.75601379  0.15601234  1  0  -0.008041  0.048409  0  3.871668  0
C  C30  1  0.38191821  0.25601436  0.34398549  1  0  -0.008074  0.048422  0  3.87155  0
C  C31  1  0.11806841  0.74398226  0.84398599  1  0  -0.008069  0.048479  0  3.871548  0
C  C32  1  0.79384880  0.09080928  0.61886230  1  0  0.209994  0.568463  0  4.138516  0
C  C33  1  0.70616980  0.90918827  0.11886879  1  0  0.209925  0.568451  0  4.138143  0
C  C34  1  0.29383565  0.40919266  0.38113367  1  0  0.209939  0.568479  0  4.138451  0
C  C35  1  0.20615731  0.59080561  0.88113343  1  0  0.209919  0.568344  0  4.138513  0
S  S36  1  0.16223022  0.15473955  0.89247644  1  0  -0.211275  -0.360473  0  2.732139  0
S  S37  1  0.33777824  0.84525998  0.39247350  1  0  -0.211237  -0.360374  0  2.732159  0
S  S38  1  0.66222347  0.34525696  0.10752356  1  0  -0.211263  -0.360455  0  2.732131  0
S  S39  1  0.83776741  0.65474151  0.60751921  1  0  -0.211245  -0.360422  0  2.732107  0
N  N40  1  0.72492385  0.31420731  0.76172525  1  0  -0.622163  -0.551449  0  3.389547  0
N  N41  1  0.77508881  0.68579459  0.26171793  1  0  -0.622285  -0.551714  0  3.38929  0
N  N42  1  0.22491578  0.18579464  0.23827878  1  0  -0.622252  -0.551782  0  3.389482  0
N  N43  1  0.27507614  0.81420473  0.73828062  1  0  -0.62223  -0.551615  0  3.389232  0
O  O44  1  0.90297427  0.03015394  0.51243836  1  0  -0.325379  -0.538018  0  2.38704  0
O  O45  1  0.59703220  0.96985612  0.01243327  1  0  -0.325477  -0.538205  0  2.386514  0
O  O46  1  0.40294732  0.46985452  0.48755370  1  0  -0.325358  -0.538045  0  2.387083  0
O  O47  1  0.09702114  0.53014428  0.98756518  1  0  -0.32549  -0.538126  0  2.386646  0
O  O48  1  0.63171861  0.03702120  0.69443632  1  0  -0.302272  -0.508719  0  2.271192  0
O  O49  1  0.86828299  0.96297859  0.19443728  1  0  -0.302208  -0.50864  0  2.271308  0
O  O50  1  0.13171394  0.46297965  0.30555178  1  0  -0.302332  -0.508843  0  2.271131  0
O  O51  1  0.36827857  0.53702291  0.80556623  1  0  -0.302168  -0.508571  0  2.271373  0
