# generated using pymatgen
data_Zn3H9C25S5O27F7
_symmetry_space_group_name_H-M   'P 1'
_cell_length_a   18.39528827
_cell_length_b   18.88042906
_cell_length_c   18.68860693
_cell_angle_alpha   109.74090808
_cell_angle_beta   108.96586755
_cell_angle_gamma   109.40407136
_symmetry_Int_Tables_number   1
_chemical_formula_structural   Zn3H9C25S5O27F7
_chemical_formula_sum   'Zn6 H18 C50 S10 O54 F14'
_cell_volume   5015.00035026
_cell_formula_units_Z   2
loop_
 _symmetry_equiv_pos_site_id
 _symmetry_equiv_pos_as_xyz
  1  'x, y, z'
loop_
 _atom_site_type_symbol
 _atom_site_label
 _atom_site_symmetry_multiplicity
 _atom_site_fract_x
 _atom_site_fract_y
 _atom_site_fract_z
 _atom_site_occupancy
 _atom_site_pbe_bader_charge
 _atom_site_pbe_bader_spin_density
 _atom_site_pbe_cm5_charge
 _atom_site_pbe_ddec_charge
 _atom_site_pbe_ddec_spin_density
 _atom_site_pbe_ddec_sum_bond_order
 _atom_site_pbe_magmom
Zn  Zn0  1  0.93256268  0.99797766  0.44006923  1  1.314976  0  0.741447  0.968811  0  2.085224  0
Zn  Zn1  1  0.06640047  0.00705844  0.56754375  1  1.339535  0  0.771641  1.020799  0  2.000878  0
Zn  Zn2  1  0.05688425  0.55821140  0.99902399  1  1.341432  0  0.76246  1.009051  0  2.053497  0
Zn  Zn3  1  0.92715820  0.43575499  0.00420111  1  1.323829  0  0.743499  0.979372  0  2.081833  0
Zn  Zn4  1  0.49731451  0.42634839  0.42547393  1  1.325446  0  0.740305  0.982326  0  2.078039  0
Zn  Zn5  1  0.50083821  0.55682756  0.55172694  1  1.323499  0  0.743603  0.981322  0  2.088479  0
H  H6  1  0.24889635  0.15280498  0.52809613  1  0.137712  0  0.122609  0.13233  0  0.966204  0
H  H7  1  0.98575546  0.08612718  0.88190635  1  0.673798  0  0.330423  0.401166  0  0.900562  0
H  H8  1  0.20035628  0.27500377  0.26290696  1  0.642272  0  0.364744  0.415998  0  0.809037  0
H  H9  1  0.00203726  0.18695801  0.48338528  1  0.657122  0  0.320972  0.382193  0  0.92741  0
H  H10  1  0.95474575  0.58603103  0.34046991  1  0.633482  0  0.356411  0.412292  0  0.826852  0
H  H11  1  0.94810462  0.92178827  0.17860175  1  0.633995  0  0.364612  0.414484  0  0.819815  0
H  H12  1  0.81715797  0.80440879  0.30933206  1  0.635968  0  0.31908  0.381405  0  0.916609  0
H  H13  1  0.74885202  0.38186575  0.52657408  1  0.641245  0  0.356029  0.405024  0  0.835677  0
H  H14  1  0.79590312  0.09506273  0.66613507  1  0.684122  0  0.328225  0.392967  0  0.891463  0
H  H15  1  0.04400039  0.32949072  0.60151459  1  0.66759  0  0.322828  0.398597  0  0.90715  0
H  H16  1  0.36608124  0.24614579  0.50999439  1  0.097655  0  0.122372  0.128612  0  0.960767  0
H  H17  1  0.06099575  0.80129084  0.15953657  1  0.14381  0  0.128294  0.146045  0  0.972947  0
H  H18  1  0.94987858  0.22959525  0.62331528  1  0.19095  0  0.11857  0.108526  0  1.004065  0
H  H19  1  0.62495620  0.58569638  0.32535006  1  0.167512  0  0.124024  0.146942  0  0.971842  0
H  H20  1  0.69599167  0.47219534  0.87195892  1  0.11437  0  0.118631  0.12267  0  0.971882  0
H  H21  1  0.59697847  0.49315273  0.76245967  1  0.110848  0  0.117815  0.123806  0  0.972163  0
H  H22  1  0.86535067  0.49413362  0.75723040  1  0.145304  0  0.119855  0.14113  0  0.988546  0
H  H23  1  0.28148899  0.37815341  0.89435214  1  0.657009  0  0.352635  0.41308  0  0.828266  0
C  C24  1  0.09103874  0.12638824  0.48468929  1  1.553538  0  0.227999  0.604495  0  4.131586  0
C  C25  1  0.15719193  0.19266017  0.47828286  1  0.026993  0  -0.00596  -0.035396  0  3.910612  0
C  C26  1  0.02456079  0.75139639  0.33479112  1  -0.042817  0  -0.008604  -0.211919  0  3.879766  0
C  C27  1  0.00761155  0.11370061  0.63554324  1  1.656782  0  0.219579  0.607742  0  4.137581  0
C  C28  1  0.02586190  0.69186626  0.26655267  1  0.471566  0  0.131592  0.293767  0  3.983146  0
C  C29  1  0.03685445  0.70730725  0.20171544  1  0.086295  0  -0.005235  -0.100376  0  3.926208  0
C  C30  1  0.05026834  0.78674677  0.20808243  1  0.052586  0  -0.057029  -0.064071  0  3.935431  0
C  C31  1  0.04961789  0.84710343  0.27554677  1  -0.158265  0  -0.011402  -0.126211  0  3.937315  0
C  C32  1  0.03784832  0.83137118  0.34074575  1  0.064343  0  0.022078  0.030604  0  3.862423  0
C  C33  1  0.81828614  0.79015925  0.54156392  1  0.590734  0  0.115843  0.183189  0  4.012332  0
C  C34  1  0.76007288  0.72139948  0.54310763  1  0.555794  0  0.113693  0.177292  0  4.040043  0
C  C35  1  0.01595964  0.32336004  0.82164656  1  0.000467  0  -0.017093  -0.204735  0  3.668925  0
C  C36  1  0.68943537  0.64733186  0.46566566  1  0.028545  0  -0.002755  -0.082202  0  3.940294  0
C  C37  1  0.67805239  0.64418381  0.38656594  1  0.076759  0  -0.069342  -0.099066  0  3.936834  0
C  C38  1  0.73154543  0.71534607  0.38495000  1  -0.151034  0  -0.007119  -0.089532  0  3.914936  0
C  C39  1  0.86447573  0.87128524  0.46966997  1  1.560381  0  0.233371  0.634139  0  4.089126  0
C  C40  1  0.80335730  0.79124671  0.46337470  1  0.048935  0  -0.007928  -0.116084  0  3.915186  0
C  C41  1  0.85268422  0.47758563  0.88917079  1  1.527711  0  0.22632  0.610063  0  4.130715  0
C  C42  1  0.01400463  0.39711734  0.88940875  1  1.64922  0  0.22316  0.616452  0  4.113197  0
C  C43  1  0.08467075  0.47779167  0.12150573  1  1.61252  0  0.232818  0.652881  0  4.123687  0
C  C44  1  0.02741080  0.63879450  0.12391614  1  1.601253  0  0.225619  0.622788  0  4.150828  0
C  C45  1  0.39156340  0.52503044  0.39831858  1  1.584862  0  0.223022  0.640483  0  4.122349  0
C  C46  1  0.01254217  0.25044062  0.85108902  1  1.192283  0  0.200929  0.464846  0  3.859446  0
C  C47  1  0.36470062  0.35647590  0.45349144  1  1.615044  0  0.218811  0.597831  0  4.187725  0
C  C48  1  0.60428224  0.50144759  0.62527605  1  1.611148  0  0.225527  0.604773  0  4.156581  0
C  C49  1  0.62260457  0.57750365  0.46776034  1  1.608488  0  0.22923  0.637198  0  4.124147  0
C  C50  1  0.71009713  0.47952288  0.82178396  1  -0.034678  0  -0.066304  -0.077854  0  3.94118  0
C  C51  1  0.03535365  0.89762946  0.41195127  1  1.618933  0  0.227022  0.603221  0  4.175631  0
C  C52  1  0.65449129  0.49039557  0.76018883  1  -0.037567  0  -0.071535  -0.092975  0  3.942761  0
C  C53  1  0.67055102  0.49713234  0.69379312  1  -0.013387  0  0.007139  0.001526  0  3.899529  0
C  C54  1  0.74592845  0.49532136  0.69185694  1  -0.155903  0  -0.007208  -0.10715  0  3.930409  0
C  C55  1  0.80472323  0.49036070  0.75652669  1  -0.011233  0  -0.069029  -0.099741  0  3.934835  0
C  C56  1  0.78627360  0.48103934  0.82083287  1  0.076643  0  -0.006945  -0.010296  0  3.950913  0
C  C57  1  0.09535795  0.35509091  0.80243105  1  -0.155575  0  -0.021128  -0.320962  0  3.391375  0
C  C58  1  0.19191618  0.43007352  0.17824951  1  0.530979  0  0.09359  0.153933  0  4.087541  0
C  C59  1  0.27036275  0.44610106  0.24173399  1  0.592633  0  0.102487  0.182209  0  4.057082  0
C  C60  1  0.31635360  0.51705955  0.32743252  1  0.094959  0  -0.023367  -0.215215  0  3.958298  0
C  C61  1  0.28216378  0.57369402  0.34362741  1  0.588208  0  0.108108  0.188767  0  4.053688  0
C  C62  1  0.20603086  0.55916948  0.27808734  1  0.535747  0  0.093886  0.155267  0  4.07486  0
C  C63  1  0.93273476  0.20448446  0.66381612  1  0.466966  0  0.013572  0.036141  0  3.792584  0
C  C64  1  0.15912363  0.48674577  0.19493060  1  0.126808  0  -0.016658  -0.183371  0  4.002011  0
C  C65  1  0.92886680  0.27476064  0.73332689  1  1.126015  0  0.191182  0.417254  0  3.913279  0
C  C66  1  0.99698492  0.16474476  0.77987554  1  -0.165526  0  -0.022353  -0.336022  0  3.483726  0
C  C67  1  0.09557402  0.27088667  0.74973301  1  1.12316  0  0.199507  0.460317  0  3.85614  0
C  C68  1  0.23855376  0.19428921  0.50206281  1  0.036768  0  -0.057312  -0.034326  0  3.915524  0
C  C69  1  0.00518770  0.18364775  0.70708829  1  -0.003521  0  -0.020719  -0.138545  0  3.741738  0
C  C70  1  0.30289593  0.24504832  0.49058806  1  -0.002414  0  -0.06665  -0.086809  0  3.935423  0
C  C71  1  0.28685183  0.29440589  0.45269348  1  0.031405  0  0.010799  0.012408  0  3.897448  0
C  C72  1  0.20498247  0.29278277  0.42712168  1  -0.108296  0  -7.2e-05  -0.115024  0  3.870529  0
C  C73  1  0.14150246  0.24512971  0.44337018  1  -0.130141  0  0.006489  -0.088437  0  3.845185  0
S  S74  1  0.21197436  0.44704473  0.91047432  1  3.09603  0  0.544231  1.125252  0  5.887218  0
S  S75  1  0.09574939  0.42121087  0.73731627  1  3.13267  0  0.53952  1.115932  0  5.893662  0
S  S76  1  0.07596939  0.12499049  0.83905905  1  3.13806  0  0.538775  1.111687  0  5.907455  0
S  S77  1  0.17961395  0.34523696  0.36464303  1  3.083484  0  0.543594  1.134306  0  5.99703  0
S  S78  1  0.04729064  0.26279970  0.42905739  1  3.0807  0  0.543152  1.145  0  5.953798  0
S  S79  1  0.00388801  0.72222510  0.41184396  1  3.150301  0  0.54957  1.171189  0  6.006249  0
S  S80  1  0.06838948  0.94602952  0.27504200  1  3.075551  0  0.547283  1.158871  0  5.992034  0
S  S81  1  0.69801196  0.70027658  0.27650223  1  3.087525  0  0.53279  1.156036  0  6.017873  0
S  S82  1  0.77778143  0.50665241  0.61356705  1  3.056539  0  0.544168  1.152016  0  5.97945  0
S  S83  1  0.88495625  0.06030760  0.72841498  1  3.086717  0  0.544842  1.129847  0  5.885362  0
O  O84  1  0.00723448  0.09437255  0.43255849  1  -1.146095  0  -0.312126  -0.548722  0  2.336969  0
O  O85  1  0.41935982  0.57922130  0.47799667  1  -1.104199  0  -0.305964  -0.508898  0  2.241833  0
O  O86  1  0.39502735  0.32639837  0.40519878  1  -1.125115  0  -0.311728  -0.521429  0  2.22277  0
O  O87  1  0.11999816  0.10282587  0.53792721  1  -1.165272  0  -0.293006  -0.545373  0  2.346465  0
O  O88  1  0.39666023  0.43476991  0.50873984  1  -1.154265  0  -0.296943  -0.546517  0  2.323122  0
O  O89  1  0.57474145  0.44675291  0.54675209  1  -1.162181  0  -0.303477  -0.558556  0  2.370108  0
O  O90  1  0.58074409  0.55759332  0.65189315  1  -1.126873  0  -0.306158  -0.51407  0  2.223889  0
O  O91  1  0.59154569  0.49813588  0.41208543  1  -1.121442  0  -0.304915  -0.511522  0  2.207685  0
O  O92  1  0.59967782  0.60425595  0.52384964  1  -1.154938  0  -0.306107  -0.569368  0  2.353504  0
O  O93  1  0.95605047  0.08875281  0.55733045  1  -1.165652  0  -0.305895  -0.553505  0  2.376767  0
O  O94  1  0.06534842  0.09258783  0.66281848  1  -1.116004  0  -0.28926  -0.497033  0  2.343295  0
O  O95  1  0.82519982  0.43007066  0.92067865  1  -1.129568  0  -0.310423  -0.521465  0  2.218823  0
O  O96  1  0.83272765  0.89410282  0.41391234  1  -1.125013  0  -0.307401  -0.534804  0  2.262975  0
O  O97  1  0.94413232  0.91395336  0.52969695  1  -1.156506  0  -0.29176  -0.541464  0  2.400514  0
O  O98  1  0.97411210  0.91434320  0.38475293  1  -1.162975  0  -0.300192  -0.560854  0  2.394672  0
O  O99  1  0.09362018  0.93126514  0.49131710  1  -1.102065  0  -0.293393  -0.499186  0  2.237495  0
O  O100  1  0.93307052  0.52264813  0.91085379  1  -1.168525  0  -0.308717  -0.569051  0  2.3417  0
O  O101  1  0.22987339  0.52875661  0.91615950  1  -1.230598  0  -0.269768  -0.442452  0  2.179421  0
O  O102  1  0.21424902  0.43281135  0.98149648  1  -1.244841  0  -0.289732  -0.485973  0  2.21339  0
O  O103  1  0.27975738  0.42560249  0.88451948  1  -1.180538  0  -0.342672  -0.493392  0  2.17984  0
O  O104  1  0.04019286  0.03642322  0.77594678  1  -1.25111  0  -0.283717  -0.474285  0  2.202864  0
O  O105  1  0.16805790  0.18624611  0.88351156  1  -1.236476  0  -0.284212  -0.454449  0  2.176196  0
O  O106  1  0.07003252  0.47415808  0.91548805  1  -1.114604  0  -0.281093  -0.489964  0  2.388278  0
O  O107  1  0.05025391  0.13027573  0.91291791  1  -1.211202  0  -0.345221  -0.498422  0  2.194451  0
O  O108  1  0.08758667  0.29215317  0.29925480  1  -1.287151  0  -0.30181  -0.516379  0  2.161096  0
O  O109  1  0.22139440  0.43672117  0.41966266  1  -1.240972  0  -0.278468  -0.459944  0  2.155407  0
O  O110  1  0.23553848  0.33259067  0.31518099  1  -1.186217  0  -0.341744  -0.530299  0  2.301349  0
O  O111  1  0.07961102  0.35341926  0.45989750  1  -1.253232  0  -0.284154  -0.474706  0  2.133559  0
O  O112  1  0.97029325  0.19587284  0.34695243  1  -1.271344  0  -0.297784  -0.485685  0  2.121042  0
O  O113  1  0.03094518  0.25066015  0.50556462  1  -1.225646  0  -0.363842  -0.554449  0  2.266722  0
O  O114  1  0.08297946  0.72864378  0.46887021  1  -1.268706  0  -0.298199  -0.504224  0  2.084492  0
O  O115  1  0.96083929  0.76583802  0.44258930  1  -1.280865  0  -0.286669  -0.490739  0  2.225665  0
O  O116  1  0.92766239  0.62262011  0.35047561  1  -1.183542  0  -0.346838  -0.512475  0  2.14377  0
O  O117  1  0.95568476  0.37433933  0.91070749  1  -1.153436  0  -0.30213  -0.551457  0  2.400663  0
O  O118  1  0.12129564  0.01532573  0.36393796  1  -1.302794  0  -0.287144  -0.504972  0  2.241737  0
O  O119  1  0.09446337  0.94705604  0.21053733  1  -1.285442  0  -0.310226  -0.530913  0  2.104188  0
O  O120  1  0.97157290  0.93739583  0.24016440  1  -1.174423  0  -0.352272  -0.518972  0  2.145688  0
O  O121  1  0.65505557  0.60900704  0.21733474  1  -1.282621  0  -0.312749  -0.512334  0  2.096441  0
O  O122  1  0.65442556  0.74940169  0.26499769  1  -1.266966  0  -0.321764  -0.529014  0  2.097539  0
O  O123  1  0.78934121  0.74068741  0.27582679  1  -1.203435  0  -0.369482  -0.530994  0  2.177127  0
O  O124  1  0.75346190  0.56384270  0.59115020  1  -1.277515  0  -0.289907  -0.50076  0  2.231965  0
O  O125  1  0.86674013  0.52101200  0.64342982  1  -1.281996  0  -0.310614  -0.527874  0  2.107869  0
O  O126  1  0.71318936  0.41044639  0.52830334  1  -1.186456  0  -0.36163  -0.52998  0  2.130042  0
O  O127  1  0.87242348  0.00552343  0.64551802  1  -1.254994  0  -0.279598  -0.478423  0  2.244018  0
O  O128  1  0.11000175  0.52584156  0.09134399  1  -1.149774  0  -0.297145  -0.553159  0  2.315644  0
O  O129  1  0.88667435  0.03299980  0.79204775  1  -1.272184  0  -0.284064  -0.488649  0  2.186245  0
O  O130  1  0.80808457  0.08286855  0.71487164  1  -1.212627  0  -0.339811  -0.484067  0  2.24543  0
O  O131  1  0.06810430  0.48116278  0.76964183  1  -1.232941  0  -0.271867  -0.435688  0  2.179332  0
O  O132  1  0.17906968  0.44525925  0.73904408  1  -1.240628  0  -0.287581  -0.473705  0  2.161091  0
O  O133  1  0.01956463  0.35204308  0.63864961  1  -1.221138  0  -0.357215  -0.528102  0  2.283379  0
O  O134  1  0.00459290  0.42448568  0.09551560  1  -1.109038  0  -0.300258  -0.505295  0  2.194694  0
O  O135  1  0.07661939  0.66319373  0.09193049  1  -1.120665  0  -0.304472  -0.51609  0  2.199627  0
O  O136  1  0.96909324  0.56216623  0.09456276  1  -1.164426  0  -0.307037  -0.572693  0  2.358404  0
O  O137  1  0.42146384  0.47503993  0.37500545  1  -1.15724  0  -0.312471  -0.574901  0  2.390767  0
F  F138  1  0.84729109  0.13203138  0.60783243  1  -0.613144  0  -0.098365  -0.130803  0  1.363526  0
F  F139  1  0.17781524  0.61749422  0.29554769  1  -0.623966  0  -0.094021  -0.114516  0  1.375711  0
F  F140  1  0.85633478  0.23751267  0.74150706  1  -0.608542  0  -0.096893  -0.166407  0  1.400463  0
F  F141  1  0.94875031  0.22932848  0.87447503  1  -0.597846  0  -0.09549  -0.152402  0  1.395081  0
F  F142  1  0.16232289  0.26403860  0.80113724  1  -0.622726  0  -0.080893  -0.159302  0  1.47029  0
F  F143  1  0.11148148  0.27128232  0.68240595  1  -0.613075  0  -0.093887  -0.169755  0  1.387642  0
F  F144  1  0.09102011  0.28780675  0.92438289  1  -0.606801  0  -0.083194  -0.143715  0  1.495029  0
F  F145  1  0.01724255  0.61717138  0.26418836  1  -0.61411  0  -0.066068  -0.115573  0  1.427095  0
F  F146  1  0.88679797  0.85624759  0.61923377  1  -0.60177  0  -0.069847  -0.073228  0  1.440758  0
F  F147  1  0.77616549  0.73013873  0.62174306  1  -0.60082  0  -0.074379  -0.084867  0  1.404775  0
F  F148  1  0.14865739  0.35948185  0.09823753  1  -0.612553  0  -0.086025  -0.095638  0  1.393898  0
F  F149  1  0.91539908  0.33069962  0.70636761  1  -0.607215  0  -0.097062  -0.157043  0  1.355793  0
F  F150  1  0.29761039  0.38883878  0.21658597  1  -0.614443  0  -0.083351  -0.092463  0  1.407667  0
F  F151  1  0.32198980  0.64442825  0.42221926  1  -0.604691  0  -0.078339  -0.088941  0  1.379135  0
