# generated using pymatgen
data_Ag3H5C12(NO2)4
_symmetry_space_group_name_H-M   'P 1'
_cell_length_a   10.15873525
_cell_length_b   11.32242971
_cell_length_c   13.34800000
_cell_angle_alpha   107.98684642
_cell_angle_beta   90.00000000
_cell_angle_gamma   90.00000000
_symmetry_Int_Tables_number   1
_chemical_formula_structural   Ag3H5C12(NO2)4
_chemical_formula_sum   'Ag12 H20 C48 N16 O32'
_cell_volume   1460.27342477
_cell_formula_units_Z   4
loop_
 _symmetry_equiv_pos_site_id
 _symmetry_equiv_pos_as_xyz
  1  'x, y, z'
loop_
 _atom_site_type_symbol
 _atom_site_label
 _atom_site_symmetry_multiplicity
 _atom_site_fract_x
 _atom_site_fract_y
 _atom_site_fract_z
 _atom_site_occupancy
 _atom_site_hle17_bader_spin_density
 _atom_site_hle17_ddec_charge
 _atom_site_hle17_ddec_spin_density
 _atom_site_hle17_ddec_sum_bond_order
 _atom_site_hle17_magmom
 _atom_site_hse06_10hf_bader_spin_density
 _atom_site_hse06_10hf_ddec_charge
 _atom_site_hse06_10hf_ddec_spin_density
 _atom_site_hse06_10hf_ddec_sum_bond_order
 _atom_site_hse06_10hf_magmom
 _atom_site_hse06_bader_spin_density
 _atom_site_hse06_ddec_charge
 _atom_site_hse06_ddec_spin_density
 _atom_site_hse06_ddec_sum_bond_order
 _atom_site_hse06_magmom
 _atom_site_pbe_bader_charge
 _atom_site_pbe_bader_spin_density
 _atom_site_pbe_cm5_charge
 _atom_site_pbe_ddec_charge
 _atom_site_pbe_ddec_spin_density
 _atom_site_pbe_ddec_sum_bond_order
 _atom_site_pbe_magmom
Ag  Ag0  1  0.54364740  0.08397194  0.35919054  1  0  0.52327  0  1.444591  0  0  0.380108  0  1.88008  0  0  0.403666  0  1.838357  0  0.624315  0  0.487432  0.365614  0  1.908519  0
Ag  Ag1  1  0.04364913  0.41602650  0.14080871  1  0  0.52326  0  1.444632  0  0  0.380124  0  1.880091  0  0  0.40366  0  1.838409  0  0.624259  0  0.487439  0.365634  0  1.908525  0
Ag  Ag2  1  0.45635405  0.91602959  0.64080993  1  0  0.523288  0  1.44453  0  0  0.380093  0  1.880055  0  0  0.403651  0  1.83834  0  0.624316  0  0.487412  0.365592  0  1.908502  0
Ag  Ag3  1  0.95635232  0.58397131  0.85919079  1  0  0.523257  0  1.44463  0  0  0.380117  0  1.880095  0  0  0.403665  0  1.838393  0  0.624299  0  0.487435  0.365633  0  1.908516  0
Ag  Ag4  1  0.98393351  0.66629316  0.50620803  1  0  0.633777  0  1.30333  0  0  0.512651  0  1.73019  0  0  0.541222  0  1.682497  0  0.658683  0  0.461975  0.493427  0  1.762942  0
Ag  Ag5  1  0.48393426  0.83370682  0.99379320  1  0  0.633772  0  1.303348  0  0  0.512669  0  1.730205  0  0  0.541243  0  1.682514  0  0.658685  0  0.461983  0.493452  0  1.762954  0
Ag  Ag6  1  0.01606499  0.33370652  0.49379271  1  0  0.633755  0  1.303356  0  0  0.512632  0  1.73022  0  0  0.541207  0  1.682525  0  0.65869  0  0.461972  0.493418  0  1.762959  0
Ag  Ag7  1  0.51606424  0.16629286  0.00620679  1  0  0.633743  0  1.303369  0  0  0.512639  0  1.730225  0  0  0.541214  0  1.682531  0  0.658666  0  0.461975  0.493438  0  1.762941  0
Ag  Ag8  1  0.99783583  0.10569804  0.83024179  1  0  0.659535  0  1.18832  0  0  0.539201  0  1.596744  0  0  0.573147  0  1.547748  0  0.659537  0  0.431918  0.516278  0  1.630534  0
Ag  Ag9  1  0.49783461  0.39430226  0.66975795  1  0  0.65954  0  1.188293  0  0  0.53921  0  1.596712  0  0  0.573159  0  1.547717  0  0.659517  0  0.431924  0.51629  0  1.630503  0
Ag  Ag10  1  0.00216267  0.89430349  0.16975718  1  0  0.65953  0  1.188328  0  0  0.539201  0  1.596746  0  0  0.57315  0  1.547749  0  0.659542  0  0.431921  0.516279  0  1.630535  0
Ag  Ag11  1  0.50216290  0.60569927  0.33024253  1  0  0.659542  0  1.188313  0  0  0.539207  0  1.596741  0  0  0.573154  0  1.547746  0  0.659545  0  0.43192  0.516281  0  1.630528  0
H  H12  1  0.76144026  0.29261013  0.58487247  1  0  0.398198  0  0.900068  0  0  0.367062  0  0.977414  0  0  0.380275  0  0.963621  0  0.661952  0  0.298431  0.357825  0  0.986882  0
H  H13  1  0.26144003  0.20739203  0.91512851  1  0  0.398228  0  0.900047  0  0  0.367086  0  0.977399  0  0  0.380299  0  0.963604  0  0.661965  0  0.298432  0.357849  0  0.986868  0
H  H14  1  0.23855824  0.70739140  0.41512876  1  0  0.398209  0  0.900077  0  0  0.367074  0  0.977417  0  0  0.380288  0  0.963623  0  0.661961  0  0.298433  0.357839  0  0.986885  0
H  H15  1  0.73856044  0.79260765  0.08487148  1  0  0.398221  0  0.900051  0  0  0.367081  0  0.977396  0  0  0.380295  0  0.963602  0  0.661966  0  0.298434  0.357845  0  0.986864  0
H  H16  1  0.63019656  0.80797201  0.26964292  1  0  0.106291  0  0.918903  0  0  0.117123  0  0.975995  0  0  0.120389  0  0.972303  0  0.152631  0  0.129019  0.114449  0  0.979159  0
H  H17  1  0.13019436  0.69202796  0.23035831  1  0  0.106302  0  0.918833  0  0  0.117128  0  0.975938  0  0  0.120395  0  0.972245  0  0.152635  0  0.129015  0.114454  0  0.979103  0
H  H18  1  0.36980391  0.19202859  0.73035731  1  0  0.106304  0  0.918904  0  0  0.117142  0  0.975985  0  0  0.120407  0  0.972294  0  0.152681  0  0.129034  0.114467  0  0.97915  0
H  H19  1  0.86980316  0.30797078  0.76964294  1  0  0.106308  0  0.918913  0  0  0.117142  0  0.975999  0  0  0.120409  0  0.972305  0  0.152685  0  0.129021  0.114466  0  0.979166  0
H  H20  1  0.80181340  0.66834069  0.30675709  1  0  0.102745  0  0.950022  0  0  0.111035  0  1.013802  0  0  0.114222  0  1.010706  0  0.148473  0  0.123156  0.108305  0  1.016948  0
H  H21  1  0.30180922  0.83166022  0.19324288  1  0  0.102802  0  0.950084  0  0  0.111079  0  1.013877  0  0  0.114266  0  1.010781  0  0.148464  0  0.123196  0.108347  0  1.017023  0
H  H22  1  0.19818510  0.33165899  0.69324215  1  0  0.102771  0  0.949988  0  0  0.111065  0  1.013763  0  0  0.114253  0  1.010666  0  0.148474  0  0.123163  0.108335  0  1.016909  0
H  H23  1  0.69818534  0.16834039  0.80675660  1  0  0.102775  0  0.94998  0  0  0.111076  0  1.013754  0  0  0.114263  0  1.010657  0  0.148471  0  0.123163  0.108345  0  1.016901  0
H  H24  1  0.69058203  0.35010718  0.41813138  1  0  0.114716  0  0.947055  0  0  0.12132  0  1.006724  0  0  0.124607  0  1.004355  0  0.172621  0  0.125521  0.118839  0  1.008738  0
H  H25  1  0.19058081  0.14989405  0.08186861  1  0  0.114693  0  0.947073  0  0  0.121305  0  1.006731  0  0  0.124591  0  1.004364  0  0.172613  0  0.125521  0.118825  0  1.008745  0
H  H26  1  0.30941942  0.64989342  0.58186886  1  0  0.114684  0  0.947088  0  0  0.12129  0  1.006749  0  0  0.124575  0  1.004384  0  0.172614  0  0.125521  0.118809  0  1.008764  0
H  H27  1  0.80941966  0.85010656  0.91813162  1  0  0.114683  0  0.947091  0  0  0.121289  0  1.00676  0  0  0.124575  0  1.004392  0  0.172603  0  0.125521  0.118809  0  1.008774  0
H  H28  1  0.84662311  0.47378542  0.34469959  1  0  0.08844  0  0.951538  0  0  0.093316  0  1.02672  0  0  0.097315  0  1.021713  0  0.092846  0  0.116044  0.090092  0  1.031138  0
H  H29  1  0.34662287  0.02621488  0.15530015  1  0  0.088439  0  0.951534  0  0  0.093327  0  1.026708  0  0  0.097325  0  1.021703  0  0.093161  0  0.116047  0.090102  0  1.031126  0
H  H30  1  0.15337736  0.52621426  0.65529965  1  0  0.088446  0  0.951523  0  0  0.093328  0  1.026706  0  0  0.097327  0  1.021698  0  0.09315  0  0.116048  0.090103  0  1.031124  0
H  H31  1  0.65337759  0.97378572  0.84470083  1  0  0.088436  0  0.951527  0  0  0.093316  0  1.026714  0  0  0.097315  0  1.021707  0  0.093152  0  0.116029  0.090091  0  1.031134  0
C  C32  1  0.90999222  0.94466808  0.62248436  1  0  0.604905  0  3.965872  0  0  0.555048  0  4.253472  0  0  0.58828  0  4.251732  0  1.600598  0  0.191916  0.532535  0  4.253603  0
C  C33  1  0.40999297  0.55533375  0.87751586  1  0  0.604979  0  3.965807  0  0  0.555123  0  4.253399  0  0  0.588359  0  4.251654  0  1.600607  0  0.191959  0.53261  0  4.25353  0
C  C34  1  0.09000727  0.05533252  0.37751438  1  0  0.604932  0  3.966021  0  0  0.555052  0  4.253622  0  0  0.588286  0  4.25188  0  1.600403  0  0.191914  0.532539  0  4.253752  0
C  C35  1  0.59000750  0.44466778  0.12248461  1  0  0.604887  0  3.965899  0  0  0.555042  0  4.253474  0  0  0.588276  0  4.251733  0  1.60043  0  0.191901  0.53253  0  4.253604  0
C  C36  1  0.83230833  0.90837341  0.52050062  1  0  0.065326  0  3.665109  0  0  0.059414  0  3.906487  0  0  0.059282  0  3.923  0  0.542336  0  0.119849  0.058731  0  3.896582  0
C  C37  1  0.33230711  0.59162842  0.97949885  1  0  0.065299  0  3.664946  0  0  0.059402  0  3.906318  0  0  0.059269  0  3.922829  0  0.542348  0  0.119836  0.058719  0  3.896415  0
C  C38  1  0.16769115  0.09162627  0.47949862  1  0  0.065217  0  3.665163  0  0  0.059369  0  3.906455  0  0  0.059236  0  3.92297  0  0.542333  0  0.119813  0.058686  0  3.896548  0
C  C39  1  0.66769335  0.40837311  0.02050088  1  0  0.065277  0  3.665097  0  0  0.059377  0  3.906454  0  0  0.059244  0  3.922966  0  0.542317  0  0.119829  0.058692  0  3.896551  0
C  C40  1  0.74074379  0.98843136  0.49686792  1  0  0.079582  0  3.636197  0  0  0.076131  0  3.879077  0  0  0.077997  0  3.892369  0  0.535583  0  0.134715  0.073849  0  3.87162  0
C  C41  1  0.24074355  0.51156954  0.00313131  1  0  0.079612  0  3.636148  0  0  0.076133  0  3.879051  0  0  0.078001  0  3.892341  0  0.535577  0  0.134724  0.073851  0  3.871595  0
C  C42  1  0.25925570  0.01156924  0.50313082  1  0  0.079617  0  3.636198  0  0  0.076165  0  3.879047  0  0  0.078033  0  3.89234  0  0.535561  0  0.134709  0.073884  0  3.871589  0
C  C43  1  0.75925692  0.48842920  0.99686994  1  0  0.079628  0  3.6361  0  0  0.076178  0  3.879015  0  0  0.078048  0  3.892305  0  0.53555  0  0.134696  0.073897  0  3.871558  0
C  C44  1  0.71361442  0.11865273  0.56782901  1  0  0.662513  0  3.829864  0  0  0.607561  0  4.135709  0  0  0.643034  0  4.122388  0  1.619624  0  0.231994  0.583238  0  4.144416  0
C  C45  1  0.21361321  0.38134943  0.93217272  1  0  0.662553  0  3.829799  0  0  0.607615  0  4.135623  0  0  0.643091  0  4.122298  0  1.619496  0  0.232024  0.583291  0  4.144332  0
C  C46  1  0.28638604  0.88134880  0.43217222  1  0  0.662441  0  3.829849  0  0  0.607473  0  4.135719  0  0  0.642945  0  4.122402  0  1.61951  0  0.23197  0.583149  0  4.144427  0
C  C47  1  0.78638726  0.61865025  0.06782877  1  0  0.662439  0  3.829709  0  0  0.607427  0  4.135655  0  0  0.642897  0  4.122342  0  1.61951  0  0.231906  0.583102  0  4.144366  0
C  C48  1  0.68857981  0.83746851  0.34134656  1  0  0.10884  0  3.638454  0  0  0.076405  0  3.899195  0  0  0.083517  0  3.908852  0  0.508599  0  0.061572  0.071039  0  3.894253  0
C  C49  1  0.18857958  0.66253332  0.15865291  1  0  0.108884  0  3.638373  0  0  0.076451  0  3.89912  0  0  0.083564  0  3.908774  0  0.508525  0  0.061625  0.071086  0  3.894177  0
C  C50  1  0.31141869  0.16253302  0.65865317  1  0  0.108808  0  3.638398  0  0  0.076374  0  3.899148  0  0  0.083487  0  3.908804  0  0.508512  0  0.061541  0.07101  0  3.894203  0
C  C51  1  0.81141991  0.33746543  0.84134684  1  0  0.108822  0  3.638366  0  0  0.076397  0  3.89911  0  0  0.083509  0  3.908764  0  0.508484  0  0.06161  0.071032  0  3.894168  0
C  C52  1  0.78276870  0.75921851  0.36299104  1  0  0.088229  0  3.66931  0  0  0.054373  0  3.93308  0  0  0.05895  0  3.944063  0  0.532182  0  0.057161  0.050501  0  3.927319  0
C  C53  1  0.28276551  0.74078332  0.13700918  1  0  0.088117  0  3.669506  0  0  0.054258  0  3.933289  0  0  0.058834  0  3.944273  0  0.532144  0  0.057076  0.050388  0  3.927528  0
C  C54  1  0.21723078  0.24078209  0.63700844  1  0  0.088213  0  3.669216  0  0  0.054348  0  3.933007  0  0  0.058925  0  3.943989  0  0.532162  0  0.057161  0.050477  0  3.927245  0
C  C55  1  0.71723200  0.25921821  0.86299205  1  0  0.088212  0  3.66926  0  0  0.054328  0  3.933069  0  0  0.058904  0  3.944051  0  0.532166  0  0.057136  0.050456  0  3.92731  0
C  C56  1  0.89232072  0.15921611  0.03693702  1  0  0.597076  0  3.981124  0  0  0.544805  0  4.2692  0  0  0.578123  0  4.266945  0  1.600588  0  0.189209  0.522414  0  4.269584  0
C  C57  1  0.39232049  0.34078326  0.46306247  1  0  0.597051  0  3.981189  0  0  0.544797  0  4.269236  0  0  0.578114  0  4.266985  0  1.600571  0  0.189215  0.522406  0  4.269619  0
C  C58  1  0.10768073  0.84078263  0.96306347  1  0  0.597112  0  3.981077  0  0  0.544843  0  4.269148  0  0  0.57816  0  4.266895  0  1.600586  0  0.18923  0.522452  0  4.269534  0
C  C59  1  0.60768096  0.65921734  0.53693776  1  0  0.597096  0  3.981151  0  0  0.544815  0  4.269211  0  0  0.578134  0  4.266954  0  1.600576  0  0.189215  0.522427  0  4.269599  0
C  C60  1  0.83918025  0.21407598  0.14690027  1  0  0.051272  0  3.679658  0  0  0.048742  0  3.918033  0  0  0.047075  0  3.935585  0  0.557134  0  0.118537  0.04923  0  3.907472  0
C  C61  1  0.33918100  0.28592339  0.35309923  1  0  0.051239  0  3.679752  0  0  0.04876  0  3.918145  0  0  0.047074  0  3.935683  0  0.557122  0  0.118542  0.049249  0  3.907583  0
C  C62  1  0.16082022  0.78592183  0.85309998  1  0  0.051211  0  3.679656  0  0  0.048744  0  3.918099  0  0  0.047057  0  3.935638  0  0.557146  0  0.118512  0.04923  0  3.90754  0
C  C63  1  0.66082045  0.71407721  0.64690100  1  0  0.051227  0  3.679767  0  0  0.048771  0  3.918045  0  0  0.047103  0  3.935598  0  0.557128  0  0.118532  0.049257  0  3.907485  0
C  C64  1  0.75193711  0.14572191  0.18889084  1  0  0.078144  0  3.681221  0  0  0.078203  0  3.925386  0  0  0.079797  0  3.938986  0  0.529718  0  0.13369  0.076453  0  3.917303  0
C  C65  1  0.25193884  0.35427746  0.31110866  1  0  0.078261  0  3.681171  0  0  0.078163  0  3.925529  0  0  0.079826  0  3.939033  0  0.52973  0  0.133683  0.076415  0  3.917445  0
C  C66  1  0.24806238  0.85427776  0.81110915  1  0  0.078302  0  3.680986  0  0  0.078147  0  3.925471  0  0  0.079807  0  3.938979  0  0.529759  0  0.133717  0.0764  0  3.917386  0
C  C67  1  0.74806261  0.64572221  0.68889133  1  0  0.078151  0  3.681229  0  0  0.078194  0  3.925392  0  0  0.079788  0  3.938991  0  0.529767  0  0.13369  0.076444  0  3.91731  0
C  C68  1  0.70497162  0.01595030  0.13035870  1  0  0.660854  0  3.899729  0  0  0.596182  0  4.204607  0  0  0.634155  0  4.192765  0  1.630984  0  0.219661  0.57007  0  4.212045  0
C  C69  1  0.20497237  0.48404907  0.36964155  1  0  0.660849  0  3.899697  0  0  0.596219  0  4.204581  0  0  0.634175  0  4.192734  0  1.630988  0  0.219683  0.570107  0  4.212021  0
C  C70  1  0.29502590  0.98404844  0.86964105  1  0  0.660941  0  3.899432  0  0  0.596275  0  4.204409  0  0  0.634229  0  4.19256  0  1.630932  0  0.2197  0.570161  0  4.211851  0
C  C71  1  0.79502810  0.51595153  0.63035868  1  0  0.660965  0  3.899551  0  0  0.596273  0  4.204472  0  0  0.634245  0  4.192627  0  1.630942  0  0.219686  0.570161  0  4.211913  0
C  C72  1  0.73492023  0.30996631  0.34091932  1  0  0.112385  0  3.624866  0  0  0.0839  0  3.882216  0  0  0.089887  0  3.892769  0  0.524569  0  0.063697  0.079644  0  3.876044  0
C  C73  1  0.23491999  0.19003306  0.15908018  1  0  0.112374  0  3.624805  0  0  0.083888  0  3.882168  0  0  0.089875  0  3.892723  0  0.524506  0  0.06367  0.079633  0  3.875986  0
C  C74  1  0.26508123  0.69003336  0.65908067  1  0  0.112411  0  3.625007  0  0  0.08394  0  3.88234  0  0  0.089926  0  3.892897  0  0.524521  0  0.063708  0.079689  0  3.876154  0
C  C75  1  0.76508048  0.80996661  0.84092056  1  0  0.112379  0  3.624885  0  0  0.083896  0  3.882251  0  0  0.089882  0  3.892802  0  0.524521  0  0.063698  0.079646  0  3.876064  0
C  C76  1  0.82092896  0.37892210  0.29949765  1  0  0.090076  0  3.648928  0  0  0.05751  0  3.909568  0  0  0.061303  0  3.92228  0  0.523673  0  0.055395  0.054221  0  3.902323  0
C  C77  1  0.32092873  0.12107820  0.20050134  1  0  0.090081  0  3.648907  0  0  0.057494  0  3.909569  0  0  0.061286  0  3.922285  0  0.523353  0  0.05538  0.054209  0  3.902324  0
C  C78  1  0.17907249  0.62107850  0.70050108  1  0  0.090063  0  3.648966  0  0  0.057482  0  3.909623  0  0  0.061273  0  3.922338  0  0.523361  0  0.055382  0.054196  0  3.902381  0
C  C79  1  0.67907272  0.87892148  0.79949865  1  0  0.090082  0  3.648926  0  0  0.057496  0  3.909588  0  0  0.06129  0  3.9223  0  0.523188  0  0.055391  0.054206  0  3.902349  0
N  N80  1  0.66772977  0.95188504  0.40788689  1  0  -0.244416  0  3.259066  0  0  -0.177975  0  3.541937  0  0  -0.188535  0  3.551418  0  -1.158279  0  -0.314783  -0.171282  0  3.536571  0
N  N81  1  0.16772757  0.54811493  0.09211284  1  0  -0.244447  0  3.258946  0  0  -0.177995  0  3.54182  0  0  -0.188553  0  3.551298  0  -1.158202  0  -0.31482  -0.171303  0  3.536456  0
N  N82  1  0.33227069  0.04811463  0.59211235  1  0  -0.244381  0  3.258942  0  0  -0.177951  0  3.541818  0  0  -0.188513  0  3.5513  0  -1.158177  0  -0.314756  -0.171258  0  3.536452  0
N  N83  1  0.83227191  0.45188474  0.90788790  1  0  -0.244429  0  3.258818  0  0  -0.17799  0  3.541694  0  0  -0.188548  0  3.551171  0  -1.158162  0  -0.314788  -0.171298  0  3.53633  0
N  N84  1  0.85188360  0.79396988  0.45261218  1  0  -0.259542  0  3.291393  0  0  -0.198748  0  3.577412  0  0  -0.208493  0  3.588535  0  -1.209047  0  -0.314668  -0.192372  0  3.57052  0
N  N85  1  0.35188140  0.70603195  0.04738804  1  0  -0.259536  0  3.291352  0  0  -0.198738  0  3.577358  0  0  -0.208484  0  3.588483  0  -1.20903  0  -0.314663  -0.192364  0  3.570467  0
N  N86  1  0.14811588  0.20603072  0.54738730  1  0  -0.259521  0  3.291406  0  0  -0.198749  0  3.57742  0  0  -0.208494  0  3.588543  0  -1.209053  0  -0.314666  -0.192373  0  3.570527  0
N  N87  1  0.64811611  0.29396865  0.95261294  1  0  -0.259546  0  3.291348  0  0  -0.19875  0  3.577373  0  0  -0.208496  0  3.588495  0  -1.209056  0  -0.314678  -0.192377  0  3.570485  0
N  N88  1  0.70110007  0.19394519  0.28581364  1  0  -0.251161  0  3.18174  0  0  -0.197763  0  3.455909  0  0  -0.208406  0  3.467189  0  -1.187534  0  -0.300769  -0.190926  0  3.449128  0
N  N89  1  0.20109984  0.30605604  0.21418709  1  0  -0.251197  0  3.181708  0  0  -0.197756  0  3.455925  0  0  -0.208417  0  3.467181  0  -1.187479  0  -0.300744  -0.190919  0  3.449148  0
N  N90  1  0.29890040  0.80605448  0.71418635  1  0  -0.251242  0  3.181755  0  0  -0.197775  0  3.455984  0  0  -0.208436  0  3.467241  0  -1.187507  0  -0.300798  -0.190939  0  3.449206  0
N  N91  1  0.79890063  0.69394456  0.78581389  1  0  -0.251155  0  3.181719  0  0  -0.19777  0  3.455893  0  0  -0.208411  0  3.467171  0  -1.187518  0  -0.300773  -0.190933  0  3.449114  0
N  N92  1  0.87285177  0.33100712  0.20308489  1  0  -0.246608  0  3.259495  0  0  -0.179979  0  3.533359  0  0  -0.190765  0  3.54785  0  -1.164096  0  -0.311575  -0.172992  0  3.524572  0
N  N93  1  0.37285153  0.16899318  0.29691485  1  0  -0.246577  0  3.259499  0  0  -0.179932  0  3.533352  0  0  -0.190721  0  3.547853  0  -1.16408  0  -0.311556  -0.172947  0  3.524565  0
N  N94  1  0.12714870  0.66899163  0.79691486  1  0  -0.246577  0  3.259526  0  0  -0.179941  0  3.533391  0  0  -0.190727  0  3.547887  0  -1.164083  0  -0.311544  -0.172958  0  3.524608  0
N  N95  1  0.62714894  0.83100649  0.70308513  1  0  -0.246587  0  3.259489  0  0  -0.179967  0  3.533351  0  0  -0.190756  0  3.547842  0  -1.163892  0  -0.311552  -0.172981  0  3.524568  0
O  O96  1  0.97204423  0.86288667  0.64878144  1  0  -0.597447  0  1.998366  0  0  -0.543848  0  2.252164  0  0  -0.571838  0  2.244987  0  -1.13704  0  -0.320091  -0.524238  0  2.256629  0
O  O97  1  0.47204498  0.63711516  0.85121878  1  0  -0.597441  0  1.998434  0  0  -0.543851  0  2.252242  0  0  -0.571844  0  2.245065  0  -1.137092  0  -0.320093  -0.524242  0  2.256706  0
O  O98  1  0.02795525  0.13711300  0.35121780  1  0  -0.597399  0  1.998491  0  0  -0.543798  0  2.252282  0  0  -0.57179  0  2.245106  0  -1.137073  0  -0.320046  -0.52419  0  2.256745  0
O  O99  1  0.52795549  0.36288730  0.14878119  1  0  -0.597409  0  1.9984  0  0  -0.543812  0  2.252201  0  0  -0.571804  0  2.245024  0  -1.137033  0  -0.32006  -0.524205  0  2.256665  0
O  O100  1  0.90279644  0.06004881  0.67486977  1  0  -0.624712  0  2.097051  0  0  -0.546316  0  2.35913  0  0  -0.582174  0  2.353264  0  -1.115589  0  -0.322182  -0.520522  0  2.361693  0
O  O101  1  0.40279522  0.43995242  0.82512946  1  0  -0.624767  0  2.096985  0  0  -0.546382  0  2.359091  0  0  -0.582243  0  2.353224  0  -1.115545  0  -0.322219  -0.520589  0  2.361655  0
O  O102  1  0.09720600  0.93995180  0.32512821  1  0  -0.624735  0  2.097097  0  0  -0.546341  0  2.35917  0  0  -0.582203  0  2.353311  0  -1.11537  0  -0.322214  -0.520547  0  2.361732  0
O  O103  1  0.59720623  0.56004911  0.17487101  1  0  -0.624697  0  2.097081  0  0  -0.54631  0  2.359156  0  0  -0.582171  0  2.353294  0  -1.115412  0  -0.322177  -0.520517  0  2.361716  0
O  O104  1  0.62816481  0.14026741  0.63651064  1  0  -0.561496  0  1.976557  0  0  -0.524413  0  2.229861  0  0  -0.54717  0  2.217797  0  -1.135803  0  -0.280697  -0.508083  0  2.237963  0
O  O105  1  0.12816359  0.35973197  0.86348885  1  0  -0.561527  0  1.976432  0  0  -0.524443  0  2.229739  0  0  -0.5472  0  2.217676  0  -1.135804  0  -0.280709  -0.508113  0  2.23784  0
O  O106  1  0.37183664  0.85973041  0.36348886  1  0  -0.561485  0  1.97654  0  0  -0.524384  0  2.229847  0  0  -0.547141  0  2.217788  0  -1.135801  0  -0.280658  -0.508053  0  2.237945  0
O  O107  1  0.87183688  0.64026771  0.13651263  1  0  -0.561457  0  1.976435  0  0  -0.524344  0  2.229787  0  0  -0.547099  0  2.217729  0  -1.135853  0  -0.280617  -0.508013  0  2.237888  0
O  O108  1  0.78323234  0.20180938  0.53978697  1  0  -0.553572  0  2.144854  0  0  -0.509823  0  2.391626  0  0  -0.532381  0  2.373688  0  -1.182482  0  -0.327386  -0.493923  0  2.403641  0
O  O109  1  0.28323014  0.29819278  0.96021401  1  0  -0.553609  0  2.144952  0  0  -0.509889  0  2.391779  0  0  -0.532447  0  2.373837  0  -1.182342  0  -0.327399  -0.493991  0  2.403797  0
O  O110  1  0.21676714  0.79819123  0.46021327  1  0  -0.553545  0  2.14486  0  0  -0.509786  0  2.391611  0  0  -0.532342  0  2.37367  0  -1.182373  0  -0.32738  -0.493887  0  2.403628  0
O  O111  1  0.71677033  0.70180689  0.03978598  1  0  -0.553587  0  2.144896  0  0  -0.50984  0  2.391746  0  0  -0.532398  0  2.373808  0  -1.182314  0  -0.327388  -0.493941  0  2.403764  0
O  O112  1  0.97871731  0.22153438  0.00478363  1  0  -0.622997  0  2.121646  0  0  -0.538479  0  2.39418  0  0  -0.572297  0  2.385583  0  -1.132362  0  -0.330412  -0.514676  0  2.399152  0
O  O113  1  0.47871707  0.27846592  0.49521611  1  0  -0.622997  0  2.121661  0  0  -0.538486  0  2.394188  0  0  -0.572307  0  2.385593  0  -1.132391  0  -0.330422  -0.514683  0  2.39916  0
O  O114  1  0.02128513  0.77846251  0.99521563  1  0  -0.623057  0  2.121656  0  0  -0.538523  0  2.39418  0  0  -0.572343  0  2.385586  0  -1.13242  0  -0.330434  -0.514714  0  2.399131  0
O  O115  1  0.52128438  0.72153468  0.50478487  1  0  -0.623051  0  2.121736  0  0  -0.53853  0  2.394277  0  0  -0.572351  0  2.385681  0  -1.132396  0  -0.330432  -0.514702  0  2.399186  0
O  O116  1  0.84529715  0.05683590  0.98279804  1  0  -0.609483  0  2.004049  0  0  -0.558134  0  2.256308  0  0  -0.586659  0  2.249667  0  -1.150844  0  -0.304555  -0.53768  0  2.25978  0
O  O117  1  0.34529594  0.44316347  0.51720146  1  0  -0.609489  0  2.004095  0  0  -0.55814  0  2.256331  0  0  -0.586666  0  2.249691  0  -1.150829  0  -0.30455  -0.537687  0  2.259804  0
O  O118  1  0.15470233  0.94316377  0.01720120  1  0  -0.609477  0  2.004059  0  0  -0.558145  0  2.256332  0  0  -0.586671  0  2.249694  0  -1.150837  0  -0.304544  -0.537691  0  2.259804  0
O  O119  1  0.65470453  0.55683620  0.48279928  1  0  -0.609476  0  2.004046  0  0  -0.558135  0  2.2563  0  0  -0.586661  0  2.249659  0  -1.15083  0  -0.304535  -0.537683  0  2.259771  0
O  O120  1  0.59687942  0.00769426  0.08076430  1  0  -0.633456  0  2.203295  0  0  -0.552204  0  2.506735  0  0  -0.584793  0  2.49048  0  -1.133448  0  -0.319453  -0.529032  0  2.516954  0
O  O121  1  0.09688115  0.49230512  0.41923745  1  0  -0.633442  0  2.203353  0  0  -0.552166  0  2.506755  0  0  -0.584753  0  2.490506  0  -1.133439  0  -0.319422  -0.52899  0  2.516972  0
O  O122  1  0.40312006  0.99230542  0.91923719  1  0  -0.633501  0  2.203214  0  0  -0.552209  0  2.506637  0  0  -0.584798  0  2.49039  0  -1.133424  0  -0.319447  -0.529036  0  2.516857  0
O  O123  1  0.90312030  0.50769456  0.58076329  1  0  -0.633493  0  2.203265  0  0  -0.552215  0  2.506687  0  0  -0.5848  0  2.49043  0  -1.133473  0  -0.319446  -0.52904  0  2.516905  0
O  O124  1  0.76819996  0.92556244  0.14439026  1  0  -0.62124  0  2.132901  0  0  -0.552392  0  2.400049  0  0  -0.582708  0  2.385858  0  -1.170079  0  -0.304332  -0.531033  0  2.409133  0
O  O125  1  0.26820169  0.57443753  0.35561022  1  0  -0.621275  0  2.13287  0  0  -0.552431  0  2.399996  0  0  -0.582751  0  2.385819  0  -1.170069  0  -0.304369  -0.531072  0  2.409083  0
O  O126  1  0.23179756  0.07443816  0.85561072  1  0  -0.621347  0  2.132839  0  0  -0.552438  0  2.39993  0  0  -0.582766  0  2.385774  0  -1.170064  0  -0.304368  -0.531078  0  2.409017  0
O  O127  1  0.73179779  0.42556307  0.64439001  1  0  -0.621307  0  2.132804  0  0  -0.552431  0  2.399913  0  0  -0.582758  0  2.385752  0  -1.170061  0  -0.304346  -0.531071  0  2.409001  0
