# generated using pymatgen
data_AlH9C24(NO4)3
_symmetry_space_group_name_H-M   'P 1'
_cell_length_a   4.02392035
_cell_length_b   28.97607329
_cell_length_c   28.97624665
_cell_angle_alpha   119.99334583
_cell_angle_beta   90.00236738
_cell_angle_gamma   89.99710904
_symmetry_Int_Tables_number   1
_chemical_formula_structural   AlH9C24(NO4)3
_chemical_formula_sum   'Al2 H18 C48 N6 O24'
_cell_volume   2926.11091544
_cell_formula_units_Z   2
loop_
 _symmetry_equiv_pos_site_id
 _symmetry_equiv_pos_as_xyz
  1  'x, y, z'
loop_
 _atom_site_type_symbol
 _atom_site_label
 _atom_site_symmetry_multiplicity
 _atom_site_fract_x
 _atom_site_fract_y
 _atom_site_fract_z
 _atom_site_occupancy
 _atom_site_pbe_bader_charge
 _atom_site_pbe_bader_spin_density
 _atom_site_pbe_cm5_charge
 _atom_site_pbe_ddec_charge
 _atom_site_pbe_ddec_spin_density
 _atom_site_pbe_ddec_sum_bond_order
 _atom_site_pbe_magmom
Al  Al0  1  0.95731808  0.50000831  0.49999210  1  2.507483  0  0.432357  1.599465  0  2.575339  0
Al  Al1  1  0.95679070  0.16665786  0.83335443  1  2.50765  0  0.432985  1.60048  0  2.573359  0
H  H2  1  0.14786319  0.18173272  0.69921899  1  0.097232  0  0.119221  0.125877  0  0.970653  0
H  H3  1  0.15526501  0.23353671  0.65143366  1  0.102529  0  0.122135  0.137132  0  0.960762  0
H  H4  1  0.74733721  0.30300172  0.82430424  1  0.148615  0  0.125292  0.141494  0  0.984585  0
H  H5  1  0.74773744  0.36366673  0.50906468  1  0.149502  0  0.12523  0.141351  0  0.984796  0
H  H6  1  0.14816684  0.48494804  0.63413080  1  0.096827  0  0.119267  0.126001  0  0.970412  0
H  H7  1  0.15532296  0.43312800  0.68189973  1  0.102745  0  0.122085  0.136991  0  0.960647  0
H  H8  1  0.14786299  0.01745250  0.81827522  1  0.136782  0  0.119329  0.125896  0  0.970469  0
H  H9  1  0.15516349  0.91787225  0.76645832  1  0.086174  0  0.122106  0.137089  0  0.96069  0
H  H10  1  0.74739172  0.02128381  0.69700677  1  0.171972  0  0.125299  0.141592  0  0.984685  0
H  H11  1  0.74774504  0.64540091  0.63631825  1  0.171642  0  0.125193  0.141289  0  0.984809  0
H  H12  1  0.14809994  0.64920140  0.51503654  1  0.138026  0  0.119324  0.125881  0  0.970514  0
H  H13  1  0.15523435  0.74878155  0.56684660  1  0.14038  0  0.122084  0.137106  0  0.960609  0
H  H14  1  0.14783844  0.30078553  0.98252035  1  0.103124  0  0.119294  0.125889  0  0.970568  0
H  H15  1  0.15514362  0.34857568  0.08210063  1  0.092131  0  0.122192  0.137246  0  0.960792  0
H  H16  1  0.74743243  0.17572109  0.97876348  1  0.186703  0  0.12528  0.14146  0  0.984834  0
H  H17  1  0.74775653  0.49092665  0.35458473  1  0.186688  0  0.125221  0.141327  0  0.984844  0
H  H18  1  0.14817420  0.36586266  0.35081439  1  0.106809  0  0.119267  0.125971  0  0.970419  0
H  H19  1  0.15526580  0.31810180  0.25123474  1  0.092147  0  0.122116  0.137023  0  0.960807  0
C  C20  1  0.45530552  0.45933148  0.41834497  1  1.625752  0  0.276879  0.653571  0  4.064188  0
C  C21  1  0.45533340  0.45903054  0.54066840  1  1.558602  0  0.276928  0.653732  0  4.063326  0
C  C22  1  0.45527904  0.58165727  0.54096557  1  1.565861  0  0.276655  0.653023  0  4.063965  0
C  C23  1  0.45477439  0.20765864  0.79270121  1  1.559869  0  0.276836  0.652996  0  4.063592  0
C  C24  1  0.45482626  0.08501170  0.79235315  1  1.564527  0  0.277173  0.653385  0  4.064172  0
C  C25  1  0.45483210  0.20730729  0.91499775  1  1.624704  0  0.276803  0.653033  0  4.06435  0
C  C26  1  0.44738381  0.23889017  0.76471239  1  0.017194  0  -0.006288  -0.03557  0  3.957692  0
C  C27  1  0.27785145  0.21974222  0.71610493  1  -0.010502  0  -0.06461  -0.066727  0  3.952247  0
C  C28  1  0.28001689  0.24856216  0.68969050  1  0.012504  0  -0.069719  -0.117157  0  3.909727  0
C  C29  1  0.44149293  0.29864217  0.71187709  1  0.125041  0  0.020415  0.101399  0  4.077463  0
C  C30  1  0.60336382  0.31743170  0.76146272  1  0.207552  0  0.081976  0.015531  0  3.894497  0
C  C31  1  0.61213302  0.28774784  0.78700532  1  0.035231  0  -0.062414  -0.11628  0  3.942839  0
C  C32  1  0.43932423  0.32568907  0.68287187  1  0.191242  0  -0.016506  -0.04582  0  4.04749  0
C  C33  1  0.43928940  0.34096327  0.65046076  1  -0.413998  0  -0.016733  -0.046235  0  4.047853  0
C  C34  1  0.44152934  0.36801273  0.62145851  1  0.090629  0  0.020496  0.101332  0  4.077045  0
C  C35  1  0.60346953  0.34922252  0.57187798  1  0.206835  0  0.082101  0.015994  0  3.893198  0
C  C36  1  0.61242683  0.37891997  0.54635145  1  0.033406  0  -0.062345  -0.116014  0  3.942052  0
C  C37  1  0.44775848  0.42778658  0.56864552  1  0.018438  0  -0.006217  -0.035933  0  3.958092  0
C  C38  1  0.27810669  0.44693135  0.61724276  1  -0.009665  0  -0.064828  -0.067209  0  3.952747  0
C  C39  1  0.28011877  0.41810119  0.64364739  1  0.012469  0  -0.069602  -0.116758  0  3.909487  0
C  C40  1  0.44742417  0.02579565  0.76111688  1  0.025268  0  -0.00615  -0.035503  0  3.958003  0
C  C41  1  0.27785757  0.99633733  0.78026213  1  -0.121346  0  -0.064815  -0.066729  0  3.952227  0
C  C42  1  0.27997319  0.94110557  0.75143445  1  0.097579  0  -0.069671  -0.117135  0  3.909865  0
C  C43  1  0.44139804  0.91322233  0.70135447  1  0.147524  0  0.020292  0.101425  0  4.077792  0
C  C44  1  0.60329902  0.94402230  0.68257085  1  0.21806  0  0.082004  0.015823  0  3.894183  0
C  C45  1  0.61215044  0.99923742  0.71225507  1  -0.000549  0  -0.06248  -0.116754  0  3.943168  0
C  C46  1  0.43913774  0.85717744  0.67430199  1  0.16302  0  -0.016621  -0.046021  0  4.047828  0
C  C47  1  0.43909191  0.80949058  0.65901839  1  -0.451952  0  -0.016455  -0.046061  0  4.047644  0
C  C48  1  0.44137692  0.75344627  0.63196532  1  0.149716  0  0.020225  0.101458  0  4.077402  0
C  C49  1  0.60336904  0.72265504  0.65075429  1  0.21626  0  0.08209  0.015964  0  3.89335  0
C  C50  1  0.61236837  0.66743960  0.62106623  1  0.001834  0  -0.062567  -0.116368  0  3.94238  0
C  C51  1  0.44766841  0.64086903  0.57219788  1  0.022456  0  -0.006025  -0.035461  0  3.957806  0
C  C52  1  0.27802226  0.67032372  0.55305388  1  -0.122737  0  -0.064967  -0.067094  0  3.952334  0
C  C53  1  0.28002203  0.72555656  0.58188185  1  0.043593  0  -0.069532  -0.117026  0  3.909364  0
C  C54  1  0.44739024  0.23529971  0.97421429  1  -0.04691  0  -0.006207  -0.035356  0  3.957367  0
C  C55  1  0.27780776  0.28390224  0.00365418  1  -0.001671  0  -0.064705  -0.066668  0  3.951946  0
C  C56  1  0.27990853  0.31031970  0.05888442  1  0.021438  0  -0.069791  -0.117467  0  3.910042  0
C  C57  1  0.44131891  0.28813617  0.08678675  1  0.011402  0  0.02019  0.101419  0  4.077662  0
C  C58  1  0.60326989  0.23855109  0.05601077  1  0.327546  0  0.081994  0.01587  0  3.894174  0
C  C59  1  0.61214085  0.21301197  0.00079455  1  -0.10688  0  -0.062356  -0.116552  0  3.94311  0
C  C60  1  0.43910017  0.31713786  0.14283179  1  -0.464057  0  -0.016611  -0.046317  0  4.047768  0
C  C61  1  0.43912118  0.34955034  0.19051356  1  0.422251  0  -0.016464  -0.045699  0  4.047644  0
C  C62  1  0.44142788  0.37854420  0.24655676  1  0.010676  0  0.020387  0.101262  0  4.077069  0
C  C63  1  0.60342963  0.42812166  0.27733927  1  0.328216  0  0.082102  0.015878  0  3.893299  0
C  C64  1  0.61242683  0.45364552  0.33255624  1  -0.099426  0  -0.06242  -0.116018  0  3.942373  0
C  C65  1  0.44774459  0.43134986  0.35912800  1  -0.056908  0  -0.006312  -0.036184  0  3.958573  0
C  C66  1  0.27808366  0.38275447  0.32968579  1  -0.006232  0  -0.064783  -0.066997  0  3.952819  0
C  C67  1  0.28005851  0.35635294  0.27445755  1  0.021889  0  -0.069616  -0.116788  0  3.909682  0
N  N68  1  0.78162969  0.36866665  0.78666977  1  0.391778  0  0.05824  0.51501  0  4.210437  0
N  N69  1  0.78161230  0.29797689  0.54665979  1  0.390391  0  0.058276  0.515312  0  4.209662  0
N  N70  1  0.78154278  0.91799743  0.63132817  1  0.376098  0  0.058193  0.514867  0  4.210345  0
N  N71  1  0.78157617  0.74868265  0.70200483  1  0.376453  0  0.058053  0.514494  0  4.210344  0
N  N72  1  0.78152730  0.21335144  0.08205396  1  0.360618  0  0.05811  0.5147  0  4.209747  0
N  N73  1  0.78155602  0.45333339  0.25130013  1  0.361261  0  0.058099  0.514798  0  4.210228  0
O  O74  1  0.69338325  0.55845787  0.55041664  1  -1.24843  0  -0.234842  -0.592602  0  2.365636  0
O  O75  1  0.69337185  0.49198564  0.44154052  1  -1.253677  0  -0.23494  -0.592908  0  2.366135  0
O  O76  1  0.69341904  0.44957923  0.50801952  1  -1.247769  0  -0.235105  -0.593109  0  2.365884  0
O  O77  1  0.22331299  0.55816344  0.50705212  1  -1.262146  0  -0.238132  -0.598303  0  2.355323  0
O  O78  1  0.22334609  0.49294385  0.55108267  1  -1.2555  0  -0.23821  -0.598532  0  2.355146  0
O  O79  1  0.22331568  0.44891848  0.44184404  1  -1.256554  0  -0.238131  -0.598366  0  2.3555  0
O  O80  1  0.69285372  0.17464701  0.89179254  1  -1.254506  0  -0.235145  -0.592982  0  2.366105  0
O  O81  1  0.69277174  0.21710514  0.82536605  1  -1.249577  0  -0.234896  -0.59275  0  2.366041  0
O  O82  1  0.69282988  0.10822939  0.78290806  1  -1.249786  0  -0.235087  -0.592881  0  2.3659  0
O  O83  1  0.22278194  0.21772854  0.89151169  1  -1.256948  0  -0.238167  -0.598455  0  2.355572  0
O  O84  1  0.22279457  0.10849020  0.82626042  1  -1.26014  0  -0.238488  -0.598785  0  2.355495  0
O  O85  1  0.22272418  0.17375622  0.78227869  1  -1.255527  0  -0.238661  -0.59882  0  2.354849  0
O  O86  1  0.76631311  0.39596879  0.76472353  1  -0.434699  0  -0.118531  -0.316286  0  1.933853  0
O  O87  1  0.94079918  0.38103647  0.82793759  1  -0.454978  0  -0.136918  -0.333535  0  1.887193  0
O  O88  1  0.76610074  0.27065356  0.56858033  1  -0.434368  0  -0.118466  -0.316496  0  1.933629  0
O  O89  1  0.94089346  0.28561568  0.50540435  1  -0.454269  0  -0.137082  -0.333744  0  1.886951  0
O  O90  1  0.76619447  0.86875488  0.60402228  1  -0.432943  0  -0.118569  -0.316304  0  1.933842  0
O  O91  1  0.94069647  0.94689394  0.61895606  1  -0.450991  0  -0.136821  -0.333412  0  1.887182  0
O  O92  1  0.76607894  0.79792251  0.72931346  1  -0.433362  0  -0.118335  -0.316041  0  1.933768  0
O  O93  1  0.94084578  0.71978720  0.71436860  1  -0.450949  0  -0.136846  -0.333388  0  1.887433  0
O  O94  1  0.76600837  0.23528016  0.13129300  1  -0.428698  0  -0.118318  -0.316002  0  1.933669  0
O  O95  1  0.94089748  0.17210166  0.05317287  1  -0.446267  0  -0.136941  -0.333501  0  1.887175  0
O  O96  1  0.76601568  0.43140853  0.20206003  1  -0.429032  0  -0.118428  -0.316245  0  1.933637  0
O  O97  1  0.94085268  0.49458897  0.28018401  1  -0.446397  0  -0.136923  -0.333492  0  1.887466  0
