# generated using pymatgen
data_CdH12C12Br(N3O)2
_symmetry_space_group_name_H-M   'P 1'
_cell_length_a   8.35945441
_cell_length_b   8.70034812
_cell_length_c   11.38625898
_cell_angle_alpha   99.17533964
_cell_angle_beta   104.54810114
_cell_angle_gamma   98.19936762
_symmetry_Int_Tables_number   1
_chemical_formula_structural   CdH12C12Br(N3O)2
_chemical_formula_sum   'Cd2 H24 C24 Br2 N12 O4'
_cell_volume   776.72209150
_cell_formula_units_Z   2
loop_
 _symmetry_equiv_pos_site_id
 _symmetry_equiv_pos_as_xyz
  1  'x, y, z'
loop_
 _atom_site_type_symbol
 _atom_site_label
 _atom_site_symmetry_multiplicity
 _atom_site_fract_x
 _atom_site_fract_y
 _atom_site_fract_z
 _atom_site_occupancy
 _atom_site_hle17_bader_spin_density
 _atom_site_hle17_ddec_charge
 _atom_site_hle17_ddec_spin_density
 _atom_site_hle17_ddec_sum_bond_order
 _atom_site_hle17_magmom
 _atom_site_hse06_10hf_bader_spin_density
 _atom_site_hse06_10hf_ddec_charge
 _atom_site_hse06_10hf_ddec_spin_density
 _atom_site_hse06_10hf_ddec_sum_bond_order
 _atom_site_hse06_10hf_magmom
 _atom_site_hse06_bader_spin_density
 _atom_site_hse06_ddec_charge
 _atom_site_hse06_ddec_spin_density
 _atom_site_hse06_ddec_sum_bond_order
 _atom_site_hse06_magmom
 _atom_site_pbe_bader_spin_density
 _atom_site_pbe_cm5_charge
 _atom_site_pbe_ddec_charge
 _atom_site_pbe_ddec_spin_density
 _atom_site_pbe_ddec_sum_bond_order
 _atom_site_pbe_magmom
Cd  Cd0  1  0.45021278  0.82911082  0.84789984  1  0  0.958352  0  1.901537  0  0  0.778006  0  2.36788  0  0  0.831235  0  2.322525  0  0  0.642375  0.741683  0  2.39751  0
Cd  Cd1  1  0.54979060  0.17088873  0.15210059  1  0  0.958327  0  1.901575  0  0  0.777985  0  2.367903  0  0  0.831213  0  2.32255  0  0  0.642362  0.741658  0  2.397526  0
H  H2  1  0.17283552  0.15579702  0.51185220  1  0  0.322355  0  0.852405  0  0  0.311113  0  0.900303  0  0  0.318186  0  0.894918  0  0  0.339591  0.306132  0  0.904169  0
H  H3  1  0.82716065  0.84420366  0.48814788  1  0  0.322328  0  0.852547  0  0  0.311104  0  0.900411  0  0  0.318181  0  0.895018  0  0  0.339566  0.306124  0  0.904277  0
H  H4  1  0.86336614  0.52563057  0.79794663  1  0  0.098925  0  0.943192  0  0  0.114242  0  1.004637  0  0  0.115756  0  1.005536  0  0  0.094742  0.11323  0  1.004104  0
H  H5  1  0.13663503  0.47437018  0.20205090  1  0  0.098957  0  0.943158  0  0  0.114277  0  1.004601  0  0  0.11579  0  1.0055  0  0  0.094762  0.113258  0  1.00408  0
H  H6  1  0.98519375  0.70851575  0.88398825  1  0  0.105688  0  0.946607  0  0  0.119064  0  1.009918  0  0  0.121879  0  1.008169  0  0  0.086484  0.117024  0  1.011382  0
H  H7  1  0.01480616  0.29148497  0.11601079  1  0  0.105691  0  0.946626  0  0  0.119071  0  1.009933  0  0  0.121886  0  1.008184  0  0  0.086494  0.117035  0  1.011397  0
H  H8  1  0.81622601  0.45948338  0.00126240  1  0  0.052399  0  0.959381  0  0  0.067788  0  1.030383  0  0  0.068545  0  1.030527  0  0  0.074858  0.067234  0  1.03029  0
H  H9  1  0.18377637  0.54051735  0.99873711  1  0  0.052358  0  0.959376  0  0  0.067749  0  1.030398  0  0  0.068498  0  1.030536  0  0  0.074842  0.067195  0  1.030305  0
H  H10  1  0.95822446  0.63753411  0.08129312  1  0  0.05473  0  0.937978  0  0  0.073957  0  0.99905  0  0  0.074276  0  1.000332  0  0  0.080802  0.073664  0  0.998251  0
H  H11  1  0.04177646  0.36246544  0.91870509  1  0  0.05471  0  0.937976  0  0  0.07394  0  0.999056  0  0  0.074252  0  1.000333  0  0  0.080797  0.073647  0  0.998257  0
H  H12  1  0.43275005  0.43425787  0.89161380  1  0  0.142087  0  0.921442  0  0  0.149347  0  0.982205  0  0  0.152884  0  0.977743  0  0  0.155557  0.147027  0  0.985537  0
H  H13  1  0.56725185  0.56574048  0.10838621  1  0  0.142047  0  0.9215  0  0  0.14935  0  0.98221  0  0  0.152887  0  0.977745  0  0  0.155562  0.14703  0  0.985543  0
H  H14  1  0.06805171  0.09873987  0.75490318  1  0  0.126026  0  0.893502  0  0  0.13941  0  0.950351  0  0  0.141854  0  0.948376  0  0  0.132335  0.137831  0  0.951988  0
H  H15  1  0.93194398  0.90125843  0.24509739  1  0  0.126011  0  0.89344  0  0  0.139376  0  0.950303  0  0  0.141822  0  0.948328  0  0  0.132305  0.137797  0  0.951938  0
H  H16  1  0.27758415  0.13814401  0.85163440  1  0  0.132522  0  0.939537  0  0  0.138024  0  1.011462  0  0  0.140663  0  1.009473  0  0  0.125467  0.136395  0  1.012955  0
H  H17  1  0.72241524  0.86185431  0.14836775  1  0  0.132548  0  0.939557  0  0  0.138043  0  1.011469  0  0  0.140684  0  1.009481  0  0  0.125486  0.136415  0  1.012961  0
H  H18  1  0.24405288  0.99505773  0.28735186  1  0  0.123073  0  0.954114  0  0  0.130763  0  1.017927  0  0  0.134745  0  1.014935  0  0  0.100961  0.128529  0  1.018715  0
H  H19  1  0.75594578  0.00494298  0.71264782  1  0  0.123072  0  0.954145  0  0  0.130764  0  1.017954  0  0  0.134745  0  1.014964  0  0  0.100966  0.128531  0  1.018743  0
H  H20  1  0.34351530  0.75049146  0.21601753  1  0  0.083578  0  0.985838  0  0  0.094194  0  1.050746  0  0  0.096455  0  1.050269  0  0  0.083942  0.092481  0  1.051179  0
H  H21  1  0.65648459  0.24950926  0.78398239  1  0  0.083567  0  0.985839  0  0  0.094183  0  1.050745  0  0  0.096443  0  1.050272  0  0  0.083943  0.092472  0  1.051179  0
H  H22  1  0.43620569  0.57249997  0.35927505  1  0  0.086072  0  0.968599  0  0  0.097349  0  1.030198  0  0  0.099525  0  1.030097  0  0  0.094647  0.09571  0  1.030438  0
H  H23  1  0.56379192  0.42750189  0.64072721  1  0  0.086066  0  0.968648  0  0  0.097353  0  1.030232  0  0  0.099529  0  1.030131  0  0  0.09463  0.0957  0  1.030492  0
H  H24  1  0.43951512  0.63859657  0.58159435  1  0  0.109601  0  0.966405  0  0  0.118357  0  1.029333  0  0  0.121284  0  1.027671  0  0  0.10281  0.116408  0  1.030414  0
H  H25  1  0.56048278  0.36140651  0.41840460  1  0  0.1097  0  0.966336  0  0  0.118421  0  1.029321  0  0  0.121347  0  1.027658  0  0  0.102836  0.116433  0  1.030446  0
C  C26  1  0.72492495  0.68609489  0.86881233  1  0  0.686834  0  3.842241  0  0  0.643296  0  4.133505  0  0  0.677322  0  4.127333  0  0  0.185427  0.620291  0  4.136792  0
C  C27  1  0.27507572  0.31390347  0.13118656  1  0  0.686721  0  3.842424  0  0  0.643232  0  4.133626  0  0  0.677258  0  4.127457  0  0  0.185446  0.620232  0  4.136907  0
C  C28  1  0.88130298  0.61443463  0.88307936  1  0  -0.267512  0  3.690461  0  0  -0.299225  0  3.930165  0  0  -0.306103  0  3.93929  0  0  -0.172623  -0.294651  0  3.924036  0
C  C29  1  0.11869770  0.38556373  0.11691953  1  0  -0.267568  0  3.690545  0  0  -0.299312  0  3.930263  0  0  -0.306192  0  3.939367  0  0  -0.172692  -0.29475  0  3.924159  0
C  C30  1  0.92642047  0.54276115  0.99785605  1  0  -0.07978  0  3.712462  0  0  -0.121178  0  3.973953  0  0  -0.12119  0  3.988241  0  0  -0.178167  -0.120934  0  3.963961  0
C  C31  1  0.07358016  0.45723718  0.00214546  1  0  -0.079717  0  3.712497  0  0  -0.12112  0  3.973981  0  0  -0.121097  0  3.988245  0  0  -0.178163  -0.12087  0  3.963991  0
C  C32  1  0.33009131  0.43381965  0.81175692  1  0  0.176704  0  3.612645  0  0  0.106305  0  3.88799  0  0  0.120349  0  3.898453  0  0  0.186114  0.094846  0  3.882404  0
C  C33  1  0.66990986  0.56618110  0.18824061  1  0  0.176771  0  3.612591  0  0  0.10634  0  3.887931  0  0  0.120389  0  3.898389  0  0  0.186116  0.094878  0  3.882347  0
C  C34  1  0.20030293  0.14084661  0.75872868  1  0  -0.11441  0  3.634587  0  0  -0.177296  0  3.883273  0  0  -0.175254  0  3.889185  0  0  -0.02467  -0.180833  0  3.880554  0
C  C35  1  0.79969499  0.85915051  0.24127304  1  0  -0.114408  0  3.63462  0  0  -0.177254  0  3.88327  0  0  -0.17522  0  3.889196  0  0  -0.024631  -0.180789  0  3.880545  0
C  C36  1  0.24923959  0.03889286  0.65973583  1  0  0.38287  0  3.709744  0  0  0.349976  0  3.99206  0  0  0.36821  0  4.004403  0  0  0.231768  0.338289  0  3.98361  0
C  C37  1  0.75075903  0.96110782  0.34026647  1  0  0.382823  0  3.709802  0  0  0.349924  0  3.9921  0  0  0.368158  0  4.004443  0  0  0.23175  0.338237  0  3.983646  0
C  C38  1  0.27404609  0.94441145  0.47259971  1  0  0.15833  0  3.796334  0  0  0.149202  0  4.04674  0  0  0.153205  0  4.069131  0  0  0.092617  0.146525  0  4.031399  0
C  C39  1  0.72595380  0.05558927  0.52740020  1  0  0.158325  0  3.79643  0  0  0.149175  0  4.046811  0  0  0.153178  0  4.069203  0  0  0.09263  0.146498  0  4.031469  0
C  C40  1  0.27928708  0.91445295  0.34956287  1  0  -0.163428  0  3.745979  0  0  -0.182977  0  4.005568  0  0  -0.186778  0  4.025815  0  0  -0.099738  -0.180141  0  3.990381  0
C  C41  1  0.72071675  0.08554897  0.65043882  1  0  -0.163433  0  3.745999  0  0  -0.182992  0  4.005595  0  0  -0.186791  0  4.025842  0  0  -0.099737  -0.180157  0  3.990415  0
C  C42  1  0.33889598  0.77859296  0.31177894  1  0  -0.064412  0  3.783608  0  0  -0.085494  0  4.047444  0  0  -0.087782  0  4.07168  0  0  -0.102523  -0.083765  0  4.030707  0
C  C43  1  0.66110391  0.22140776  0.68822098  1  0  -0.06435  0  3.783542  0  0  -0.08544  0  4.0474  0  0  -0.087726  0  4.071628  0  0  -0.102513  -0.08371  0  4.030654  0
C  C44  1  0.39335389  0.67893535  0.39367983  1  0  -0.083041  0  3.78322  0  0  -0.10059  0  4.041294  0  0  -0.103529  0  4.06435  0  0  -0.103185  -0.098598  0  4.025804  0
C  C45  1  0.60664524  0.32106774  0.60631937  1  0  -0.083093  0  3.783261  0  0  -0.10065  0  4.041329  0  0  -0.103589  0  4.064387  0  0  -0.1032  -0.098647  0  4.025838  0
C  C46  1  0.39277531  0.71222494  0.51705873  1  0  -0.117369  0  3.718928  0  0  -0.137112  0  3.967187  0  0  -0.138684  0  3.986322  0  0  -0.089346  -0.135994  0  3.954158  0
C  C47  1  0.60722383  0.28777815  0.48294046  1  0  -0.117373  0  3.718954  0  0  -0.137121  0  3.967175  0  0  -0.138691  0  3.986307  0  0  -0.0893  -0.135963  0  3.954141  0
C  C48  1  0.33177615  0.84710045  0.55635962  1  0  0.149268  0  3.805888  0  0  0.146888  0  4.050248  0  0  0.1498  0  4.074468  0  0  0.08652  0.144798  0  4.033923  0
C  C49  1  0.66822541  0.15290262  0.44364355  1  0  0.149154  0  3.805929  0  0  0.146837  0  4.050208  0  0  0.149748  0  4.074426  0  0  0.086412  0.144749  0  4.033872  0
Br  Br50  1  0.29411034  0.89747372  0.02015204  1  0  -0.522481  0  1.048252  0  0  -0.452917  0  1.348172  0  0  -0.473929  0  1.323715  0  0  -0.238062  -0.438449  0  1.363614  0
Br  Br51  1  0.70588714  0.10252104  0.97984755  1  0  -0.522472  0  1.048272  0  0  -0.452911  0  1.348203  0  0  -0.473923  0  1.323745  0  0  -0.238061  -0.438443  0  1.363645  0
N  N52  1  0.29081320  0.55760089  0.76408231  1  0  -0.274497  0  3.103766  0  0  -0.219938  0  3.407066  0  0  -0.238115  0  3.421529  0  0  -0.217548  -0.207432  0  3.397594  0
N  N53  1  0.70918646  0.44239863  0.23591741  1  0  -0.274479  0  3.103689  0  0  -0.219916  0  3.406995  0  0  -0.238095  0  3.421461  0  0  -0.217538  -0.207408  0  3.397518  0
N  N54  1  0.15087423  0.50254310  0.66595669  1  0  -0.017804  0  2.88626  0  0  -0.023731  0  3.188023  0  0  -0.018702  0  3.195793  0  0  -0.06338  -0.026315  0  3.183075  0
N  N55  1  0.84912543  0.49745643  0.33404303  1  0  -0.017846  0  2.886277  0  0  -0.023776  0  3.188031  0  0  -0.018746  0  3.195801  0  0  -0.063395  -0.02636  0  3.183082  0
N  N56  1  0.10467653  0.35053366  0.65282400  1  0  -0.110419  0  2.843092  0  0  -0.118999  0  3.138316  0  0  -0.117481  0  3.146753  0  0  -0.068115  -0.121816  0  3.133556  0
N  N57  1  0.89532288  0.64946467  0.34717640  1  0  -0.11035  0  2.843129  0  0  -0.118921  0  3.138344  0  0  -0.117404  0  3.146782  0  0  -0.068085  -0.12174  0  3.133586  0
N  N58  1  0.21630207  0.30533356  0.74459871  1  0  0.029834  0  3.542356  0  0  0.114896  0  3.776912  0  0  0.101619  0  3.801504  0  0  -0.12327  0.12676  0  3.760211  0
N  N59  1  0.78369757  0.69466595  0.25540276  1  0  0.029767  0  3.542506  0  0  0.114802  0  3.777093  0  0  0.101525  0  3.801688  0  0  -0.123311  0.126667  0  3.760393  0
N  N60  1  0.22078387  0.06308238  0.54134058  1  0  -0.381583  0  3.367524  0  0  -0.331019  0  3.606427  0  0  -0.347672  0  3.617318  0  0  -0.374639  -0.319893  0  3.598779  0
N  N61  1  0.77921621  0.93691949  0.45866215  1  0  -0.381491  0  3.367722  0  0  -0.330926  0  3.606552  0  0  -0.347578  0  3.617442  0  0  -0.374571  -0.319801  0  3.598904  0
N  N62  1  0.31640942  0.91090646  0.67260694  1  0  -0.457966  0  3.137812  0  0  -0.390753  0  3.411511  0  0  -0.414094  0  3.42684  0  0  -0.346842  -0.375559  0  3.400704  0
N  N63  1  0.68359044  0.08909423  0.32739560  1  0  -0.457923  0  3.137846  0  0  -0.390732  0  3.411518  0  0  -0.414076  0  3.426854  0  0  -0.346825  -0.375539  0  3.400707  0
O  O64  1  0.64532221  0.68408501  0.95159861  1  0  -0.674843  0  1.979448  0  0  -0.607827  0  2.2222  0  0  -0.637775  0  2.214677  0  0  -0.344681  -0.586742  0  2.226459  0
O  O65  1  0.35468071  0.31591218  0.04840056  1  0  -0.674804  0  1.979567  0  0  -0.607799  0  2.222276  0  0  -0.637748  0  2.214757  0  0  -0.344687  -0.586715  0  2.22653  0
O  O66  1  0.67497572  0.74679501  0.77429711  1  0  -0.649702  0  1.933214  0  0  -0.59312  0  2.171398  0  0  -0.62071  0  2.16169  0  0  -0.350222  -0.573731  0  2.176816  0
O  O67  1  0.32502415  0.25320569  0.22570456  1  0  -0.649634  0  1.933264  0  0  -0.593058  0  2.171422  0  0  -0.62065  0  2.161717  0  0  -0.350207  -0.573669  0  2.176829  0
