# generated using pymatgen
data_CuH14C10I3N4
_symmetry_space_group_name_H-M   'P 1'
_cell_length_a   7.09946710
_cell_length_b   11.29722191
_cell_length_c   11.40588700
_cell_angle_alpha   75.67242683
_cell_angle_beta   70.97600876
_cell_angle_gamma   72.56533466
_symmetry_Int_Tables_number   1
_chemical_formula_structural   CuH14C10I3N4
_chemical_formula_sum   'Cu2 H28 C20 I6 N8'
_cell_volume   813.64545749
_cell_formula_units_Z   2
loop_
 _symmetry_equiv_pos_site_id
 _symmetry_equiv_pos_as_xyz
  1  'x, y, z'
loop_
 _atom_site_type_symbol
 _atom_site_label
 _atom_site_symmetry_multiplicity
 _atom_site_fract_x
 _atom_site_fract_y
 _atom_site_fract_z
 _atom_site_occupancy
 _atom_site_hle17_bader_spin_density
 _atom_site_hle17_ddec_charge
 _atom_site_hle17_ddec_spin_density
 _atom_site_hle17_ddec_sum_bond_order
 _atom_site_hle17_magmom
 _atom_site_hse06_10hf_bader_spin_density
 _atom_site_hse06_10hf_ddec_charge
 _atom_site_hse06_10hf_ddec_spin_density
 _atom_site_hse06_10hf_ddec_sum_bond_order
 _atom_site_hse06_10hf_magmom
 _atom_site_hse06_bader_spin_density
 _atom_site_hse06_ddec_charge
 _atom_site_hse06_ddec_spin_density
 _atom_site_hse06_ddec_sum_bond_order
 _atom_site_hse06_magmom
 _atom_site_pbe_bader_spin_density
 _atom_site_pbe_cm5_charge
 _atom_site_pbe_ddec_charge
 _atom_site_pbe_ddec_spin_density
 _atom_site_pbe_ddec_sum_bond_order
 _atom_site_pbe_magmom
Cu  Cu0  1  0.06925630  0.59038289  0.90946564  1  0  0.337641  0  2.068522  0  0  0.235733  0  2.5559  0  0  0.237074  0  2.512153  0  0  0.395662  0.240548  0  2.583527  0
Cu  Cu1  1  0.56591497  0.41370135  0.08659641  1  0  0.327705  0  2.098064  0  0  0.226649  0  2.589082  0  0  0.227813  0  2.544939  0  0  0.390892  0.230976  0  2.615327  0
H  H2  1  0.86345909  0.85207831  0.79217105  1  0  0.110035  0  0.984336  0  0  0.123575  0  1.060323  0  0  0.125712  0  1.058613  0  0  0.0769  0.122233  0  1.061555  0
H  H3  1  0.50642035  0.15095081  0.21861160  1  0  0.111118  0  0.976747  0  0  0.126351  0  1.051373  0  0  0.128504  0  1.049682  0  0  0.082466  0.124906  0  1.052582  0
H  H4  1  0.00819171  0.70767412  0.64806906  1  0  0.109793  0  0.982937  0  0  0.123215  0  1.059157  0  0  0.125355  0  1.057433  0  0  0.076909  0.121819  0  1.060444  0
H  H5  1  0.37626067  0.28093807  0.34955331  1  0  0.110196  0  0.97669  0  0  0.125265  0  1.051661  0  0  0.127419  0  1.049983  0  0  0.081943  0.123864  0  1.052852  0
H  H6  1  0.80468973  0.00428746  0.83021979  1  0  0.115627  0  0.948977  0  0  0.135224  0  1.010541  0  0  0.136262  0  1.010809  0  0  0.088656  0.134626  0  1.010084  0
H  H7  1  0.63392113  0.99739583  0.18436563  1  0  0.116457  0  0.946692  0  0  0.136431  0  1.008155  0  0  0.137549  0  1.008364  0  0  0.090289  0.135623  0  1.008051  0
H  H8  1  0.13962923  0.66965086  0.49588324  1  0  0.114886  0  0.948699  0  0  0.134386  0  1.010332  0  0  0.135397  0  1.010637  0  0  0.088347  0.133783  0  1.01009  0
H  H9  1  0.31606575  0.31533025  0.50295769  1  0  0.11624  0  0.94656  0  0  0.135933  0  1.008341  0  0  0.137099  0  1.00845  0  0  0.090345  0.135127  0  1.008067  0
H  H10  1  0.65540844  0.89521907  0.92260395  1  0  0.109585  0  0.958485  0  0  0.129468  0  1.021873  0  0  0.130804  0  1.02217  0  0  0.084201  0.128597  0  1.021477  0
H  H11  1  0.46682514  0.10080132  0.09550521  1  0  0.110232  0  0.958223  0  0  0.129848  0  1.022394  0  0  0.13097  0  1.022951  0  0  0.084472  0.129215  0  1.021738  0
H  H12  1  0.97357216  0.57730130  0.60487007  1  0  0.108583  0  0.958226  0  0  0.128563  0  1.021624  0  0  0.129868  0  1.021951  0  0  0.083909  0.127773  0  1.02119  0
H  H13  1  0.16347069  0.40427481  0.39959565  1  0  0.109541  0  0.957572  0  0  0.129354  0  1.021502  0  0  0.130473  0  1.022072  0  0  0.084585  0.128622  0  1.020929  0
H  H14  1  0.24246764  0.80131989  0.24806931  1  0  0.124892  0  0.928844  0  0  0.145489  0  0.986007  0  0  0.147594  0  0.984973  0  0  0.095923  0.14412  0  0.986624  0
H  H15  1  0.29794575  0.20812145  0.75213976  1  0  0.124117  0  0.930848  0  0  0.144452  0  0.988457  0  0  0.146485  0  0.987641  0  0  0.095026  0.143019  0  0.989053  0
H  H16  1  0.79255215  0.25155006  0.69906143  1  0  0.123776  0  0.929123  0  0  0.144301  0  0.986402  0  0  0.146421  0  0.985377  0  0  0.095331  0.142866  0  0.987091  0
H  H17  1  0.75771063  0.74805193  0.29228348  1  0  0.124411  0  0.929956  0  0  0.145175  0  0.98709  0  0  0.147238  0  0.986228  0  0  0.095362  0.143744  0  0.987687  0
H  H18  1  0.19670825  0.96343606  0.18151922  1  0  0.116596  0  0.980968  0  0  0.130476  0  1.053758  0  0  0.131596  0  1.0541  0  0  0.086594  0.129864  0  1.053315  0
H  H19  1  0.33871784  0.04456849  0.81365735  1  0  0.116817  0  0.980575  0  0  0.13019  0  1.054177  0  0  0.131357  0  1.054424  0  0  0.085866  0.129446  0  1.053895  0
H  H20  1  0.84215896  0.31774427  0.53689985  1  0  0.115872  0  0.981868  0  0  0.129707  0  1.054627  0  0  0.130835  0  1.054997  0  0  0.085556  0.129023  0  1.054323  0
H  H21  1  0.69718871  0.68610338  0.45567810  1  0  0.116203  0  0.980195  0  0  0.129459  0  1.054214  0  0  0.130614  0  1.054483  0  0  0.085378  0.128756  0  1.053813  0
H  H22  1  0.42352271  0.85569953  0.11188731  1  0  0.116879  0  0.943438  0  0  0.137582  0  1.003303  0  0  0.13966  0  1.002614  0  0  0.091302  0.136095  0  1.003787  0
H  H23  1  0.38989151  0.14864030  0.88756655  1  0  0.117391  0  0.93756  0  0  0.138389  0  0.996593  0  0  0.140424  0  0.996011  0  0  0.09165  0.137061  0  0.996802  0
H  H24  1  0.89171146  0.38782040  0.64416870  1  0  0.116332  0  0.942379  0  0  0.136595  0  1.002662  0  0  0.138706  0  1.001939  0  0  0.090863  0.135138  0  1.003081  0
H  H25  1  0.92627431  0.61255508  0.35131265  1  0  0.118326  0  0.935015  0  0  0.139357  0  0.994052  0  0  0.141416  0  0.993422  0  0  0.092453  0.137949  0  0.994413  0
H  H26  1  0.24145110  0.64737477  0.09051670  1  0  0.271477  0  0.917447  0  0  0.250136  0  0.992491  0  0  0.258443  0  0.985068  0  0  0.30425  0.244602  0  0.997457  0
H  H27  1  0.97674247  0.35829657  0.90160315  1  0  0.272083  0  0.919003  0  0  0.250409  0  0.993993  0  0  0.258633  0  0.986865  0  0  0.30421  0.244244  0  0.999424  0
H  H28  1  0.47966013  0.40903378  0.85269911  1  0  0.272506  0  0.916793  0  0  0.251006  0  0.99127  0  0  0.259214  0  0.98399  0  0  0.304454  0.244823  0  0.99702  0
H  H29  1  0.73605468  0.59863083  0.14197716  1  0  0.27147  0  0.918196  0  0  0.248983  0  0.993995  0  0  0.25727  0  0.986896  0  0  0.304749  0.243466  0  0.998565  0
C  C30  1  0.81178560  0.90478562  0.87024091  1  0  -0.359712  0  3.754569  0  0  -0.438037  0  3.993803  0  0  -0.44117  0  4.001995  0  0  -0.250569  -0.435609  0  3.98759  0
C  C31  1  0.58297225  0.09562588  0.14220555  1  0  -0.353786  0  3.748168  0  0  -0.434844  0  3.988974  0  0  -0.437793  0  3.9971  0  0  -0.245508  -0.432492  0  3.982832  0
C  C32  1  0.08726647  0.62959016  0.59534706  1  0  -0.354767  0  3.751332  0  0  -0.433691  0  3.990882  0  0  -0.436756  0  3.999208  0  0  -0.248544  -0.431343  0  3.984669  0
C  C33  1  0.32117688  0.35746923  0.40475201  1  0  -0.352447  0  3.748261  0  0  -0.432956  0  3.989297  0  0  -0.435936  0  3.99737  0  0  -0.245601  -0.430569  0  3.983161  0
C  C34  1  0.95296648  0.85940796  0.95235814  1  0  0.227382  0  3.732714  0  0  0.220352  0  4.001065  0  0  0.228662  0  4.019819  0  0  0.093534  0.215239  0  3.988005  0
C  C35  1  0.76123442  0.14233888  0.05298179  1  0  0.219845  0  3.744846  0  0  0.215513  0  4.010802  0  0  0.223875  0  4.029228  0  0  0.09229  0.21013  0  3.997928  0
C  C36  1  0.26520309  0.54732984  0.64065390  1  0  0.224402  0  3.733741  0  0  0.219547  0  3.999084  0  0  0.227781  0  4.017905  0  0  0.09402  0.214245  0  3.986067  0
C  C37  1  0.45699033  0.44667392  0.35799378  1  0  0.221675  0  3.743903  0  0  0.216094  0  4.011196  0  0  0.224518  0  4.02961  0  0  0.09224  0.210941  0  3.998281  0
C  C38  1  0.01770149  0.93310577  0.00879907  1  0  -0.14613  0  3.81781  0  0  -0.137839  0  4.063884  0  0  -0.147418  0  4.09276  0  0  -0.033988  -0.131384  0  4.043584  0
C  C39  1  0.95619356  0.07009556  0.99578458  1  0  -0.145148  0  3.819605  0  0  -0.13663  0  4.063449  0  0  -0.146158  0  4.092209  0  0  -0.033654  -0.13012  0  4.043219  0
C  C40  1  0.46018478  0.49083728  0.56703253  1  0  -0.146108  0  3.818631  0  0  -0.1372  0  4.063173  0  0  -0.146694  0  4.091979  0  0  -0.033279  -0.130648  0  4.042781  0
C  C41  1  0.52270549  0.50385501  0.43010774  1  0  -0.145887  0  3.821491  0  0  -0.137931  0  4.066527  0  0  -0.147567  0  4.09537  0  0  -0.033636  -0.131479  0  4.046341  0
C  C42  1  0.14724615  0.84785386  0.07802189  1  0  0.236333  0  3.712856  0  0  0.221574  0  3.98065  0  0  0.231234  0  4.000175  0  0  0.1045  0.215869  0  3.966529  0
C  C43  1  0.07083912  0.15702424  0.92136706  1  0  0.233495  0  3.711979  0  0  0.219229  0  3.978555  0  0  0.228818  0  3.998161  0  0  0.103756  0.213592  0  3.964328  0
C  C44  1  0.57360409  0.42157374  0.65226459  1  0  0.234852  0  3.713032  0  0  0.219282  0  3.980893  0  0  0.228977  0  4.000376  0  0  0.103606  0.213697  0  3.966476  0
C  C45  1  0.64946599  0.57850580  0.34316319  1  0  0.234157  0  3.712116  0  0  0.219603  0  3.979385  0  0  0.229204  0  3.999006  0  0  0.102718  0.21372  0  3.965508  0
C  C46  1  0.25840281  0.86788215  0.15901160  1  0  -0.350063  0  3.718924  0  0  -0.423508  0  3.954959  0  0  -0.426622  0  3.961631  0  0  -0.235718  -0.421216  0  3.949745  0
C  C47  1  0.28515628  0.13888573  0.83934822  1  0  -0.347892  0  3.718015  0  0  -0.421255  0  3.954181  0  0  -0.42436  0  3.960897  0  0  -0.235043  -0.418715  0  3.948805  0
C  C48  1  0.78584071  0.34052255  0.63231270  1  0  -0.34717  0  3.716355  0  0  -0.420124  0  3.952313  0  0  -0.423298  0  3.958928  0  0  -0.23387  -0.417555  0  3.946939  0
C  C49  1  0.76343573  0.66067080  0.36128914  1  0  -0.348529  0  3.714743  0  0  -0.422054  0  3.951617  0  0  -0.425197  0  3.95833  0  0  -0.235851  -0.41971  0  3.946561  0
I  I50  1  0.18876490  0.40778929  0.09220652  1  0  -0.309168  0  1.69914  0  0  -0.28166  0  2.184448  0  0  -0.290626  0  2.143129  0  0  -0.118693  -0.27975  0  2.213441  0
I  I51  1  0.69239483  0.59618281  0.90410029  1  0  -0.365975  0  1.65057  0  0  -0.330517  0  2.125732  0  0  -0.343278  0  2.084599  0  0  -0.146073  -0.323315  0  2.154093  0
I  I52  1  0.97576689  0.21248618  0.28767621  1  0  -0.033952  0  1.457856  0  0  -0.016529  0  1.840111  0  0  -0.002611  0  1.822051  0  0  -0.003302  -0.029137  0  1.854302  0
I  I53  1  0.48622376  0.80026168  0.69977997  1  0  -0.028309  0  1.429803  0  0  -0.009029  0  1.809671  0  0  0.001991  0  1.789657  0  0  -0.003723  -0.017704  0  1.825673  0
I  I54  1  0.76335109  0.03588032  0.46452691  1  0  -0.136074  0  1.209494  0  0  -0.121747  0  1.538503  0  0  -0.12779  0  1.52366  0  0  -0.067225  -0.120276  0  1.550098  0
I  I55  1  0.21582475  0.94518808  0.55452181  1  0  -0.145945  0  1.236251  0  0  -0.131194  0  1.566983  0  0  -0.124313  0  1.549626  0  0  -0.069412  -0.1377  0  1.580801  0
N  N56  1  0.03980088  0.73658419  0.98351424  1  0  -0.270395  0  3.300678  0  0  -0.225133  0  3.62116  0  0  -0.233506  0  3.62826  0  0  -0.30353  -0.220026  0  3.616357  0
N  N57  1  0.75682229  0.26582505  0.01651070  1  0  -0.267916  0  3.304208  0  0  -0.22542  0  3.62564  0  0  -0.233583  0  3.632422  0  0  -0.306592  -0.220469  0  3.620568  0
N  N58  1  0.26026704  0.51613708  0.76344529  1  0  -0.269869  0  3.299728  0  0  -0.22662  0  3.620916  0  0  -0.234906  0  3.627927  0  0  -0.305598  -0.221501  0  3.616145  0
N  N59  1  0.53913454  0.48338629  0.23452578  1  0  -0.268443  0  3.303292  0  0  -0.22485  0  3.623886  0  0  -0.233051  0  3.630665  0  0  -0.306267  -0.219943  0  3.618796  0
N  N60  1  0.15486350  0.73237528  0.05998732  1  0  -0.216479  0  3.518183  0  0  -0.164732  0  3.757832  0  0  -0.178317  0  3.775859  0  0  -0.300125  -0.156004  0  3.745824  0
N  N61  1  0.94485227  0.27196586  0.93664326  1  0  -0.21615  0  3.518979  0  0  -0.163571  0  3.757913  0  0  -0.177187  0  3.775939  0  0  -0.300382  -0.15456  0  3.746007  0
N  N62  1  0.44759477  0.43959686  0.76770990  1  0  -0.216969  0  3.516809  0  0  -0.163769  0  3.756215  0  0  -0.177378  0  3.774303  0  0  -0.299356  -0.154845  0  3.74432  0
N  N63  1  0.65333635  0.56336309  0.22831635  1  0  -0.215643  0  3.516767  0  0  -0.162054  0  3.755592  0  0  -0.175747  0  3.773506  0  0  -0.29967  -0.15329  0  3.743665  0
