# generated using pymatgen
data_CuH10C16N(ClO2)2
_symmetry_space_group_name_H-M   'P 1'
_cell_length_a   9.71378222
_cell_length_b   10.39013284
_cell_length_c   19.38263927
_cell_angle_alpha   90.00038279
_cell_angle_beta   89.99985331
_cell_angle_gamma   107.18609979
_symmetry_Int_Tables_number   1
_chemical_formula_structural   CuH10C16N(ClO2)2
_chemical_formula_sum   'Cu4 H40 C64 N4 Cl8 O16'
_cell_volume   1868.89506596
_cell_formula_units_Z   4
loop_
 _symmetry_equiv_pos_site_id
 _symmetry_equiv_pos_as_xyz
  1  'x, y, z'
loop_
 _atom_site_type_symbol
 _atom_site_label
 _atom_site_symmetry_multiplicity
 _atom_site_fract_x
 _atom_site_fract_y
 _atom_site_fract_z
 _atom_site_occupancy
 _atom_site_pbe_bader_charge
 _atom_site_pbe_bader_spin_density
 _atom_site_pbe_cm5_charge
 _atom_site_pbe_ddec_charge
 _atom_site_pbe_ddec_spin_density
 _atom_site_pbe_ddec_sum_bond_order
 _atom_site_pbe_magmom
Cu  Cu0  1  0.36835962  0.50223800  0.49681381  1  1.066791  -0.546816  0.684582  0.757044  -0.704754  2.405145  -0.544
Cu  Cu1  1  0.13163513  0.99776021  0.99681384  1  1.066964  -0.546794  0.68458  0.757004  -0.704724  2.405311  -0.544
Cu  Cu2  1  0.63165250  0.49774993  0.50318634  1  1.067299  0.546811  0.684586  0.757242  0.704747  2.404871  0.544
Cu  Cu3  1  0.86834238  0.00224811  0.00318735  1  1.066943  0.546803  0.684632  0.757297  0.704738  2.404779  0.544
H  H4  1  0.33965959  0.54794906  0.27060426  1  0.111415  -0.000215  0.106368  0.121714  -0.000197  1.008916  0.0
H  H5  1  0.16033912  0.95205144  0.77060615  1  0.11153  -0.000215  0.106385  0.121707  -0.000197  1.008916  0.0
H  H6  1  0.66034593  0.45204396  0.72939538  1  0.111591  0.000215  0.106439  0.121775  0.000197  1.00905  0.0
H  H7  1  0.83965315  0.04795477  0.22939606  1  0.111562  0.000215  0.10642  0.121758  0.000197  1.009066  0.0
H  H8  1  0.63827667  0.74248131  0.11053850  1  0.106902  9.7e-05  0.102138  0.117942  0.000127  1.050267  0.0
H  H9  1  0.86172650  0.75751969  0.61053788  1  0.106877  9.7e-05  0.102129  0.117963  0.000127  1.050221  0.0
H  H10  1  0.36174162  0.25752577  0.88946836  1  0.106908  -9.7e-05  0.102085  0.117913  -0.000127  1.050298  0.0
H  H11  1  0.13825674  0.24247447  0.38946898  1  0.106904  -9.7e-05  0.102092  0.117908  -0.000127  1.050231  0.0
H  H12  1  0.83842637  0.79153894  0.19469211  1  0.093469  -0.00021  0.105735  0.109768  -0.000115  0.985222  0.0
H  H13  1  0.66157545  0.70845601  0.69469107  1  0.093454  -0.00021  0.105757  0.10984  -0.000115  0.985271  0.0
H  H14  1  0.16158477  0.20844597  0.80531681  1  0.093541  0.00021  0.105724  0.109806  0.000115  0.985171  0.0
H  H15  1  0.33841369  0.29155325  0.30531734  1  0.093554  0.00021  0.105736  0.109817  0.000115  0.985162  0.0
H  H16  1  0.79204213  0.71138996  0.31678889  1  0.102666  0.000192  0.09866  0.103054  0.000183  1.03557  0.0
H  H17  1  0.70795684  0.78860447  0.81678859  1  0.102666  0.000192  0.098672  0.103098  0.000183  1.035574  0.0
H  H18  1  0.20796431  0.28858993  0.68321900  1  0.103119  -0.000192  0.098615  0.102925  -0.000183  1.035629  0.0
H  H19  1  0.29203490  0.21141285  0.18321930  1  0.103137  -0.000192  0.098622  0.102937  -0.000183  1.035649  0.0
H  H20  1  0.58303632  0.10764024  0.41394654  1  0.065674  0.000272  0.092403  0.101872  0.000244  1.052637  0.0
H  H21  1  0.91696632  0.39235970  0.91395098  1  0.065729  0.000272  0.092393  0.101853  0.000245  1.052544  0.0
H  H22  1  0.41696044  0.89236394  0.58604226  1  0.065688  -0.000272  0.092381  0.101822  -0.000244  1.052421  0.0
H  H23  1  0.08303910  0.60763938  0.08604195  1  0.065668  -0.000272  0.092398  0.101827  -0.000244  1.052587  0.0
H  H24  1  0.50554758  0.86637944  0.37582982  1  0.074135  -0.000196  0.099394  0.098781  -0.000104  1.006704  0.0
H  H25  1  0.99445710  0.63361769  0.87583013  1  0.074206  -0.000196  0.099403  0.098774  -0.000104  1.006708  0.0
H  H26  1  0.49446530  0.13362363  0.62416724  1  0.074303  0.000196  0.099397  0.098783  0.000104  1.006636  0.0
H  H27  1  0.00554145  0.36638243  0.12416744  1  0.074407  0.000196  0.099412  0.09878  0.000104  1.0067  0.0
H  H28  1  0.24926158  0.73108338  0.38592434  1  0.11088  -2.4e-05  0.102881  0.115876  -2.7e-05  1.015356  0.0
H  H29  1  0.25074467  0.76891040  0.88592391  1  0.110923  -2.4e-05  0.102891  0.115839  -2.7e-05  1.015401  0.0
H  H30  1  0.75075914  0.26890248  0.61407426  1  0.110949  2.4e-05  0.102882  0.115857  2.7e-05  1.015598  0.0
H  H31  1  0.74924891  0.23109985  0.11407779  1  0.111052  2.4e-05  0.102904  0.115886  2.7e-05  1.015429  0.0
H  H32  1  0.14621735  0.07587525  0.47051182  1  0.124024  -0.000197  0.096193  0.108111  -0.000209  1.054277  0.0
H  H33  1  0.35378507  0.42412292  0.97051490  1  0.12391  -0.000197  0.096225  0.10815  -0.000209  1.05416  0.0
H  H34  1  0.85377919  0.92410268  0.52948060  1  0.123882  0.000197  0.096215  0.108111  0.000209  1.053988  0.0
H  H35  1  0.64622138  0.57589533  0.02948525  1  0.123952  0.000197  0.096211  0.108106  0.000209  1.054009  0.0
H  H36  1  0.10953129  0.45772337  0.39299161  1  0.123263  3.4e-05  0.123452  0.10081  3.5e-05  0.991113  0.0
H  H37  1  0.39046636  0.04227792  0.89299225  1  0.123562  3.4e-05  0.123457  0.100843  3.5e-05  0.991062  0.0
H  H38  1  0.89048310  0.54229079  0.60700597  1  0.123206  -3.4e-05  0.123437  0.100856  -3.5e-05  0.991109  0.0
H  H39  1  0.60951424  0.95771121  0.10700533  1  0.123224  -3.4e-05  0.123426  0.100841  -3.5e-05  0.991164  0.0
H  H40  1  0.15788692  0.56606241  0.59946984  1  0.135705  5.1e-05  0.125732  0.107881  3.7e-05  0.978454  0.0
H  H41  1  0.34210990  0.93393906  0.09947036  1  0.13565  5.1e-05  0.125747  0.107913  3.8e-05  0.978551  0.0
H  H42  1  0.84212386  0.43394370  0.40052722  1  0.13575  -5.1e-05  0.125759  0.107972  -3.8e-05  0.978454  0.0
H  H43  1  0.65787366  0.06605610  0.90052773  1  0.13579  -5e-05  0.125747  0.107978  -3.7e-05  0.978543  0.0
C  C44  1  0.53670743  0.57511355  0.37338276  1  1.535686  -0.000121  0.215114  0.573135  1.8e-05  4.161321  0.0
C  C45  1  0.96328660  0.92488563  0.87338571  1  1.535643  -0.000121  0.215136  0.573265  1.8e-05  4.161268  0.0
C  C46  1  0.46329582  0.42487241  0.62661998  1  1.535472  0.000124  0.214984  0.572951  -1.7e-05  4.161281  0.0
C  C47  1  0.03670038  0.07512970  0.12661857  1  1.535485  0.000123  0.214978  0.572928  -1.7e-05  4.161383  0.0
C  C48  1  0.56365174  0.62468786  0.30070129  1  -0.034396  0.000649  -0.015106  -0.010598  0.000455  3.970885  0.0
C  C49  1  0.93634709  0.87531547  0.80070203  1  -0.034424  0.00065  -0.015122  -0.010589  0.000456  3.97091  0.0
C  C50  1  0.43635276  0.37530517  0.69930093  1  -0.034436  -0.000647  -0.015104  -0.010627  -0.000455  3.971271  0.0
C  C51  1  0.06364437  0.12469782  0.19930018  1  -0.034358  -0.000645  -0.015098  -0.010655  -0.000453  3.97133  0.0
C  C52  1  0.44882192  0.60061147  0.25396414  1  0.005071  0.001165  -0.090816  -0.170817  0.000731  3.954604  0.001
C  C53  1  0.05117984  0.89939184  0.75396546  1  0.005015  0.001165  -0.090801  -0.170763  0.00073  3.954526  0.001
C  C54  1  0.55118998  0.39938857  0.74603498  1  0.004814  -0.001166  -0.090862  -0.17087  -0.000731  3.954686  -0.001
C  C55  1  0.94881006  0.10061338  0.24603469  1  0.004786  -0.001166  -0.090844  -0.170832  -0.000731  3.954749  -0.001
C  C56  1  0.47767706  0.64265198  0.18581403  1  0.016625  0.000808  0.010554  0.14605  0.000539  4.062832  0.001
C  C57  1  0.02232035  0.85734952  0.68581370  1  0.016523  0.000808  0.010518  0.145994  0.000539  4.062904  0.001
C  C58  1  0.52232857  0.35735416  0.81418922  1  0.016593  -0.000808  0.010487  0.146011  -0.000539  4.062812  -0.001
C  C59  1  0.97767241  0.14264862  0.31418955  1  0.016487  -0.000808  0.010513  0.146039  -0.000539  4.062746  -0.001
C  C60  1  0.61697393  0.71148666  0.16407090  1  -0.019572  0.000617  -0.095453  -0.154058  0.000413  3.981884  0.0
C  C61  1  0.88302950  0.78851599  0.66406985  1  -0.019598  0.000616  -0.095414  -0.153986  0.000412  3.981801  0.0
C  C62  1  0.38304230  0.28852042  0.83593545  1  -0.019756  -0.000617  -0.095415  -0.154045  -0.000413  3.982159  0.0
C  C63  1  0.11695574  0.21148118  0.33593546  1  -0.019774  -0.000617  -0.09543  -0.154048  -0.000413  3.982163  0.0
C  C64  1  0.72971898  0.73749914  0.21164592  1  -0.012425  -0.000646  -0.086219  -0.054152  -0.000467  3.992338  -0.001
C  C65  1  0.77028142  0.76249805  0.71164492  1  -0.012359  -0.000646  -0.086287  -0.054295  -0.000467  3.992426  -0.001
C  C66  1  0.27029574  0.26249685  0.78836197  1  -0.012434  0.000646  -0.086149  -0.054112  0.000467  3.992502  0.001
C  C67  1  0.22970307  0.23750317  0.28836194  1  -0.012355  0.000646  -0.086162  -0.054102  0.000467  3.992671  0.001
C  C68  1  0.70439842  0.69320714  0.27958965  1  -0.047041  -0.000591  -0.086595  -0.102957  -0.000364  3.958019  -0.001
C  C69  1  0.79560222  0.80679187  0.77958981  1  -0.047028  -0.000591  -0.086545  -0.102991  -0.000364  3.958171  -0.001
C  C70  1  0.29561149  0.30678989  0.72041463  1  -0.047251  0.00059  -0.08654  -0.102806  0.000364  3.958332  0.001
C  C71  1  0.20438768  0.19321335  0.22041499  1  -0.047237  0.00059  -0.08657  -0.102859  0.000364  3.958446  0.001
C  C72  1  0.41665287  0.25121074  0.46433994  1  1.539142  8e-06  0.215503  0.575398  8.8e-05  4.147451  0.0
C  C73  1  0.08334512  0.24878636  0.96434120  1  1.539202  8e-06  0.21554  0.575399  8.9e-05  4.14757  0.0
C  C74  1  0.58335336  0.74878126  0.53565351  1  1.538738  -9e-06  0.215529  0.575475  -8.9e-05  4.147324  0.0
C  C75  1  0.91664477  0.75121886  0.03565534  1  1.538665  -9e-06  0.21553  0.575394  -8.8e-05  4.147545  0.0
C  C76  1  0.36993813  0.10612855  0.44367431  1  -0.049926  -0.000215  -0.0163  -0.011693  -0.000194  3.963629  0.0
C  C77  1  0.13006362  0.39387031  0.94367861  1  -0.050001  -0.000214  -0.016255  -0.011563  -0.000193  3.963516  0.0
C  C78  1  0.63006869  0.89386850  0.55631811  1  -0.050113  0.000217  -0.016267  -0.011604  0.000195  3.9634  0.0
C  C79  1  0.86993623  0.60613385  0.05632154  1  -0.050043  0.000218  -0.016249  -0.011611  0.000196  3.963347  0.0
C  C80  1  0.47099773  0.04690392  0.41733562  1  -0.033312  -0.001064  -0.088088  -0.103531  -0.000664  3.966742  -0.001
C  C81  1  0.02900578  0.45309359  0.91733975  1  -0.03291  -0.001064  -0.0881  -0.103593  -0.000664  3.966523  -0.001
C  C82  1  0.52900704  0.95309314  0.58265215  1  -0.032857  0.001064  -0.088129  -0.103613  0.000664  3.966763  0.001
C  C83  1  0.97099785  0.54690953  0.08265525  1  -0.033063  0.001064  -0.088137  -0.1036  0.000664  3.966869  0.001
C  C84  1  0.42707932  0.91286919  0.39619457  1  0.030037  -0.000733  -0.087398  -0.053035  -0.000532  3.991878  -0.001
C  C85  1  0.07292551  0.58712674  0.89619681  1  0.02963  -0.000733  -0.087408  -0.053021  -0.000532  3.991818  -0.001
C  C86  1  0.57292864  0.08712179  0.60379681  1  0.029674  0.000733  -0.087351  -0.052905  0.000532  3.991941  0.001
C  C87  1  0.92707763  0.41288446  0.10379921  1  0.029669  0.000733  -0.087395  -0.05294  0.000532  3.991948  0.001
C  C88  1  0.28269381  0.83648134  0.40132850  1  -0.042474  -0.000117  -0.089751  -0.132468  -8.3e-05  3.954621  0.0
C  C89  1  0.21730858  0.66351668  0.90132928  1  -0.042358  -0.000117  -0.089712  -0.132367  -8.3e-05  3.954639  0.0
C  C90  1  0.71731058  0.16351774  0.59866649  1  -0.042255  0.000117  -0.089729  -0.132526  8.3e-05  3.954874  0.0
C  C91  1  0.78269229  0.33648747  0.09867035  1  -0.0424  0.000117  -0.089769  -0.132595  8.3e-05  3.95475  0.0
C  C92  1  0.18301663  0.89685248  0.42771775  1  0.013944  0.000632  0.009207  0.140476  0.000434  4.054382  0.001
C  C93  1  0.31698303  0.60314386  0.92771819  1  0.013898  0.000632  0.009195  0.1405  0.000434  4.054199  0.001
C  C94  1  0.81698489  0.10313450  0.57227827  1  0.013959  -0.000631  0.009256  0.140616  -0.000434  4.05396  -0.001
C  C95  1  0.68301839  0.39686836  0.07228300  1  0.013933  -0.000631  0.009245  0.140654  -0.000434  4.054233  -0.001
C  C96  1  0.22478716  0.03068793  0.44929528  1  0.042786  0.000874  -0.093542  -0.169057  0.000555  3.971582  0.001
C  C97  1  0.27521458  0.46931099  0.94929914  1  0.042817  0.000874  -0.093586  -0.169151  0.000554  3.971425  0.001
C  C98  1  0.77521258  0.96930310  0.55069714  1  0.042589  -0.000874  -0.093614  -0.169116  -0.000554  3.971327  -0.001
C  C99  1  0.72478694  0.53069518  0.05070049  1  0.042612  -0.000874  -0.093548  -0.169019  -0.000555  3.971429  -0.001
C  C100  1  0.08688235  0.53740138  0.55496248  1  0.466871  0.000897  0.056476  0.05129  0.000608  3.932812  0.001
C  C101  1  0.41311522  0.96259854  0.05496301  1  0.466621  0.000897  0.056556  0.051345  0.000608  3.932735  0.001
C  C102  1  0.91313253  0.46260470  0.44503561  1  0.466741  -0.000897  0.056307  0.051005  -0.000608  3.932785  -0.001
C  C103  1  0.58686461  0.03739463  0.94503611  1  0.466913  -0.000896  0.056369  0.051054  -0.000608  3.932863  -0.001
C  C104  1  0.05991147  0.47634598  0.44095728  1  0.53518  0.000893  0.056109  0.045604  0.000614  3.938473  0.001
C  C105  1  0.44008649  0.02365388  0.94095778  1  0.534878  0.000892  0.056082  0.045559  0.000614  3.938518  0.001
C  C106  1  0.94009962  0.52366114  0.55904030  1  0.535197  -0.000892  0.055941  0.045307  -0.000614  3.938786  -0.001
C  C107  1  0.55989745  0.97633927  0.05904030  1  0.535192  -0.000892  0.055919  0.045306  -0.000614  3.938787  -0.001
N  N108  1  0.14656118  0.51336585  0.49583268  1  -1.193768  0.001013  -0.316753  -0.200454  0.000361  3.505267  0.0
N  N109  1  0.35343628  0.98663435  0.99583290  1  -1.193635  0.001012  -0.316846  -0.200576  0.00036  3.505175  0.0
N  N110  1  0.85345408  0.48663821  0.50416850  1  -1.193595  -0.001013  -0.316748  -0.200452  -0.000361  3.505355  0.0
N  N111  1  0.64654317  0.01336084  0.00416880  1  -1.193618  -0.001012  -0.316771  -0.200471  -0.000361  3.505274  0.0
Cl  Cl112  1  0.33840782  0.60731735  0.12604150  1  -0.219268  0.000517  0.002951  -0.083143  0.000366  1.564323  0.0
Cl  Cl113  1  0.16159232  0.89268846  0.62604163  1  -0.219157  0.000517  0.002942  -0.083157  0.000366  1.564306  0.0
Cl  Cl114  1  0.66161117  0.39268871  0.87395711  1  -0.219423  -0.000517  0.002938  -0.083148  -0.000366  1.564257  0.0
Cl  Cl115  1  0.83838908  0.10731278  0.37395801  1  -0.219401  -0.000517  0.002933  -0.083168  -0.000366  1.564247  0.0
Cl  Cl116  1  0.00223389  0.80478654  0.43365755  1  -0.22558  0.000588  0.007268  -0.069288  0.000383  1.598546  0.0
Cl  Cl117  1  0.49777057  0.69520884  0.93365912  1  -0.225584  0.000588  0.00726  -0.069309  0.000383  1.598448  0.0
Cl  Cl118  1  0.99777774  0.19519029  0.56633899  1  -0.22558  -0.000588  0.007214  -0.06937  -0.000383  1.598343  0.0
Cl  Cl119  1  0.50222598  0.30480745  0.06634516  1  -0.225528  -0.000588  0.007198  -0.06941  -0.000383  1.598383  0.0
O  O120  1  0.40980317  0.55503920  0.39753586  1  -1.114089  -0.080954  -0.311381  -0.518933  -0.052833  2.352515  -0.073
O  O121  1  0.09019414  0.94495578  0.89753833  1  -1.114026  -0.080956  -0.311414  -0.519029  -0.052834  2.352493  -0.073
O  O122  1  0.59019570  0.44492358  0.60246068  1  -1.113883  0.080946  -0.311293  -0.518841  0.052827  2.352403  0.073
O  O123  1  0.90980111  0.05507565  0.10246234  1  -1.113979  0.08095  -0.311311  -0.51886  0.052829  2.352438  0.073
O  O124  1  0.64455153  0.55716822  0.40509144  1  -1.104254  0.089304  -0.310289  -0.512322  0.058133  2.378118  0.081
O  O125  1  0.85544117  0.94282732  0.90509202  1  -1.104328  0.089296  -0.310278  -0.512363  0.058128  2.378217  0.081
O  O126  1  0.35545449  0.44283590  0.59491284  1  -1.104156  -0.089306  -0.310201  -0.512158  -0.058135  2.377789  -0.081
O  O127  1  0.14454305  0.05716986  0.09491175  1  -1.104062  -0.089303  -0.310178  -0.512083  -0.058133  2.377897  -0.081
O  O128  1  0.31753950  0.30860595  0.47065658  1  -1.099843  -0.088884  -0.312593  -0.51485  -0.057832  2.388432  -0.081
O  O129  1  0.18245849  0.19139123  0.97065648  1  -1.099963  -0.088882  -0.312628  -0.514904  -0.057832  2.388602  -0.081
O  O130  1  0.68246608  0.69138404  0.52935028  1  -1.099868  0.088881  -0.312625  -0.514979  0.057831  2.388697  0.081
O  O131  1  0.81753211  0.80861298  0.02935090  1  -1.099672  0.088876  -0.312631  -0.514952  0.057828  2.388758  0.08
O  O132  1  0.55113564  0.30643998  0.47324121  1  -1.104405  0.084057  -0.31029  -0.513355  0.054623  2.372689  0.076
O  O133  1  0.94886216  0.19355869  0.97324387  1  -1.10444  0.084051  -0.310339  -0.513357  0.05462  2.372686  0.076
O  O134  1  0.44887334  0.69355100  0.52674552  1  -1.104338  -0.084043  -0.310306  -0.513362  -0.054614  2.372692  -0.076
O  O135  1  0.05112600  0.80644756  0.02674700  1  -1.104314  -0.08405  -0.310315  -0.513326  -0.054619  2.372784  -0.076
