# generated using pymatgen
data_PrH15C28(N2O3)2
_symmetry_space_group_name_H-M   'P 1'
_cell_length_a   11.37399996
_cell_length_b   13.50008558
_cell_length_c   20.26964365
_cell_angle_alpha   94.55896529
_cell_angle_beta   89.98896772
_cell_angle_gamma   114.91881844
_symmetry_Int_Tables_number   1
_chemical_formula_structural   PrH15C28(N2O3)2
_chemical_formula_sum   'Pr4 H60 C112 N16 O24'
_cell_volume   2811.81629356
_cell_formula_units_Z   4
loop_
 _symmetry_equiv_pos_site_id
 _symmetry_equiv_pos_as_xyz
  1  'x, y, z'
loop_
 _atom_site_type_symbol
 _atom_site_label
 _atom_site_symmetry_multiplicity
 _atom_site_fract_x
 _atom_site_fract_y
 _atom_site_fract_z
 _atom_site_occupancy
 _atom_site_pbe_bader_charge
 _atom_site_pbe_bader_spin_density
 _atom_site_pbe_cm5_charge
 _atom_site_pbe_ddec_charge
 _atom_site_pbe_ddec_spin_density
 _atom_site_pbe_ddec_sum_bond_order
 _atom_site_pbe_magmom
Pr  Pr0  1  0.23851323  0.15391832  0.79353577  1  2.222685  0  1.513307  1.969652  0  2.276269  0
Pr  Pr1  1  0.08456163  0.84607645  0.70644641  1  2.22784  0  1.513504  1.969179  0  2.277101  0
Pr  Pr2  1  0.76148503  0.84608199  0.20646376  1  2.222686  0  1.513293  1.969673  0  2.276219  0
Pr  Pr3  1  0.91543804  0.15392141  0.29355349  1  2.227873  0  1.513465  1.969215  0  2.276999  0
H  H4  1  0.56737348  0.25826230  0.80780248  1  0.135347  0  0.124928  0.092965  0  1.02004  0
H  H5  1  0.30894876  0.74179846  0.69205262  1  0.131205  0  0.124965  0.093036  0  1.01997  0
H  H6  1  0.43261998  0.74173719  0.19219947  1  0.135356  0  0.124939  0.092976  0  1.019984  0
H  H7  1  0.69105126  0.25820185  0.30794642  1  0.131238  0  0.124962  0.093021  0  1.019997  0
H  H8  1  0.78043354  0.38650977  0.76656866  1  0.111578  0  0.107353  0.111256  0  1.004431  0
H  H9  1  0.39413096  0.61390928  0.73339910  1  0.086708  0  0.107119  0.111352  0  1.004687  0
H  H10  1  0.21955998  0.61348809  0.23343322  1  0.111628  0  0.107319  0.11121  0  1.004437  0
H  H11  1  0.60586694  0.38608857  0.26659932  1  0.086722  0  0.107125  0.111375  0  1.004688  0
H  H12  1  0.78272816  0.51893063  0.68542676  1  0.109144  0  0.110788  0.116852  0  1.015398  0
H  H13  1  0.26412666  0.48148318  0.81458857  1  0.100544  0  0.110978  0.116865  0  1.015416  0
H  H14  1  0.21727274  0.48106969  0.31457524  1  0.109362  0  0.110814  0.116891  0  1.015406  0
H  H15  1  0.73587160  0.51851713  0.18541047  1  0.100519  0  0.110958  0.116843  0  1.01542  0
H  H16  1  0.18866648  0.47359368  0.57497957  1  0.102852  0  0.108471  0.111194  0  1.016492  0
H  H17  1  0.71510131  0.52639783  0.92505642  1  0.103381  0  0.108661  0.111381  0  1.016227  0
H  H18  1  0.81133002  0.52640663  0.42501996  1  0.102899  0  0.108437  0.111138  0  1.016473  0
H  H19  1  0.28489912  0.47360331  0.07494217  1  0.103601  0  0.108684  0.1114  0  1.016202  0
H  H20  1  0.99143309  0.33767900  0.62666913  1  0.079929  0  0.107112  0.111583  0  1.00069  0
H  H21  1  0.65370821  0.66226895  0.87339112  1  0.064132  0  0.106932  0.111833  0  1.0004  0
H  H22  1  0.00856341  0.66232132  0.37332942  1  0.080005  0  0.107087  0.111543  0  1.000667  0
H  H23  1  0.34629087  0.33773300  0.12660800  1  0.064051  0  0.106963  0.111873  0  1.000428  0
H  H24  1  0.02201339  0.22767424  0.71378641  1  0.125248  0  0.11998  0.08818  0  1.017216  0
H  H25  1  0.79435723  0.77240776  0.78631331  1  0.113027  0  0.120019  0.088558  0  1.017088  0
H  H26  1  0.97798317  0.77232443  0.28621156  1  0.125232  0  0.11998  0.088146  0  1.017248  0
H  H27  1  0.20564619  0.22759583  0.21368640  1  0.112905  0  0.119996  0.088501  0  1.017123  0
H  H28  1  0.84501510  0.77631225  0.55769776  1  0.100232  0  0.109419  0.110667  0  1.032942  0
H  H29  1  0.06892080  0.22376399  0.94229722  1  0.11073  0  0.109285  0.110538  0  1.033603  0
H  H30  1  0.15498416  0.22368478  0.44230012  1  0.100181  0  0.109427  0.110688  0  1.032941  0
H  H31  1  0.93108092  0.77623796  0.05770240  1  0.110743  0  0.109292  0.11057  0  1.033551  0
H  H32  1  0.95127669  0.91515043  0.48072091  1  0.090222  0  0.108545  0.113079  0  1.013629  0
H  H33  1  0.03609362  0.08482781  0.01925286  1  0.083933  0  0.108535  0.113007  0  1.014342  0
H  H34  1  0.04872210  0.08484742  0.51927801  1  0.090175  0  0.108551  0.113083  0  1.01365  0
H  H35  1  0.96390986  0.91517414  0.98074529  1  0.083898  0  0.108533  0.113012  0  1.014357  0
H  H36  1  0.58443725  0.83324970  0.37980093  1  0.054311  0  0.111434  0.114632  0  0.987255  0
H  H37  1  0.75107679  0.16672266  0.12011326  1  0.076177  0  0.110818  0.114165  0  0.987743  0
H  H38  1  0.41556142  0.16675143  0.62019963  1  0.05432  0  0.111442  0.114621  0  0.98729  0
H  H39  1  0.24892499  0.83327765  0.87988529  1  0.076128  0  0.110819  0.114163  0  0.987753  0
H  H40  1  0.47341617  0.69411312  0.46050201  1  0.050047  0  0.10294  0.106473  0  1.008997  0
H  H41  1  0.77939492  0.30592198  0.03944311  1  0.1016  0  0.102743  0.105969  0  1.009655  0
H  H42  1  0.52658163  0.30588802  0.53949806  1  0.050089  0  0.102947  0.10648  0  1.008963  0
H  H43  1  0.22060726  0.69407916  0.96055597  1  0.101524  0  0.102746  0.105963  0  1.009687  0
H  H44  1  0.64543068  0.47272914  0.08126236  1  0.058593  0  0.101156  0.098023  0  1.030719  0
H  H45  1  0.17285317  0.52727031  0.41877543  1  0.072434  0  0.101304  0.09809  0  1.03047  0
H  H46  1  0.35456893  0.52727035  0.91873714  1  0.058601  0  0.101122  0.097952  0  1.030752  0
H  H47  1  0.82715565  0.47273000  0.58122510  1  0.072428  0  0.101272  0.098049  0  1.030463  0
H  H48  1  0.51027162  0.31922480  0.99722146  1  0.105976  0  0.113424  0.122304  0  0.983417  0
H  H49  1  0.19113778  0.68075716  0.50283384  1  0.119049  0  0.113571  0.122666  0  0.983662  0
H  H50  1  0.48972928  0.68077551  0.00277906  1  0.10598  0  0.113435  0.122317  0  0.983415  0
H  H51  1  0.80886968  0.31924398  0.49716623  1  0.119108  0  0.11359  0.12265  0  0.983677  0
H  H52  1  0.60925646  0.11716651  0.83526650  1  0.070968  0  0.110612  0.116249  0  0.996675  0
H  H53  1  0.49208200  0.88284231  0.66457768  1  0.078932  0  0.110568  0.115814  0  0.995937  0
H  H54  1  0.39074871  0.88283709  0.16473321  1  0.070919  0  0.110631  0.116306  0  0.996646  0
H  H55  1  0.50791691  0.11715227  0.33542551  1  0.078889  0  0.110608  0.115879  0  0.995913  0
H  H56  1  0.83180538  0.11936244  0.83420756  1  0.069777  0  0.105662  0.110186  0  1.006412  0
H  H57  1  0.71226333  0.88032177  0.66566921  1  0.070695  0  0.105742  0.110683  0  1.005717  0
H  H58  1  0.16819856  0.88063869  0.16579103  1  0.069774  0  0.105674  0.110228  0  1.006398  0
H  H59  1  0.28773511  0.11967363  0.33433253  1  0.070738  0  0.105717  0.110651  0  1.005694  0
H  H60  1  0.75071722  0.62993276  0.60579727  1  0.551727  0  0.314216  0.295695  0  0.972334  0
H  H61  1  0.12090555  0.37020334  0.89410445  1  0.534617  0  0.314053  0.295103  0  0.973245  0
H  H62  1  0.24928057  0.37006838  0.39420329  1  0.551696  0  0.314214  0.295749  0  0.97228  0
H  H63  1  0.87909745  0.62979944  0.10589422  1  0.534412  0  0.314053  0.295108  0  0.973249  0
C  C64  1  0.57176284  0.31500169  0.77162847  1  0.517157  0  0.058564  0.115231  0  3.949171  0
C  C65  1  0.25669407  0.68509596  0.72825286  1  0.498114  0  0.059525  0.116742  0  3.948175  0
C  C66  1  0.42823150  0.68499781  0.22837299  1  0.517329  0  0.058642  0.115315  0  3.949019  0
C  C67  1  0.74330771  0.31490435  0.27174619  1  0.497999  0  0.059543  0.1168  0  3.948345  0
C  C68  1  0.69088374  0.38735813  0.74834425  1  -0.078841  0  -0.083339  -0.119233  0  3.98584  0
C  C69  1  0.30360684  0.61289548  0.75159152  1  -0.008215  0  -0.083874  -0.121189  0  3.98807  0
C  C70  1  0.30911060  0.61264137  0.25165771  1  -0.078733  0  -0.083366  -0.119224  0  3.985974  0
C  C71  1  0.69639406  0.38710483  0.24840801  1  -0.008186  0  -0.083883  -0.121252  0  3.988121  0
C  C72  1  0.69182956  0.45930037  0.70334085  1  -0.071687  0  -0.070288  -0.076866  0  3.933148  0
C  C73  1  0.23269310  0.54096642  0.79663590  1  -0.045555  0  -0.07014  -0.075351  0  3.932918  0
C  C74  1  0.30816695  0.54069995  0.29666066  1  -0.072245  0  -0.070328  -0.076943  0  3.933369  0
C  C75  1  0.76730692  0.45903389  0.20336264  1  -0.045548  0  -0.070114  -0.075313  0  3.932876  0
C  C76  1  0.57255064  0.45575886  0.68085123  1  0.043089  0  -0.002597  -0.020007  0  4.028541  0
C  C77  1  0.11687613  0.54438651  0.81911855  1  0.03287  0  -0.002647  -0.020824  0  4.029209  0
C  C78  1  0.42744715  0.54424228  0.31914933  1  0.043096  0  -0.00256  -0.019914  0  4.028516  0
C  C79  1  0.88312389  0.45561380  0.18088000  1  0.033138  0  -0.002687  -0.02082  0  4.029167  0
C  C80  1  0.55949893  0.52249615  0.63319281  1  0.404382  0  0.091591  0.083408  0  4.054543  0
C  C81  1  0.03711613  0.47765092  0.86680477  1  0.356968  0  0.091624  0.083616  0  4.05447  0
C  C82  1  0.44050021  0.47750417  0.36680722  1  0.404539  0  0.091555  0.083307  0  4.054562  0
C  C83  1  0.96288342  0.52235021  0.13319382  1  0.357124  0  0.091658  0.083688  0  4.054389  0
C  C84  1  0.43927377  0.51298438  0.60905381  1  0.482314  0  0.086861  0.089267  0  4.100923  0
C  C85  1  0.92637364  0.48710537  0.89098456  1  0.525358  0  0.086594  0.087831  0  4.10257  0
C  C86  1  0.56072361  0.48701594  0.39094573  1  0.481947  0  0.086869  0.089306  0  4.100925  0
C  C87  1  0.07362462  0.51289494  0.10901497  1  0.525249  0  0.08657  0.087733  0  4.10263  0
C  C88  1  0.32072476  0.43602618  0.63387174  1  0.012642  0  0.005073  -0.009356  0  3.986043  0
C  C89  1  0.88475725  0.56405630  0.86617146  1  -0.004482  0  0.005012  -0.009116  0  3.985873  0
C  C90  1  0.67927134  0.56397331  0.36612726  1  0.012716  0  0.005057  -0.009386  0  3.986151  0
C  C91  1  0.11524500  0.43594319  0.13382754  1  -0.004528  0  0.005034  -0.009  0  3.985776  0
C  C92  1  0.19681813  0.42368594  0.61289330  1  -0.0125  0  -0.059523  -0.050319  0  3.909279  0
C  C93  1  0.77315292  0.57632594  0.88714906  1  -0.016316  0  -0.060056  -0.050321  0  3.909188  0
C  C94  1  0.80317966  0.57631519  0.38710578  1  -0.012477  0  -0.059468  -0.050285  0  3.909229  0
C  C95  1  0.22684804  0.42367273  0.11284941  1  -0.016532  0  -0.060108  -0.050422  0  3.909256  0
C  C96  1  0.08870983  0.34929131  0.64155333  1  -0.021736  0  -0.084188  -0.126812  0  3.986619  0
C  C97  1  0.73939514  0.65069511  0.85850374  1  -0.004807  0  -0.083657  -0.127086  0  3.987475  0
C  C98  1  0.91128667  0.65070901  0.35844571  1  -0.02173  0  -0.084145  -0.126696  0  3.986567  0
C  C99  1  0.26060746  0.34930684  0.14149538  1  -0.004763  0  -0.083681  -0.127083  0  3.987443  0
C  C100  1  0.10526837  0.28741008  0.69026149  1  0.465164  0  0.054475  0.104634  0  3.970208  0
C  C101  1  0.81782559  0.71261411  0.80978997  1  0.457196  0  0.053249  0.103178  0  3.970898  0
C  C102  1  0.89472989  0.71259023  0.30973706  1  0.464691  0  0.05443  0.104622  0  3.970333  0
C  C103  1  0.18217777  0.28739112  0.19020982  1  0.457346  0  0.053292  0.103255  0  3.970838  0
C  C104  1  0.32920725  0.36944242  0.68331302  1  0.492819  0  0.120176  0.12215  0  3.982337  0
C  C105  1  0.95977256  0.63062493  0.81670859  1  0.489837  0  0.119971  0.121327  0  3.982811  0
C  C106  1  0.67078920  0.63055954  0.31668710  1  0.492487  0  0.120211  0.122222  0  3.982276  0
C  C107  1  0.04022957  0.36937784  0.18329156  1  0.490098  0  0.120031  0.121357  0  3.982931  0
C  C108  1  0.45520170  0.37833479  0.70602656  1  0.48871  0  0.121693  0.129966  0  3.982547  0
C  C109  1  0.07689626  0.62175997  0.79395203  1  0.508958  0  0.122648  0.131473  0  3.98311  0
C  C110  1  0.54479434  0.62166635  0.29397400  1  0.488747  0  0.121645  0.129922  0  3.982607  0
C  C111  1  0.92310592  0.37824116  0.20604706  1  0.50857  0  0.122651  0.131417  0  3.983114  0
C  C112  1  0.58545151  0.63924520  0.55785511  1  0.961596  0  0.222187  0.303362  0  4.013152  0
C  C113  1  0.94634556  0.36082980  0.94212319  1  0.973956  0  0.221984  0.302634  0  4.012614  0
C  C114  1  0.41454804  0.36075594  0.44214545  1  0.961591  0  0.222151  0.303343  0  4.013149  0
C  C115  1  0.05365445  0.63917051  0.05787536  1  0.974184  0  0.222003  0.302643  0  4.01267  0
C  C116  1  0.65094031  0.72426412  0.51364607  1  -0.046078  0  -0.006723  0.010049  0  4.032547  0
C  C117  1  0.92684187  0.27581167  0.98632436  1  -0.001674  0  -0.006485  0.010103  0  4.031632  0
C  C118  1  0.34905708  0.27573619  0.48635396  1  -0.04611  0  -0.006785  0.00992  0  4.032651  0
C  C119  1  0.07315563  0.72418536  0.01367352  1  -0.002254  0  -0.006507  0.01013  0  4.031683  0
C  C120  1  0.78595994  0.78718372  0.51906990  1  0.054029  0  -0.084816  -0.115227  0  3.95108  0
C  C121  1  0.99894166  0.21287561  0.98092203  1  -0.084735  0  -0.085033  -0.115178  0  3.95093  0
C  C122  1  0.21403926  0.21281495  0.48092905  1  0.054037  0  -0.084801  -0.115141  0  3.951124  0
C  C123  1  0.00105718  0.78712060  0.01907532  1  -0.084456  0  -0.085072  -0.115303  0  3.950843  0
C  C124  1  0.84684143  0.86654423  0.47554970  1  -0.065417  0  -0.078639  -0.085534  0  3.959443  0
C  C125  1  0.98035311  0.13348161  0.02443101  1  0.000602  0  -0.078632  -0.085611  0  3.961662  0
C  C126  1  0.15315736  0.13345362  0.52444872  1  -0.065429  0  -0.078633  -0.085555  0  3.959442  0
C  C127  1  0.01964779  0.86651870  0.97556705  1  0.000564  0  -0.078612  -0.085552  0  3.961642  0
C  C128  1  0.77473865  0.88265054  0.42494370  1  -0.030378  0  -0.008076  -0.021063  0  3.951387  0
C  C129  1  0.89208873  0.11735488  0.07502042  1  -0.018224  0  -0.008625  -0.021082  0  3.951717  0
C  C130  1  0.22525967  0.11734814  0.57505624  1  -0.030318  0  -0.008111  -0.02118  0  3.951371  0
C  C131  1  0.10790912  0.88264461  0.92497858  1  -0.018177  0  -0.008612  -0.02105  0  3.951787  0
C  C132  1  0.63986355  0.81994781  0.41927763  1  -0.048096  0  -0.081751  -0.097744  0  3.972996  0
C  C133  1  0.81993519  0.18006750  0.08065873  1  -0.074823  0  -0.080675  -0.09717  0  3.973349  0
C  C134  1  0.36013424  0.18005332  0.58072244  1  -0.048083  0  -0.081702  -0.097644  0  3.972968  0
C  C135  1  0.18006618  0.81993200  0.91934076  1  -0.074589  0  -0.08066  -0.097218  0  3.97345  0
C  C136  1  0.57811563  0.74273364  0.46384758  1  0.019801  0  -0.08552  -0.111765  0  3.974614  0
C  C137  1  0.83545159  0.25729972  0.03609025  1  -0.017049  0  -0.085555  -0.111045  0  3.97489  0
C  C138  1  0.42188170  0.25726831  0.53615254  1  0.019798  0  -0.085524  -0.111746  0  3.97461  0
C  C139  1  0.16454808  0.74269813  0.96390817  1  -0.01712  0  -0.085531  -0.110984  0  3.974937  0
C  C140  1  0.83982193  0.96728306  0.37800696  1  1.560666  0  0.216498  0.61658  0  4.167856  0
C  C141  1  0.87238250  0.03273795  0.12198957  1  1.561199  0  0.216586  0.615665  0  4.169463  0
C  C142  1  0.16017680  0.03271643  0.62199352  1  1.560671  0  0.216524  0.616632  0  4.167833  0
C  C143  1  0.12761840  0.96726237  0.87800947  1  1.561178  0  0.216638  0.615739  0  4.169376  0
C  C144  1  0.58188692  0.48420583  0.04541634  1  0.010024  0  -0.083436  -0.102966  0  3.98601  0
C  C145  1  0.09775521  0.51581985  0.45458442  1  -0.012363  0  -0.083098  -0.101911  0  3.985659  0
C  C146  1  0.41811486  0.51579449  0.95458369  1  0.010406  0  -0.083412  -0.102899  0  3.985969  0
C  C147  1  0.90225501  0.48417801  0.54541745  1  -0.012621  0  -0.083106  -0.10188  0  3.985534  0
C  C148  1  0.50643254  0.39872375  0.99937291  1  -0.051422  0  -0.076439  -0.091587  0  3.959782  0
C  C149  1  0.10779578  0.60125512  0.50066573  1  -0.06098  0  -0.07696  -0.092431  0  3.960817  0
C  C150  1  0.49356836  0.60127657  0.00062811  1  -0.051814  0  -0.076448  -0.091608  0  3.95969  0
C  C151  1  0.89221092  0.39874274  0.49933565  1  -0.061278  0  -0.076924  -0.092385  0  3.96083  0
C  C152  1  0.42417595  0.41417603  0.95376391  1  -0.068375  0  -0.011021  -0.02129  0  3.963418  0
C  C153  1  0.01002846  0.58577435  0.54626767  1  -0.042985  0  -0.010769  -0.021667  0  3.962606  0
C  C154  1  0.57582366  0.58582346  0.04623657  1  -0.068368  0  -0.010987  -0.021237  0  3.963251  0
C  C155  1  0.98998299  0.41422597  0.45373433  1  -0.042614  0  -0.010909  -0.0218  0  3.962758  0
C  C156  1  0.34934355  0.32258136  0.90295913  1  1.55034  0  0.195946  0.571888  0  4.222749  0
C  C157  1  0.02671622  0.67736776  0.59704741  1  1.530021  0  0.196055  0.571497  0  4.223718  0
C  C158  1  0.65065342  0.67741814  0.09704234  1  1.550333  0  0.195994  0.571979  0  4.222554  0
C  C159  1  0.97329224  0.32263010  0.40295397  1  1.530596  0  0.196114  0.571635  0  4.223365  0
C  C160  1  0.53909831  0.00001348  0.74990716  1  0.008777  0  -0.014382  -0.035736  0  3.974209  0
C  C161  1  0.46090043  0.99998602  0.25009431  1  0.008727  0  -0.014328  -0.035572  0  3.974078  0
C  C162  1  0.63385589  0.06716734  0.79783427  1  -0.060023  0  -0.083572  -0.099546  0  3.987278  0
C  C163  1  0.56666407  0.93277119  0.70201764  1  -0.02001  0  -0.083268  -0.097879  0  3.984553  0
C  C164  1  0.36614724  0.93283215  0.20216571  1  -0.059886  0  -0.083593  -0.099603  0  3.987235  0
C  C165  1  0.43333513  0.06722749  0.29798329  1  -0.019984  0  -0.083324  -0.098111  0  3.984654  0
C  C166  1  0.75629208  0.06795656  0.79751819  1  -0.003602  0  -0.084547  -0.096464  0  3.98441  0
C  C167  1  0.68823870  0.93183236  0.70235069  1  -0.053969  0  -0.084393  -0.09722  0  3.982394  0
C  C168  1  0.24370976  0.93204212  0.20248225  1  -0.003518  0  -0.08458  -0.096548  0  3.984512  0
C  C169  1  0.31175799  0.06816304  0.29765154  1  -0.054001  0  -0.08433  -0.09701  0  3.982209  0
C  C170  1  0.78314557  0.99989654  0.74994063  1  -0.030605  0  -0.016655  -0.03911  0  3.98593  0
C  C171  1  0.21685375  0.00009886  0.25006013  1  -0.030536  0  -0.016692  -0.039212  0  3.985993  0
C  C172  1  0.40794836  0.00008917  0.74988515  1  1.587841  0  0.234101  0.635821  0  4.164246  0
C  C173  1  0.59204996  0.99990950  0.25011528  1  1.587832  0  0.234098  0.635906  0  4.164018  0
C  C174  1  0.91378436  0.99990280  0.74996054  1  1.577721  0  0.238692  0.647131  0  4.159878  0
C  C175  1  0.08621877  0.00009669  0.25004142  1  1.577479  0  0.238633  0.647062  0  4.160067  0
N  N176  1  0.45777955  0.31027979  0.75119770  1  -1.240917  0  -0.367872  -0.360891  0  3.488255  0
N  N177  1  0.14741686  0.68975022  0.74872570  1  -1.247774  0  -0.369084  -0.362643  0  3.489843  0
N  N178  1  0.54221642  0.68972298  0.24880295  1  -1.241039  0  -0.367909  -0.360959  0  3.488207  0
N  N179  1  0.85258444  0.31025091  0.25127338  1  -1.247608  0  -0.36908  -0.362651  0  3.489885  0
N  N180  1  0.22125503  0.29605217  0.71047550  1  -1.242355  0  -0.364975  -0.368495  0  3.492111  0
N  N181  1  0.92519417  0.70399706  0.78955237  1  -1.245444  0  -0.363491  -0.366569  0  3.490631  0
N  N182  1  0.77874364  0.70394897  0.28952358  1  -1.241594  0  -0.364937  -0.368501  0  3.492116  0
N  N183  1  0.07480831  0.29600817  0.21044841  1  -1.245596  0  -0.363489  -0.366607  0  3.490706  0
N  N184  1  0.45680280  0.58573612  0.56234394  1  -1.141078  0  -0.340037  -0.397998  0  3.171587  0
N  N185  1  0.87117747  0.41433672  0.93769016  1  -1.161163  0  -0.339703  -0.397025  0  3.172648  0
N  N186  1  0.54319459  0.41426419  0.43765658  1  -1.140897  0  -0.339967  -0.397916  0  3.171539  0
N  N187  1  0.12882255  0.58566360  0.06230888  1  -1.161153  0  -0.339716  -0.397042  0  3.172682  0
N  N188  1  0.65137117  0.60335284  0.60030690  1  -1.304352  0  -0.369633  -0.29466  0  3.562147  0
N  N189  1  0.04814305  0.39677400  0.89964312  1  -1.275326  0  -0.369154  -0.293182  0  3.560528  0
N  N190  1  0.34862709  0.39664748  0.39969363  1  -1.304367  0  -0.36964  -0.294733  0  3.562037  0
N  N191  1  0.95185826  0.60322713  0.10035547  1  -1.275169  0  -0.36921  -0.293243  0  3.560547  0
O  O192  1  0.79948604  0.94466142  0.31665195  1  -1.226052  0  -0.443613  -0.741723  0  2.424632  0
O  O193  1  0.85447048  0.05535751  0.18332541  1  -1.226617  0  -0.443427  -0.740991  0  2.42375  0
O  O194  1  0.20051439  0.05533972  0.68334812  1  -1.226058  0  -0.443597  -0.741723  0  2.424668  0
O  O195  1  0.14553042  0.94464280  0.81667363  1  -1.226656  0  -0.443468  -0.741073  0  2.423723  0
O  O196  1  0.92824432  0.05964462  0.39822998  1  -1.172863  0  -0.347696  -0.580668  0  2.147762  0
O  O197  1  0.86867104  0.94044008  0.10179885  1  -1.166982  0  -0.347656  -0.580688  0  2.148339  0
O  O198  1  0.07175400  0.94035405  0.60177095  1  -1.172869  0  -0.34774  -0.580685  0  2.147762  0
O  O199  1  0.13132768  0.05955941  0.89819916  1  -1.16692  0  -0.347673  -0.580683  0  2.148429  0
O  O200  1  0.25210792  0.32349185  0.87036764  1  -1.208344  0  -0.372116  -0.657507  0  2.206681  0
O  O201  1  0.92852051  0.67650190  0.62959184  1  -1.207727  0  -0.372148  -0.657081  0  2.206459  0
O  O202  1  0.74788606  0.67650519  0.12963617  1  -1.208357  0  -0.372142  -0.657555  0  2.206676  0
O  O203  1  0.07148713  0.32349432  0.37040896  1  -1.207885  0  -0.372231  -0.657166  0  2.206394  0
O  O204  1  0.38714854  0.24706850  0.89182880  1  -1.171411  0  -0.373576  -0.592943  0  2.199292  0
O  O205  1  0.14002612  0.75290887  0.60816464  1  -1.172701  0  -0.373845  -0.59263  0  2.199998  0
O  O206  1  0.61285142  0.75293346  0.10816934  1  -1.171429  0  -0.37364  -0.593035  0  2.19922  0
O  O207  1  0.85998094  0.24709144  0.39183638  1  -1.173147  0  -0.373807  -0.592654  0  2.199863  0
O  O208  1  0.39710419  0.07950634  0.78323997  1  -1.195983  0  -0.397658  -0.63958  0  2.316643  0
O  O209  1  0.31763114  0.92074614  0.71650365  1  -1.210011  0  -0.397318  -0.638823  0  2.317028  0
O  O210  1  0.60289583  0.92049398  0.21676055  1  -1.19595  0  -0.397671  -0.639651  0  2.316669  0
O  O211  1  0.68236724  0.07925090  0.28349867  1  -1.210006  0  -0.397324  -0.638923  0  2.316966  0
O  O212  1  0.00851211  0.08719778  0.77362139  1  -1.210561  0  -0.402176  -0.660314  0  2.314552  0
O  O213  1  0.92112140  0.91253464  0.72634488  1  -1.203105  0  -0.402631  -0.660635  0  2.313681  0
O  O214  1  0.99148879  0.91280253  0.22637814  1  -1.210544  0  -0.402173  -0.660297  0  2.314485  0
O  O215  1  0.07887921  0.08746159  0.27365938  1  -1.203077  0  -0.402561  -0.660571  0  2.313763  0
