# generated using pymatgen
data_CdH24C28(SN5)2
_symmetry_space_group_name_H-M   'P 1'
_cell_length_a   10.85230119
_cell_length_b   10.85233068
_cell_length_c   13.11717544
_cell_angle_alpha   72.95437176
_cell_angle_beta   72.95416566
_cell_angle_gamma   84.52609864
_symmetry_Int_Tables_number   1
_chemical_formula_structural   CdH24C28(SN5)2
_chemical_formula_sum   'Cd2 H48 C56 S4 N20'
_cell_volume   1412.02464584
_cell_formula_units_Z   2
loop_
 _symmetry_equiv_pos_site_id
 _symmetry_equiv_pos_as_xyz
  1  'x, y, z'
loop_
 _atom_site_type_symbol
 _atom_site_label
 _atom_site_symmetry_multiplicity
 _atom_site_fract_x
 _atom_site_fract_y
 _atom_site_fract_z
 _atom_site_occupancy
 _atom_site_hle17_bader_spin_density
 _atom_site_hle17_ddec_charge
 _atom_site_hle17_ddec_spin_density
 _atom_site_hle17_ddec_sum_bond_order
 _atom_site_hle17_magmom
 _atom_site_hse06_10hf_bader_spin_density
 _atom_site_hse06_10hf_ddec_charge
 _atom_site_hse06_10hf_ddec_spin_density
 _atom_site_hse06_10hf_ddec_sum_bond_order
 _atom_site_hse06_10hf_magmom
 _atom_site_hse06_bader_spin_density
 _atom_site_hse06_ddec_charge
 _atom_site_hse06_ddec_spin_density
 _atom_site_hse06_ddec_sum_bond_order
 _atom_site_hse06_magmom
 _atom_site_pbe_bader_spin_density
 _atom_site_pbe_cm5_charge
 _atom_site_pbe_ddec_charge
 _atom_site_pbe_ddec_spin_density
 _atom_site_pbe_ddec_sum_bond_order
 _atom_site_pbe_magmom
Cd  Cd0  1  0.99999378  0.50000201  0.49999760  1  0  1.031437  0  1.917521  0  0  0.836169  0  2.380383  0  0  0.882191  0  2.34137  0  0  0.799031  0.804245  0  2.406727  0
Cd  Cd1  1  0.49999948  0.00000069  0.00000082  1  0  1.031441  0  1.91748  0  0  0.836175  0  2.380354  0  0  0.882198  0  2.34134  0  0  0.79904  0.80425  0  2.406697  0
H  H2  1  0.09695186  0.71133336  0.80729079  1  0  0.097245  0  0.965074  0  0  0.106848  0  1.029806  0  0  0.10981  0  1.028186  0  0  0.100363  0.104816  0  1.030812  0
H  H3  1  0.28866812  0.90304764  0.69271055  1  0  0.097244  0  0.965079  0  0  0.106849  0  1.029813  0  0  0.109811  0  1.028194  0  0  0.100369  0.104817  0  1.030819  0
H  H4  1  0.90305118  0.28866721  0.19270970  1  0  0.097226  0  0.965058  0  0  0.106829  0  1.029805  0  0  0.109789  0  1.028182  0  0  0.100367  0.104778  0  1.03083  0
H  H5  1  0.71133204  0.09695103  0.30729033  1  0  0.097248  0  0.965082  0  0  0.10685  0  1.029819  0  0  0.109811  0  1.028199  0  0  0.10037  0.104811  0  1.030832  0
H  H6  1  0.15329144  0.76843686  0.95499485  1  0  0.085596  0  0.986269  0  0  0.090654  0  1.058206  0  0  0.093397  0  1.057154  0  0  0.091475  0.088342  0  1.05968  0
H  H7  1  0.23156418  0.84670860  0.54500495  1  0  0.085611  0  0.986255  0  0  0.090673  0  1.058185  0  0  0.093416  0  1.057133  0  0  0.091489  0.088362  0  1.059658  0
H  H8  1  0.84671064  0.23156372  0.04500587  1  0  0.085638  0  0.986217  0  0  0.090684  0  1.05816  0  0  0.093426  0  1.057109  0  0  0.091498  0.088373  0  1.059634  0
H  H9  1  0.76843502  0.15329105  0.45499441  1  0  0.085604  0  0.986265  0  0  0.090658  0  1.058204  0  0  0.093401  0  1.057152  0  0  0.091486  0.088347  0  1.059677  0
H  H10  1  0.78903784  0.62172786  0.18434440  1  0  0.089296  0  0.987756  0  0  0.096412  0  1.056804  0  0  0.098126  0  1.057725  0  0  0.093038  0.095147  0  1.056205  0
H  H11  1  0.37827300  0.21096360  0.31565897  1  0  0.089177  0  0.98779  0  0  0.09631  0  1.056837  0  0  0.098023  0  1.05776  0  0  0.092989  0.095046  0  1.056238  0
H  H12  1  0.21096232  0.37827274  0.81565602  1  0  0.089335  0  0.987798  0  0  0.096465  0  1.056824  0  0  0.098178  0  1.057746  0  0  0.093057  0.0952  0  1.056225  0
H  H13  1  0.62172811  0.78903891  0.68434228  1  0  0.089249  0  0.987789  0  0  0.096368  0  1.056844  0  0  0.09808  0  1.057766  0  0  0.093006  0.095104  0  1.056244  0
H  H14  1  0.73443376  0.55833245  0.03781896  1  0  0.105531  0  0.973864  0  0  0.114877  0  1.038532  0  0  0.117705  0  1.037098  0  0  0.098874  0.112618  0  1.040077  0
H  H15  1  0.44166487  0.26556542  0.46218503  1  0  0.105517  0  0.973887  0  0  0.114896  0  1.038531  0  0  0.117718  0  1.037113  0  0  0.098855  0.112636  0  1.040083  0
H  H16  1  0.26556833  0.44166427  0.96218269  1  0  0.105574  0  0.973833  0  0  0.114919  0  1.038498  0  0  0.117737  0  1.037092  0  0  0.098868  0.112656  0  1.040049  0
H  H17  1  0.55833722  0.73443324  0.53781616  1  0  0.105517  0  0.97382  0  0  0.114905  0  1.038458  0  0  0.117723  0  1.037051  0  0  0.09885  0.112643  0  1.040009  0
H  H18  1  0.06403515  0.60456450  0.70595207  1  0  0.085721  0  0.988781  0  0  0.090513  0  1.063589  0  0  0.092705  0  1.061065  0  0  0.12345  0.088823  0  1.065447  0
H  H19  1  0.39543545  0.93596370  0.79405124  1  0  0.085722  0  0.988746  0  0  0.090518  0  1.063545  0  0  0.092712  0  1.061018  0  0  0.12346  0.088824  0  1.065408  0
H  H20  1  0.93596693  0.39543705  0.29404765  1  0  0.085722  0  0.98879  0  0  0.090532  0  1.063572  0  0  0.092727  0  1.061042  0  0  0.123463  0.088843  0  1.065428  0
H  H21  1  0.60456471  0.06403400  0.20595216  1  0  0.085723  0  0.988778  0  0  0.090508  0  1.063591  0  0  0.092703  0  1.061065  0  0  0.123451  0.088819  0  1.065448  0
H  H22  1  0.69818345  0.51919767  0.69484114  1  0  0.110206  0  0.940281  0  0  0.120814  0  0.996925  0  0  0.123372  0  0.995869  0  0  0.118794  0.118895  0  0.997942  0
H  H23  1  0.48080589  0.30181456  0.80516224  1  0  0.110179  0  0.940288  0  0  0.120816  0  0.996902  0  0  0.123375  0  0.995845  0  0  0.118769  0.118898  0  0.997919  0
H  H24  1  0.30181767  0.48080582  0.30515835  1  0  0.110151  0  0.940261  0  0  0.120801  0  0.996869  0  0  0.123361  0  0.995811  0  0  0.118797  0.118883  0  0.997886  0
H  H25  1  0.51919427  0.69818604  0.19483818  1  0  0.110174  0  0.94031  0  0  0.120791  0  0.996945  0  0  0.123351  0  0.995887  0  0  0.118786  0.118874  0  0.997961  0
H  H26  1  0.67075254  0.57219351  0.89503617  1  0  0.118  0  0.988207  0  0  0.123586  0  1.056143  0  0  0.125997  0  1.055145  0  0  0.118076  0.121698  0  1.057255  0
H  H27  1  0.42780647  0.32924567  0.60496659  1  0  0.117991  0  0.988311  0  0  0.123593  0  1.056212  0  0  0.126008  0  1.055212  0  0  0.118069  0.121703  0  1.057332  0
H  H28  1  0.32924954  0.42780707  0.10496302  1  0  0.11799  0  0.988205  0  0  0.123558  0  1.056164  0  0  0.125974  0  1.055164  0  0  0.118056  0.121674  0  1.057269  0
H  H29  1  0.57219177  0.67075109  0.39503445  1  0  0.117986  0  0.988233  0  0  0.123586  0  1.056164  0  0  0.126  0  1.055162  0  0  0.118058  0.121707  0  1.057255  0
H  H30  1  0.04663758  0.65173251  0.22369794  1  0  0.087583  0  0.963447  0  0  0.098814  0  1.033709  0  0  0.098711  0  1.035387  0  0  0.113914  0.098757  0  1.032789  0
H  H31  1  0.34827031  0.95336402  0.27630119  1  0  0.087573  0  0.963431  0  0  0.098799  0  1.033697  0  0  0.098695  0  1.035376  0  0  0.113917  0.09874  0  1.032776  0
H  H32  1  0.95336450  0.34827000  0.77630232  1  0  0.08755  0  0.963414  0  0  0.098816  0  1.033647  0  0  0.098713  0  1.035326  0  0  0.113923  0.098759  0  1.032727  0
H  H33  1  0.65173177  0.04663657  0.72369877  1  0  0.087595  0  0.963408  0  0  0.098829  0  1.033663  0  0  0.098726  0  1.035342  0  0  0.113922  0.098771  0  1.032741  0
H  H34  1  0.91781345  0.76206822  0.23044982  1  0  0.096753  0  0.903712  0  0  0.11421  0  0.959808  0  0  0.115187  0  0.959297  0  0  0.117812  0.113491  0  0.960231  0
H  H35  1  0.23793336  0.08218431  0.26955123  1  0  0.096735  0  0.903722  0  0  0.114185  0  0.959824  0  0  0.115159  0  0.959315  0  0  0.117764  0.113465  0  0.960247  0
H  H36  1  0.08218670  0.23793238  0.76955060  1  0  0.096725  0  0.903746  0  0  0.114191  0  0.959844  0  0  0.115166  0  0.959335  0  0  0.117808  0.113473  0  0.960266  0
H  H37  1  0.76206873  0.91781532  0.73044820  1  0  0.09672  0  0.903736  0  0  0.114162  0  0.959849  0  0  0.115137  0  0.95934  0  0  0.117767  0.113444  0  0.960269  0
H  H38  1  0.27720851  0.73437537  0.12384423  1  0  0.090384  0  0.947006  0  0  0.098188  0  1.016064  0  0  0.099683  0  1.01475  0  0  0.131739  0.09689  0  1.017392  0
H  H39  1  0.26562962  0.72279209  0.37615522  1  0  0.090366  0  0.947024  0  0  0.098169  0  1.016084  0  0  0.099664  0  1.014769  0  0  0.13172  0.096871  0  1.017412  0
H  H40  1  0.72279164  0.26562716  0.87615649  1  0  0.090363  0  0.947053  0  0  0.098167  0  1.016104  0  0  0.099662  0  1.014788  0  0  0.131725  0.096869  0  1.017431  0
H  H41  1  0.73437343  0.27720945  0.62384428  1  0  0.09033  0  0.947059  0  0  0.098139  0  1.016096  0  0  0.099637  0  1.014778  0  0  0.131704  0.096842  0  1.017422  0
H  H42  1  0.20403128  0.13493738  0.04687834  1  0  0.101893  0  0.98874  0  0  0.10819  0  1.056395  0  0  0.109789  0  1.057059  0  0  0.109984  0.106721  0  1.056648  0
H  H43  1  0.86506495  0.79596649  0.45312261  1  0  0.101847  0  0.988819  0  0  0.108186  0  1.056434  0  0  0.109788  0  1.057097  0  0  0.109975  0.106716  0  1.056688  0
H  H44  1  0.79596695  0.86506516  0.95312207  1  0  0.101837  0  0.988811  0  0  0.108162  0  1.056431  0  0  0.10976  0  1.057095  0  0  0.109967  0.106692  0  1.056686  0
H  H45  1  0.13493713  0.20403796  0.54687565  1  0  0.101902  0  0.988789  0  0  0.108224  0  1.056424  0  0  0.109825  0  1.057093  0  0  0.109991  0.106754  0  1.056677  0
H  H46  1  0.96987557  0.00469432  0.12046837  1  0  0.112551  0  0.957326  0  0  0.123826  0  1.016246  0  0  0.126352  0  1.015344  0  0  0.119138  0.121927  0  1.017167  0
H  H47  1  0.99530675  0.03012327  0.37953317  1  0  0.112534  0  0.957374  0  0  0.123819  0  1.016281  0  0  0.12634  0  1.015387  0  0  0.119147  0.12192  0  1.017201  0
H  H48  1  0.03012362  0.99530629  0.87953152  1  0  0.112515  0  0.957395  0  0  0.123798  0  1.016303  0  0  0.126324  0  1.015398  0  0  0.119126  0.121901  0  1.017222  0
H  H49  1  0.00469726  0.96988019  0.62046487  1  0  0.112527  0  0.957362  0  0  0.123797  0  1.016293  0  0  0.126316  0  1.015388  0  0  0.119128  0.121899  0  1.017212  0
C  C50  1  0.91027084  0.63356475  0.91202469  1  0  0.177514  0  3.773237  0  0  0.16709  0  4.020628  0  0  0.172574  0  4.043009  0  0  0.093902  0.163163  0  4.006095  0
C  C51  1  0.36643644  0.08972760  0.58797752  1  0  0.177328  0  3.773547  0  0  0.166945  0  4.020897  0  0  0.17243  0  4.043279  0  0  0.093867  0.16302  0  4.006364  0
C  C52  1  0.08973028  0.36643584  0.08797626  1  0  0.177565  0  3.773422  0  0  0.167127  0  4.020817  0  0  0.172613  0  4.043198  0  0  0.093888  0.163202  0  4.006281  0
C  C53  1  0.63356372  0.91027204  0.41202236  1  0  0.177327  0  3.773534  0  0  0.166939  0  4.020892  0  0  0.172424  0  4.043272  0  0  0.093871  0.163013  0  4.006359  0
C  C54  1  0.25575690  0.51427702  0.58238259  1  0  0.264871  0  4.097772  0  0  0.250251  0  4.399737  0  0  0.271526  0  4.41355  0  0  0.121295  0.235731  0  4.389951  0
C  C55  1  0.48571038  0.74423020  0.91761407  1  0  0.264735  0  4.097777  0  0  0.250119  0  4.399752  0  0  0.271395  0  4.413561  0  0  0.121321  0.235596  0  4.389962  0
C  C56  1  0.74422698  0.48570546  0.41760248  1  0  0.264495  0  4.097704  0  0  0.249866  0  4.399719  0  0  0.27115  0  4.413529  0  0  0.12115  0.235343  0  4.389926  0
C  C57  1  0.51429073  0.25576652  0.08239391  1  0  0.264691  0  4.097694  0  0  0.250073  0  4.399679  0  0  0.271352  0  4.413488  0  0  0.121333  0.235551  0  4.389886  0
C  C58  1  0.02828572  0.69232342  0.88952548  1  0  -0.147084  0  3.754581  0  0  -0.164151  0  4.004041  0  0  -0.168057  0  4.025166  0  0  -0.091843  -0.161609  0  3.990004  0
C  C59  1  0.30767760  0.97171405  0.61047520  1  0  -0.147129  0  3.754754  0  0  -0.164214  0  4.00421  0  0  -0.168125  0  4.025343  0  0  -0.091889  -0.161671  0  3.990169  0
C  C60  1  0.97171637  0.30767717  0.11047447  1  0  -0.147141  0  3.754726  0  0  -0.164232  0  4.004215  0  0  -0.168135  0  4.025336  0  0  -0.091889  -0.161672  0  3.990186  0
C  C61  1  0.69232353  0.02828462  0.38952468  1  0  -0.147124  0  3.75476  0  0  -0.164214  0  4.004229  0  0  -0.16812  0  4.025353  0  0  -0.091896  -0.161666  0  3.990193  0
C  C62  1  0.05958719  0.72549386  0.97363568  1  0  -0.104826  0  3.768108  0  0  -0.123845  0  4.01599  0  0  -0.125565  0  4.037447  0  0  -0.09585  -0.122654  0  4.002255  0
C  C63  1  0.27450822  0.94041248  0.52636554  1  0  -0.104742  0  3.768018  0  0  -0.123749  0  4.015875  0  0  -0.125468  0  4.037327  0  0  -0.095843  -0.12256  0  4.00214  0
C  C64  1  0.94041489  0.27450768  0.02636557  1  0  -0.104807  0  3.768106  0  0  -0.123788  0  4.015967  0  0  -0.125507  0  4.037422  0  0  -0.09585  -0.122596  0  4.002224  0
C  C65  1  0.72549291  0.05958715  0.47363412  1  0  -0.104755  0  3.768079  0  0  -0.123751  0  4.01597  0  0  -0.12547  0  4.037423  0  0  -0.09583  -0.122562  0  4.002232  0
C  C66  1  0.97377860  0.70250655  0.08002477  1  0  0.062399  0  3.741045  0  0  0.079961  0  3.982463  0  0  0.078948  0  4.006314  0  0  -0.016096  0.08082  0  3.96618  0
C  C67  1  0.29749556  0.02622022  0.41997653  1  0  0.062328  0  3.74102  0  0  0.07989  0  3.982438  0  0  0.078881  0  4.006285  0  0  -0.016077  0.08075  0  3.966154  0
C  C68  1  0.02622156  0.29749501  0.91997542  1  0  0.062365  0  3.741012  0  0  0.079917  0  3.982467  0  0  0.078905  0  4.006317  0  0  -0.016075  0.080777  0  3.966183  0
C  C69  1  0.70250653  0.97378037  0.58002343  1  0  0.062381  0  3.740992  0  0  0.079913  0  3.982447  0  0  0.078901  0  4.006295  0  0  -0.016078  0.080773  0  3.966162  0
C  C70  1  0.85669569  0.64263272  0.10156613  1  0  -0.100796  0  3.744057  0  0  -0.119424  0  3.990617  0  0  -0.121622  0  4.012697  0  0  -0.089589  -0.117747  0  3.975277  0
C  C71  1  0.35736705  0.14330374  0.39843564  1  0  -0.100589  0  3.743919  0  0  -0.119231  0  3.990505  0  0  -0.121428  0  4.012584  0  0  -0.089528  -0.117555  0  3.975164  0
C  C72  1  0.14330639  0.35736883  0.89843359  1  0  -0.100837  0  3.744116  0  0  -0.119483  0  3.990688  0  0  -0.12168  0  4.012768  0  0  -0.089611  -0.117805  0  3.975346  0
C  C73  1  0.64263214  0.85669686  0.60156501  1  0  -0.100723  0  3.744098  0  0  -0.119351  0  3.99068  0  0  -0.121546  0  4.012758  0  0  -0.089547  -0.117674  0  3.975337  0
C  C74  1  0.82494241  0.60723097  0.01871032  1  0  -0.128841  0  3.725682  0  0  -0.148094  0  3.976534  0  0  -0.151277  0  3.996267  0  0  -0.087803  -0.145965  0  3.963896  0
C  C75  1  0.39276918  0.17505709  0.48129134  1  0  -0.128818  0  3.725696  0  0  -0.148117  0  3.976521  0  0  -0.151302  0  3.99625  0  0  -0.087781  -0.145989  0  3.963883  0
C  C76  1  0.17505871  0.39276962  0.98128987  1  0  -0.128873  0  3.725662  0  0  -0.148094  0  3.976455  0  0  -0.15128  0  3.996183  0  0  -0.087779  -0.145962  0  3.963817  0
C  C77  1  0.60723194  0.82494350  0.51870885  1  0  -0.128753  0  3.725705  0  0  -0.148046  0  3.976513  0  0  -0.151234  0  3.996244  0  0  -0.087757  -0.145916  0  3.963874  0
C  C78  1  0.96080282  0.59056657  0.72788323  1  0  0.158209  0  3.647435  0  0  0.101595  0  3.907559  0  0  0.115297  0  3.919292  0  0  0.136223  0.093155  0  3.89892  0
C  C79  1  0.40943432  0.03919725  0.77211932  1  0  0.158195  0  3.647494  0  0  0.101596  0  3.907578  0  0  0.115297  0  3.919308  0  0  0.136237  0.093159  0  3.89894  0
C  C80  1  0.03919926  0.40943402  0.27211673  1  0  0.15824  0  3.647535  0  0  0.101623  0  3.907616  0  0  0.115327  0  3.919343  0  0  0.136224  0.093183  0  3.898975  0
C  C81  1  0.59056680  0.96080238  0.22788262  1  0  0.158175  0  3.647502  0  0  0.101576  0  3.907608  0  0  0.115279  0  3.91934  0  0  0.136245  0.093137  0  3.898968  0
C  C82  1  0.77052230  0.54329069  0.72781910  1  0  -0.007981  0  3.758549  0  0  -0.039124  0  4.02639  0  0  -0.037982  0  4.045741  0  0  -0.00404  -0.039815  0  4.013418  0
C  C83  1  0.45671095  0.22947550  0.77218398  1  0  -0.008007  0  3.758583  0  0  -0.039196  0  4.026449  0  0  -0.038056  0  4.045801  0  0  -0.004045  -0.039886  0  4.013475  0
C  C84  1  0.22947978  0.45671279  0.27217940  1  0  -0.007902  0  3.758296  0  0  -0.03909  0  4.026152  0  0  -0.03795  0  4.045503  0  0  -0.004025  -0.039781  0  4.013182  0
C  C85  1  0.54328632  0.77052319  0.22781912  1  0  -0.007931  0  3.75861  0  0  -0.039094  0  4.02646  0  0  -0.037953  0  4.045811  0  0  -0.004043  -0.039786  0  4.01349  0
C  C86  1  0.75543333  0.56963694  0.82705796  1  0  -0.058433  0  3.658489  0  0  -0.100338  0  3.919493  0  0  -0.098268  0  3.938027  0  0  0.001446  -0.101929  0  3.907593  0
C  C87  1  0.43036283  0.24456420  0.67294644  1  0  -0.058465  0  3.658708  0  0  -0.10036  0  3.919694  0  0  -0.098291  0  3.938226  0  0  0.001457  -0.10195  0  3.90779  0
C  C88  1  0.24456875  0.43036461  0.17294176  1  0  -0.05833  0  3.658435  0  0  -0.100223  0  3.919445  0  0  -0.098154  0  3.937977  0  0  0.001513  -0.101814  0  3.907545  0
C  C89  1  0.56963444  0.75543352  0.32705689  1  0  -0.058489  0  3.658604  0  0  -0.100402  0  3.91959  0  0  -0.09833  0  3.938118  0  0  0.001454  -0.101993  0  3.907694  0
C  C90  1  0.00567731  0.73572262  0.17345767  1  0  -0.039535  0  3.648792  0  0  -0.105102  0  3.895995  0  0  -0.100562  0  3.906565  0  0  -0.045631  -0.108059  0  3.8888  0
C  C91  1  0.26428057  0.99432176  0.32654364  1  0  -0.039569  0  3.648774  0  0  -0.105132  0  3.89599  0  0  -0.100589  0  3.906558  0  0  -0.045641  -0.10808  0  3.888781  0
C  C92  1  0.99432285  0.26427798  0.82654275  1  0  -0.039513  0  3.648751  0  0  -0.105133  0  3.896019  0  0  -0.100593  0  3.906589  0  0  -0.045704  -0.10809  0  3.888826  0
C  C93  1  0.73572344  0.00567977  0.67345562  1  0  -0.039544  0  3.648687  0  0  -0.105093  0  3.89591  0  0  -0.100554  0  3.90648  0  0  -0.045611  -0.108045  0  3.888712  0
C  C94  1  0.22781274  0.82706936  0.11372579  1  0  0.157143  0  3.672114  0  0  0.096273  0  3.941924  0  0  0.109546  0  3.955548  0  0  0.13628  0.087588  0  3.932765  0
C  C95  1  0.17293274  0.77218549  0.38627508  1  0  0.157149  0  3.672187  0  0  0.096289  0  3.941979  0  0  0.10956  0  3.955604  0  0  0.136332  0.087601  0  3.932824  0
C  C96  1  0.77218644  0.17293317  0.88627516  1  0  0.157178  0  3.672155  0  0  0.096329  0  3.941957  0  0  0.109601  0  3.95558  0  0  0.136349  0.087643  0  3.9328  0
C  C97  1  0.82706935  0.22781607  0.61372235  1  0  0.15719  0  3.672276  0  0  0.096331  0  3.942073  0  0  0.109601  0  3.955694  0  0  0.13635  0.087645  0  3.932916  0
C  C98  1  0.18406537  0.03268268  0.07436764  1  0  -0.006294  0  3.764212  0  0  -0.042017  0  4.036697  0  0  -0.03988  0  4.056985  0  0  -0.011967  -0.043253  0  4.023053  0
C  C99  1  0.96732041  0.81593218  0.42563157  1  0  -0.006286  0  3.764436  0  0  -0.042053  0  4.036904  0  0  -0.039924  0  4.057202  0  0  -0.011977  -0.043287  0  4.023258  0
C  C100  1  0.81593286  0.96731987  0.92563201  1  0  -0.006275  0  3.76438  0  0  -0.042016  0  4.036859  0  0  -0.039883  0  4.057156  0  0  -0.011972  -0.043251  0  4.023214  0
C  C101  1  0.03268264  0.18407033  0.57436693  1  0  -0.006425  0  3.764504  0  0  -0.042189  0  4.036967  0  0  -0.040062  0  4.057266  0  0  -0.012032  -0.043421  0  4.02332  0
C  C102  1  0.06835098  0.97007111  0.11056554  1  0  -0.075036  0  3.701946  0  0  -0.117035  0  3.965884  0  0  -0.115499  0  3.984666  0  0  -0.005947  -0.117948  0  3.953379  0
C  C103  1  0.02992918  0.93164802  0.38943210  1  0  -0.075048  0  3.701955  0  0  -0.117061  0  3.965916  0  0  -0.115521  0  3.984693  0  0  -0.005949  -0.11797  0  3.953403  0
C  C104  1  0.93164919  0.02992950  0.88943106  1  0  -0.075031  0  3.701992  0  0  -0.117035  0  3.965939  0  0  -0.115495  0  3.984719  0  0  -0.005926  -0.117947  0  3.95343  0
C  C105  1  0.97007291  0.06835450  0.61056510  1  0  -0.074975  0  3.701951  0  0  -0.116962  0  3.965886  0  0  -0.115412  0  3.984653  0  0  -0.005915  -0.117872  0  3.953379  0
S  S106  1  0.33194421  0.59076213  0.63467499  1  0  -0.379381  0  2.003633  0  0  -0.357036  0  2.290123  0  0  -0.371543  0  2.285751  0  0  -0.180813  -0.346052  0  2.293321  0
S  S107  1  0.40923799  0.66804031  0.86531465  1  0  -0.37917  0  2.003587  0  0  -0.356788  0  2.290029  0  0  -0.3713  0  2.285667  0  0  -0.180704  -0.345802  0  2.293225  0
S  S108  1  0.66803385  0.40922905  0.36531548  1  0  -0.378899  0  2.003877  0  0  -0.356504  0  2.290318  0  0  -0.371033  0  2.285989  0  0  -0.180555  -0.345525  0  2.293514  0
S  S109  1  0.59076023  0.33195837  0.13468975  1  0  -0.379078  0  2.003647  0  0  -0.356709  0  2.290098  0  0  -0.371221  0  2.285735  0  0  -0.180694  -0.345727  0  2.293294  0
N  N110  1  0.19851826  0.45664398  0.54622762  1  0  -0.571814  0  2.792904  0  0  -0.5184  0  3.060325  0  0  -0.536855  0  3.065853  0  0  -0.416369  -0.505551  0  3.056703  0
N  N111  1  0.54333748  0.80147179  0.95377586  1  0  -0.571899  0  2.792882  0  0  -0.518499  0  3.060304  0  0  -0.536961  0  3.065842  0  0  -0.4165  -0.505647  0  3.056679  0
N  N112  1  0.80147039  0.54334325  0.45376888  1  0  -0.571923  0  2.792487  0  0  -0.518513  0  3.059914  0  0  -0.536981  0  3.065457  0  0  -0.416467  -0.505659  0  3.056287  0
N  N113  1  0.45665979  0.19852786  0.04622624  1  0  -0.571934  0  2.792725  0  0  -0.518523  0  3.060129  0  0  -0.53699  0  3.065675  0  0  -0.416519  -0.50567  0  3.056503  0
N  N114  1  0.87721399  0.60014880  0.82628298  1  0  -0.086  0  3.581536  0  0  0.0057  0  3.789301  0  0  -0.008928  0  3.814334  0  0  -0.223761  0.015441  0  3.77219  0
N  N115  1  0.39984987  0.12278416  0.67372067  1  0  -0.085738  0  3.581674  0  0  0.005926  0  3.789417  0  0  -0.008699  0  3.814446  0  0  -0.223688  0.015665  0  3.772306  0
N  N116  1  0.12278810  0.39985178  0.17371621  1  0  -0.086073  0  3.581755  0  0  0.005633  0  3.789505  0  0  -0.008996  0  3.814536  0  0  -0.223744  0.015374  0  3.772396  0
N  N117  1  0.60014836  0.87721356  0.32628167  1  0  -0.085815  0  3.581686  0  0  0.005859  0  3.789433  0  0  -0.008767  0  3.814464  0  0  -0.223721  0.015598  0  3.772326  0
N  N118  1  0.89872965  0.55588532  0.66736403  1  0  -0.369245  0  3.243079  0  0  -0.297419  0  3.519803  0  0  -0.315533  0  3.536463  0  0  -0.351958  -0.284894  0  3.507751  0
N  N119  1  0.44411598  0.10126771  0.83263834  1  0  -0.369272  0  3.243142  0  0  -0.297437  0  3.519848  0  0  -0.315552  0  3.536509  0  0  -0.351973  -0.284912  0  3.507794  0
N  N120  1  0.10127051  0.44411721  0.33263439  1  0  -0.369321  0  3.243042  0  0  -0.297494  0  3.519784  0  0  -0.31561  0  3.536443  0  0  -0.352005  -0.28497  0  3.507732  0
N  N121  1  0.55588418  0.89873096  0.16736330  1  0  -0.369243  0  3.24307  0  0  -0.29741  0  3.519779  0  0  -0.315527  0  3.536443  0  0  -0.351974  -0.284885  0  3.507727  0
N  N122  1  0.09747593  0.83989438  0.13599825  1  0  -0.060711  0  3.594804  0  0  0.03468  0  3.809344  0  0  0.020192  0  3.835445  0  0  -0.245493  0.044222  0  3.79164  0
N  N123  1  0.16010716  0.90252309  0.36400273  1  0  -0.060697  0  3.594695  0  0  0.034698  0  3.809229  0  0  0.020209  0  3.835329  0  0  -0.245499  0.044234  0  3.791535  0
N  N124  1  0.90252422  0.16010621  0.86400294  1  0  -0.060735  0  3.59477  0  0  0.034659  0  3.809322  0  0  0.020171  0  3.835423  0  0  -0.245498  0.044198  0  3.791627  0
N  N125  1  0.83989492  0.09747846  0.63599624  1  0  -0.060697  0  3.59478  0  0  0.034675  0  3.809346  0  0  0.020194  0  3.835431  0  0  -0.245516  0.044207  0  3.791665  0
N  N126  1  0.28255962  0.94226631  0.07685325  1  0  -0.380614  0  3.253339  0  0  -0.308594  0  3.536976  0  0  -0.328438  0  3.555246  0  0  -0.358167  -0.294911  0  3.524028  0
N  N127  1  0.05773628  0.71743865  0.42314604  1  0  -0.380552  0  3.2536  0  0  -0.308526  0  3.537225  0  0  -0.328368  0  3.555501  0  0  -0.358159  -0.29484  0  3.524272  0
N  N128  1  0.71743860  0.05773720  0.92314617  1  0  -0.380549  0  3.253517  0  0  -0.308549  0  3.53716  0  0  -0.328392  0  3.555433  0  0  -0.358181  -0.294863  0  3.524208  0
N  N129  1  0.94226483  0.28256387  0.57685445  1  0  -0.380548  0  3.253641  0  0  -0.30852  0  3.537275  0  0  -0.328365  0  3.555551  0  0  -0.358167  -0.294837  0  3.524325  0
