# generated using pymatgen
data_CdH6C6S(N5O)2
_symmetry_space_group_name_H-M   'P 1'
_cell_length_a   6.64060417
_cell_length_b   9.90496420
_cell_length_c   10.92483446
_cell_angle_alpha   64.67697443
_cell_angle_beta   81.29856149
_cell_angle_gamma   89.16203279
_symmetry_Int_Tables_number   1
_chemical_formula_structural   CdH6C6S(N5O)2
_chemical_formula_sum   'Cd2 H12 C12 S2 N20 O4'
_cell_volume   641.04705054
_cell_formula_units_Z   2
loop_
 _symmetry_equiv_pos_site_id
 _symmetry_equiv_pos_as_xyz
  1  'x, y, z'
loop_
 _atom_site_type_symbol
 _atom_site_label
 _atom_site_symmetry_multiplicity
 _atom_site_fract_x
 _atom_site_fract_y
 _atom_site_fract_z
 _atom_site_occupancy
 _atom_site_pbe_bader_spin_density
 _atom_site_pbe_cm5_charge
 _atom_site_pbe_ddec_charge
 _atom_site_pbe_ddec_spin_density
 _atom_site_pbe_ddec_sum_bond_order
 _atom_site_pbe_magmom
Cd  Cd0  1  0.76650662  0.48902276  0.42732562  1  0  0.791958  0.820537  0  2.376885  0
Cd  Cd1  1  0.23349220  0.51097779  0.57267432  1  0  0.791958  0.820514  0  2.376858  0
H  H2  1  0.65571847  0.53777196  0.10902460  1  0  0.138097  0.118806  0  1.020075  0
H  H3  1  0.34427883  0.46222858  0.89097639  1  0  0.138117  0.118745  0  1.020128  0
H  H4  1  0.78644258  0.87671727  0.22712598  1  0  0.122536  0.117654  0  1.005883  0
H  H5  1  0.21356537  0.12328329  0.77287217  1  0  0.122557  0.117684  0  1.005877  0
H  H6  1  0.72783033  0.01335735  0.95507279  1  0  0.120868  0.12466  0  1.064883  0
H  H7  1  0.27217610  0.98664321  0.04492550  1  0  0.120873  0.124697  0  1.064841  0
H  H8  1  0.80110974  0.53853070  0.80209526  1  0  0.137464  0.105793  0  1.02444  0
H  H9  1  0.19888754  0.46146984  0.19790299  1  0  0.137471  0.105798  0  1.024452  0
H  H10  1  0.98803425  0.99667211  0.67042731  1  0  0.129788  0.132567  0  1.015144  0
H  H11  1  0.01196594  0.00332621  0.32957519  1  0  0.129794  0.13259  0  1.015099  0
H  H12  1  0.28509890  0.86192989  0.56454368  1  0  0.122167  0.119085  0  1.033884  0
H  H13  1  0.71489984  0.13806954  0.43545761  1  0  0.122168  0.119084  0  1.033881  0
C  C14  1  0.68815815  0.64599403  0.10651176  1  0  0.14923  0.130935  0  3.909562  0
C  C15  1  0.31184075  0.35400763  0.89348773  1  0  0.149216  0.131028  0  3.909575  0
C  C16  1  0.75473127  0.82676387  0.16064208  1  0  0.006496  -0.002029  0  3.944532  0
C  C17  1  0.24527533  0.17323893  0.83935624  1  0  0.006439  -0.002149  0  3.944625  0
C  C18  1  0.72600125  0.89623823  0.02697565  1  0  0.007279  -0.057168  0  3.87386  0
C  C19  1  0.27400222  0.10376345  0.97302340  1  0  0.007265  -0.057145  0  3.873822  0
C  C20  1  0.89709076  0.64144240  0.75230109  1  0  0.149023  0.138935  0  3.883226  0
C  C21  1  0.10290805  0.35855814  0.24769701  1  0  0.149002  0.13891  0  3.883157  0
C  C22  1  0.99859123  0.88212901  0.68411975  1  0  0.010186  -0.054934  0  3.891609  0
C  C23  1  0.00141056  0.11787043  0.31588125  1  0  0.010177  -0.054999  0  3.89156  0
C  C24  1  0.14198026  0.81286236  0.63141255  1  0  0.007845  -0.0051  0  3.942828  0
C  C25  1  0.85802008  0.18713819  0.36858815  1  0  0.007846  -0.005071  0  3.942838  0
S  S26  1  0.62003556  0.79962992  0.84266178  1  0  0.708866  1.163639  0  5.924381  0
S  S27  1  0.37996059  0.20035496  0.15734268  1  0  0.708966  1.163736  0  5.923972  0
N  N28  1  0.73197653  0.67268219  0.20782780  1  0  -0.340061  -0.270703  0  3.500521  0
N  N29  1  0.26802398  0.32732060  0.79217202  1  0  -0.340028  -0.270641  0  3.500416  0
N  N30  1  0.68376923  0.77978384  0.99293359  1  0  -0.249501  -0.168958  0  3.745571  0
N  N31  1  0.31623128  0.22021894  0.00706532  1  0  -0.249513  -0.16909  0  3.745646  0
N  N32  1  0.84272631  0.77251526  0.76107075  1  0  -0.2506  -0.174739  0  3.757883  0
N  N33  1  0.15727411  0.22748641  0.23892859  1  0  -0.250582  -0.174665  0  3.757813  0
N  N34  1  0.07713365  0.66440673  0.67433464  1  0  -0.336418  -0.26766  0  3.449489  0
N  N35  1  0.92286364  0.33559381  0.32566544  1  0  -0.33643  -0.267702  0  3.449418  0
N  N36  1  0.56336430  0.61849680  0.53393303  1  0  -0.341794  -0.558838  0  3.055521  0
N  N37  1  0.43663300  0.38150374  0.46606705  1  0  -0.341795  -0.558821  0  3.055559  0
N  N38  1  0.61779878  0.74409588  0.51070808  1  0  0.078047  0.420554  0  4.499806  0
N  N39  1  0.38219997  0.25590355  0.48929321  1  0  0.078094  0.420551  0  4.499794  0
N  N40  1  0.67280120  0.86427340  0.48980667  1  0  -0.184635  -0.369273  0  2.66055  0
N  N41  1  0.32719898  0.13572491  0.51019492  1  0  -0.184672  -0.369286  0  2.660532  0
N  N42  1  0.91770851  0.35030773  0.61979673  1  0  -0.326233  -0.549744  0  2.991916  0
N  N43  1  0.08229181  0.64969281  0.38020032  1  0  -0.326139  -0.549598  0  2.992109  0
N  N44  1  0.82970774  0.30757887  0.73594431  1  0  0.076455  0.424966  0  4.503293  0
N  N45  1  0.17028934  0.69241832  0.26406076  1  0  0.076458  0.425012  0  4.502992  0
N  N46  1  0.75178183  0.26505155  0.85031075  1  0  -0.209815  -0.400648  0  2.64909  0
N  N47  1  0.24822146  0.73494788  0.14968645  1  0  -0.209942  -0.400852  0  2.648559  0
O  O48  1  0.57643641  0.95222157  0.77152119  1  0  -0.251043  -0.455861  0  2.19801  0
O  O49  1  0.42355824  0.04778456  0.22847605  1  0  -0.251091  -0.455836  0  2.198454  0
O  O50  1  0.48700796  0.67402207  0.87199469  1  0  -0.266186  -0.482432  0  2.212733  0
O  O51  1  0.51299881  0.32598297  0.12800365  1  0  -0.266229  -0.482538  0  2.211988  0
