# generated using pymatgen
data_Zn4H8C22N4O17
_symmetry_space_group_name_H-M   'P 1'
_cell_length_a   13.09694273
_cell_length_b   13.29269448
_cell_length_c   13.09599832
_cell_angle_alpha   87.41189669
_cell_angle_beta   72.83509511
_cell_angle_gamma   94.22045610
_symmetry_Int_Tables_number   1
_chemical_formula_structural   Zn4H8C22N4O17
_chemical_formula_sum   'Zn4 H8 C22 N4 O17'
_cell_volume   2167.11641454
_cell_formula_units_Z   1
loop_
 _symmetry_equiv_pos_site_id
 _symmetry_equiv_pos_as_xyz
  1  'x, y, z'
loop_
 _atom_site_type_symbol
 _atom_site_label
 _atom_site_symmetry_multiplicity
 _atom_site_fract_x
 _atom_site_fract_y
 _atom_site_fract_z
 _atom_site_occupancy
 _atom_site_pbe_bader_charge
 _atom_site_pbe_bader_spin_density
 _atom_site_pbe_cm5_charge
 _atom_site_pbe_ddec_charge
 _atom_site_pbe_ddec_spin_density
 _atom_site_pbe_ddec_sum_bond_order
 _atom_site_pbe_magmom
Zn  Zn0  1  0.40877800  0.39358310  0.44600499  1  1.326779  0  0.68276  0.959145  0  2.400804  0
Zn  Zn1  1  0.56720699  0.40955085  0.58565460  1  1.324788  0  0.685801  0.981382  0  2.335755  0
Zn  Zn2  1  0.38967941  0.56983027  0.61560394  1  1.319363  0  0.684484  0.978858  0  2.304621  0
Zn  Zn3  1  0.57936644  0.57856157  0.39152735  1  1.31263  0  0.676243  0.970778  0  2.337451  0
H  H4  1  0.47434539  0.41197879  0.09002129  1  0.119364  0  0.12092  0.169541  0  0.983309  0
H  H5  1  0.08929635  0.56163621  0.32969800  1  0.631254  0  0.324825  0.358909  0  0.930919  0
H  H6  1  0.64886989  0.60492765  0.12671271  1  0.629314  0  0.316412  0.369475  0  0.929837  0
H  H7  1  0.42989949  0.01584916  0.36482891  1  0.643665  0  0.326199  0.368379  0  0.926333  0
H  H8  1  0.48941452  0.82654681  0.31106385  1  0.648237  0  0.337826  0.382415  0  0.876012  0
H  H9  1  0.03491455  0.46153526  0.64074256  1  0.164586  0  0.128655  0.169169  0  0.97934  0
H  H10  1  0.43437627  0.90712456  0.60995492  1  0.106287  0  0.122812  0.158164  0  0.976687  0
H  H11  1  0.47225495  0.07849514  0.64742871  1  0.102914  0  0.111532  0.151249  0  0.9919  0
C  C12  1  0.76762730  0.52104999  0.44425659  1  1.666409  0  0.236476  0.616875  0  4.175476  0
C  C13  1  0.43946138  0.04094566  0.50441004  1  0.490166  0  0.102142  0.394329  0  4.072931  0
C  C14  1  0.20720507  0.48585247  0.55175737  1  1.568578  0  0.233588  0.688589  0  4.138809  0
C  C15  1  0.52325953  0.47328635  0.22108033  1  1.478792  0  0.218296  0.665464  0  4.165378  0
C  C16  1  0.46631379  0.21773794  0.55713532  1  1.458973  0  0.211513  0.666849  0  4.174983  0
C  C17  1  0.46738483  0.75460810  0.47910381  1  1.592052  0  0.222573  0.549653  0  4.207081  0
C  C18  1  0.52569202  0.47106054  0.10966351  1  0.044058  0  -0.120768  -0.422206  0  3.899661  0
C  C19  1  0.48455528  0.51509065  0.78308395  1  1.646201  0  0.23814  0.606719  0  4.181765  0
C  C20  1  0.09124610  0.48297127  0.56197124  1  0.043859  0  -0.083505  -0.318655  0  3.760576  0
C  C21  1  0.58662974  0.54153459  0.03234423  1  0.583748  0  0.111847  0.330903  0  4.071155  0
C  C22  1  0.05362217  0.50649101  0.47822838  1  0.548002  0  0.099061  0.289047  0  4.086656  0
C  C23  1  0.48818069  0.52611412  0.89629179  1  0.080863  0  0.034475  -0.064663  0  3.895551  0
C  C24  1  0.88634932  0.53812848  0.42640485  1  0.121253  0  0.01422  -0.101217  0  3.931283  0
C  C25  1  0.58299020  0.53922426  0.92057659  1  0.173457  0  0.049747  0.018286  0  3.931231  0
C  C26  1  0.93739642  0.49387761  0.49284039  1  0.109052  0  0.048258  0.009094  0  3.972696  0
C  C27  1  0.45576238  0.86296822  0.45468968  1  0.411527  0  0.074472  0.166571  0  4.048935  0
C  C28  1  0.68383338  0.55658641  0.83941964  1  0.898443  0  0.187062  0.252581  0  3.988671  0
C  C29  1  0.87814414  0.42704858  0.58280568  1  0.871183  0  0.185884  0.244362  0  4.022088  0
C  C30  1  0.38670540  0.52494169  0.97530585  1  0.847158  0  0.176967  0.238507  0  4.048085  0
C  C31  1  0.94209891  0.60671561  0.33786350  1  0.814615  0  0.175623  0.22864  0  4.074525  0
C  C32  1  0.44107958  0.93336742  0.52816005  1  0.110478  0  -0.098834  -0.30297  0  3.955034  0
C  C33  1  0.45601671  0.10833165  0.57568794  1  0.069461  0  -0.12677  -0.408461  0  3.851929  0
N  N34  1  0.76876053  0.57560851  0.77761490  1  -1.073616  0  -0.275336  -0.307876  0  2.663235  0
N  N35  1  0.83979428  0.37049212  0.65764450  1  -1.052251  0  -0.27953  -0.305266  0  2.640739  0
N  N36  1  0.30099086  0.52365577  0.03649755  1  -1.063409  0  -0.282897  -0.31129  0  2.633956  0
N  N37  1  0.98805610  0.66157738  0.26322857  1  -1.084399  0  -0.283679  -0.314555  0  2.634734  0
O  O38  1  0.48725286  0.49170523  0.51193209  1  -1.23392  0  -0.573015  -1.04168  0  2.534258  0
O  O39  1  0.45947744  0.40862941  0.28847141  1  -1.169693  0  -0.303083  -0.515164  0  2.296825  0
O  O40  1  0.51684986  0.26821121  0.61260434  1  -1.158193  0  -0.334124  -0.570312  0  2.27064  0
O  O41  1  0.43460563  0.71708976  0.57509485  1  -1.169696  0  -0.302216  -0.513619  0  2.300465  0
O  O42  1  0.51121980  0.70841979  0.39506285  1  -1.172776  0  -0.315956  -0.558287  0  2.322121  0
O  O43  1  0.55938406  0.47020651  0.72362238  1  -1.157182  0  -0.288581  -0.516466  0  2.352298  0
O  O44  1  0.71960045  0.44194387  0.50031238  1  -1.167238  0  -0.292792  -0.52076  0  2.366716  0
O  O45  1  0.58685815  0.54303413  0.24482892  1  -1.165102  0  -0.318249  -0.577394  0  2.316598  0
O  O46  1  0.24084575  0.53963946  0.61585929  1  -1.147013  0  -0.311301  -0.544765  0  2.259489  0
O  O47  1  0.42606358  0.25700023  0.48836059  1  -1.165042  0  -0.319288  -0.547336  0  2.36082  0
O  O48  1  0.65467405  0.61468469  0.04829952  1  -1.108895  0  -0.323104  -0.404416  0  2.24122  0
O  O49  1  0.12410405  0.54172936  0.38325534  1  -1.13305  0  -0.332166  -0.408789  0  2.293965  0
O  O50  1  0.72773810  0.58887519  0.39951713  1  -1.160007  0  -0.304385  -0.526671  0  2.294572  0
O  O51  1  0.42633654  0.07308735  0.41022353  1  -1.119242  0  -0.334726  -0.41473  0  2.258702  0
O  O52  1  0.46846081  0.88770154  0.34888251  1  -1.156119  0  -0.338268  -0.427727  0  2.308937  0
O  O53  1  0.40595338  0.55106475  0.76050421  1  -1.145325  0  -0.29472  -0.512123  0  2.294512  0
O  O54  1  0.26125937  0.43147753  0.48192783  1  -1.155342  0  -0.301522  -0.526533  0  2.310765  0
