# generated using pymatgen
data_Zn6H32C71(Cl5O23)2
_symmetry_space_group_name_H-M   'P 1'
_cell_length_a   18.67170829
_cell_length_b   18.62719300
_cell_length_c   18.70718586
_cell_angle_alpha   108.87696919
_cell_angle_beta   109.65828889
_cell_angle_gamma   109.05249289
_symmetry_Int_Tables_number   1
_chemical_formula_structural   Zn6H32C71(Cl5O23)2
_chemical_formula_sum   'Zn6 H32 C71 Cl10 O46'
_cell_volume   5058.83231415
_cell_formula_units_Z   1
loop_
 _symmetry_equiv_pos_site_id
 _symmetry_equiv_pos_as_xyz
  1  'x, y, z'
loop_
 _atom_site_type_symbol
 _atom_site_label
 _atom_site_symmetry_multiplicity
 _atom_site_fract_x
 _atom_site_fract_y
 _atom_site_fract_z
 _atom_site_occupancy
 _atom_site_pbe_bader_charge
 _atom_site_pbe_bader_spin_density
 _atom_site_pbe_cm5_charge
 _atom_site_pbe_ddec_charge
 _atom_site_pbe_ddec_spin_density
 _atom_site_pbe_ddec_sum_bond_order
 _atom_site_pbe_magmom
Zn  Zn0  1  0.05308382  0.04334363  0.49015359  1  1.323837  0  0.733345  0.97598  0  2.103765  0
Zn  Zn1  1  0.92480086  0.91987979  0.49097411  1  1.32376  0  0.737052  0.982279  0  2.090949  0
Zn  Zn2  1  0.50123840  0.94855406  0.93709644  1  1.310463  0  0.721811  0.950475  0  2.1331  0
Zn  Zn3  1  0.49916122  0.06945578  0.06527813  1  1.318918  0  0.745077  0.98402  0  2.097776  0
Zn  Zn4  1  0.07804632  0.50034945  0.07126780  1  1.30907  0  0.731623  0.968606  0  2.087035  0
Zn  Zn5  1  0.95587659  0.50164996  0.94041931  1  1.319251  0  0.736961  0.975209  0  2.114973  0
H  H6  1  0.28617414  0.06395423  0.66190920  1  0.100504  0  0.106047  0.128169  0  0.984404  0
H  H7  1  0.16487625  0.09186893  0.78955235  1  0.131755  0  0.111197  0.121791  0  1.03372  0
H  H8  1  0.84122205  0.66631597  0.25389743  1  0.114927  0  0.116586  0.13794  0  0.978964  0
H  H9  1  0.17112167  0.81464643  0.26285328  1  0.140392  0  0.120545  0.145903  0  0.964347  0
H  H10  1  0.24575742  0.95217619  0.63155401  1  -0.002602  0  0.086797  0.077379  0  0.990044  0
H  H11  1  0.64450661  0.04071215  0.29705467  1  0.100813  0  0.111261  0.13205  0  0.983146  0
H  H12  1  0.76112429  0.97671181  0.07052386  1  0.06189  0  0.10639  0.128927  0  0.962662  0
H  H13  1  0.82167323  0.09292010  0.12773757  1  0.060677  0  0.093193  0.106699  0  1.009158  0
H  H14  1  0.94124949  0.09023993  0.23494239  1  0.084671  0  0.121299  0.126864  0  0.933173  0
H  H15  1  0.06752493  0.41093104  0.73053769  1  0.114703  0  0.106307  0.092945  0  1.006066  0
H  H16  1  0.37210863  0.99729954  0.75730859  1  0.057082  0  0.092227  0.104251  0  1.000697  0
H  H17  1  0.77884141  0.20838470  0.81879646  1  0.120587  0  0.107442  0.104092  0  0.972783  0
H  H18  1  0.66778485  0.07948094  0.80409497  1  0.101488  0  0.116078  0.10963  0  0.942781  0
H  H19  1  0.39855187  0.88346061  0.13191694  1  0.166448  0  0.113506  0.126678  0  0.991822  0
H  H20  1  0.17948813  0.52556875  0.84086820  1  0.045967  0  0.098208  0.109825  0  0.984292  0
H  H21  1  0.39749709  0.10706698  0.79672371  1  0.112154  0  0.098161  0.119262  0  1.012306  0
H  H22  1  0.10354458  0.56474255  0.81505853  1  0.082936  0  0.095003  0.109948  0  0.996096  0
H  H23  1  0.27756633  0.62849921  0.81361618  1  0.061432  0  0.103645  0.116455  0  0.972721  0
H  H24  1  0.20393982  0.66981222  0.78972201  1  0.078539  0  0.099259  0.112008  0  0.987835  0
H  H25  1  0.13277713  0.87580293  0.64913935  1  0.089881  0  0.111577  0.092222  0  0.953732  0
H  H26  1  0.25676547  0.89952886  0.75260641  1  0.079666  0  0.121302  0.128903  0  0.946781  0
H  H27  1  0.14838085  0.79747425  0.83185119  1  0.610008  0  0.348577  0.388293  0  0.843574  0
H  H28  1  0.16687521  0.08972672  0.95167982  1  0.637844  0  0.357932  0.401229  0  0.823017  0
H  H29  1  0.19959472  0.92355628  0.14466031  1  0.61314  0  0.351937  0.39301  0  0.835604  0
H  H30  1  0.23766223  0.91202974  0.48076592  1  0.627317  0  0.347094  0.38555  0  0.852811  0
H  H31  1  0.87418007  0.84877744  0.16379073  1  0.609626  0  0.338963  0.378723  0  0.861778  0
H  H32  1  0.02291598  0.01200459  0.76605644  1  0.613201  0  0.31195  0.357923  0  0.928869  0
H  H33  1  0.94092930  0.22869454  0.97023532  1  0.625157  0  0.348164  0.389284  0  0.838972  0
H  H34  1  0.16360763  0.31697110  0.58213691  1  0.624809  0  0.360013  0.396703  0  0.82429  0
H  H35  1  0.38730560  0.87094980  0.30017451  1  0.621017  0  0.350856  0.387465  0  0.843893  0
H  H36  1  0.20550743  0.25378074  0.74650924  1  0.641905  0  0.324545  0.381704  0  0.893491  0
H  H37  1  0.41602646  0.31968469  0.96902262  1  0.619084  0  0.357856  0.396882  0  0.828089  0
C  C38  1  0.95929869  0.84246613  0.37092437  1  1.561136  0  0.221886  0.611737  0  4.135105  0
C  C39  1  0.31558422  0.03503042  0.83625642  1  0.017436  0  0.002822  0.012798  0  3.67711  0
C  C40  1  0.29388455  0.11051916  0.86609868  1  0.032716  0  0.012015  -0.117164  0  3.580116  0
C  C41  1  0.23502579  0.94183918  0.78449203  1  -0.003338  0  -0.079227  -0.191098  0  3.773742  0
C  C42  1  0.02277579  0.81044253  0.27461908  1  -0.010997  0  -0.011592  -0.014081  0  3.926955  0
C  C43  1  0.95729726  0.78139972  0.29501321  1  0.045308  0  -0.010474  -0.039839  0  3.967292  0
C  C44  1  0.89431084  0.69299320  0.24163501  1  -0.009327  0  -0.078008  -0.155817  0  3.922244  0
C  C45  1  0.89920390  0.63819170  0.17348102  1  0.077522  0  0.025379  0.126238  0  4.012861  0
C  C46  1  0.96820115  0.66751260  0.15623932  1  0.004929  0  0.002278  -0.085515  0  3.889214  0
C  C47  1  0.02931935  0.75523819  0.20971514  1  0.06779  0  0.003869  0.074941  0  3.891931  0
C  C48  1  0.11604061  0.82417343  0.23176438  1  0.013772  0  -0.065073  -0.199281  0  3.757208  0
C  C49  1  0.12072570  0.00458485  0.61672442  1  1.561248  0  0.229457  0.599227  0  4.064872  0
C  C50  1  0.10509349  0.89033913  0.30264664  1  0.157511  0  0.040888  0.046373  0  3.758819  0
C  C51  1  0.83006363  0.03373096  0.25485716  1  0.015183  0  -0.003853  0.054421  0  3.884551  0
C  C52  1  0.83140622  0.02833137  0.32769592  1  0.023805  0  -0.012861  -0.115946  0  3.935219  0
C  C53  1  0.76089587  0.02978214  0.34006202  1  0.042796  0  0.020314  0.133292  0  4.008317  0
C  C54  1  0.69623527  0.03796022  0.28358326  1  0.050635  0  -0.086846  -0.166508  0  3.940561  0
C  C55  1  0.69479778  0.03906995  0.20842083  1  0.002181  0  -0.008768  -0.04426  0  3.980882  0
C  C56  1  0.76333973  0.03644098  0.19558489  1  -0.025718  0  -0.008423  0.05221  0  3.90587  0
C  C57  1  0.80072390  0.03467556  0.13505191  1  0.002442  0  -0.142247  -0.208318  0  3.825203  0
C  C58  1  0.87755723  0.03201362  0.20307875  1  0.026724  0  -0.068012  -0.145847  0  3.812642  0
C  C59  1  0.97593771  0.22659647  0.66527278  1  -0.018444  0  -0.000202  0.011494  0  3.917614  0
C  C60  1  0.96455462  0.07948769  0.60353762  1  1.590412  0  0.223722  0.612307  0  4.15263  0
C  C61  1  0.96640874  0.15152630  0.67073998  1  0.076945  0  0.01138  -0.038972  0  3.883779  0
C  C62  1  0.96481103  0.15182627  0.74549250  1  0.008087  0  0.018277  -0.03382  0  3.855559  0
C  C63  1  0.97289635  0.22401068  0.81046030  1  0.009691  0  0.014944  -0.048412  0  3.860307  0
C  C64  1  0.97783428  0.29738813  0.80105981  1  0.026499  0  0.009848  -0.042786  0  3.882529  0
C  C65  1  0.97880531  0.29549659  0.72628978  1  0.073404  0  -0.001323  0.033766  0  3.906307  0
C  C66  1  0.00192469  0.35448750  0.68872509  1  0.110503  0  -0.037463  0.001863  0  3.798686  0
C  C67  1  0.99935049  0.27400531  0.61701387  1  0.159032  0  0.031093  0.007453  0  3.78446  0
C  C68  1  0.62542834  0.10203879  0.98701129  1  1.599226  0  0.221488  0.62108  0  4.149692  0
C  C69  1  0.38626227  0.03434250  0.90797524  1  1.590336  0  0.230947  0.601913  0  4.073928  0
C  C70  1  0.39718182  0.86523634  0.98352203  1  1.547081  0  0.220414  0.611911  0  4.145961  0
C  C71  1  0.89937307  0.01542968  0.38276522  1  1.58179  0  0.219692  0.62512  0  4.148286  0
C  C72  1  0.62078345  0.03635799  0.14235888  1  1.54395  0  0.217489  0.605503  0  4.159262  0
C  C73  1  0.92361262  0.38612294  0.03146007  1  1.580392  0  0.215002  0.60889  0  4.167556  0
C  C74  1  0.97982168  0.60833267  0.09014296  1  1.599647  0  0.22745  0.630207  0  4.140617  0
C  C75  1  0.15931309  0.61237460  0.03051176  1  1.585672  0  0.22983  0.625041  0  4.135695  0
C  C76  1  0.98946166  0.37604172  0.86976637  1  1.573204  0  0.222332  0.60875  0  4.151965  0
C  C77  1  0.71050576  0.18221145  0.93305115  1  0.023622  0  -0.008899  0.019428  0  3.932199  0
C  C78  1  0.70554216  0.17236506  0.00199227  1  0.062182  0  -0.001843  -0.076193  0  3.918966  0
C  C79  1  0.77632249  0.23724353  0.08556878  1  0.111262  0  0.020681  0.064443  0  3.987656  0
C  C80  1  0.84847743  0.30666874  0.09720282  1  0.075101  0  0.017986  0.066324  0  4.004587  0
C  C81  1  0.85079186  0.31571322  0.02567872  1  0.025652  0  -0.013517  -0.106535  0  3.937719  0
C  C82  1  0.26803175  0.01669468  0.68408389  1  -0.035635  0  -0.161736  -0.185077  0  3.876638  0
C  C83  1  0.77804503  0.25285788  0.94425483  1  0.024451  0  -0.006253  0.034589  0  3.900699  0
C  C84  1  0.73955756  0.22266340  0.84759078  1  0.132462  0  -0.040365  0.018348  0  3.788893  0
C  C85  1  0.66486128  0.13874150  0.83509401  1  0.133129  0  -0.039934  0.012407  0  3.817355  0
C  C86  1  0.27941476  0.71273706  0.92994489  1  -0.050089  0  0.004517  0.071472  0  3.882498  0
C  C87  1  0.34252168  0.79696785  0.99583838  1  0.019499  0  -0.010547  -0.069863  0  3.975057  0
C  C88  1  0.34990072  0.81828131  0.07827018  1  -0.05812  0  -0.069741  -0.099925  0  3.910863  0
C  C89  1  0.29534864  0.76004018  0.09352158  1  0.044083  0  -0.008618  -0.065246  0  3.958664  0
C  C90  1  0.22743579  0.67624164  0.02442928  1  -0.014202  0  0.008746  -0.05181  0  3.895018  0
C  C91  1  0.22320792  0.65537899  0.94422113  1  -0.000811  0  -0.005407  0.048477  0  3.890485  0
C  C92  1  0.17279102  0.58394629  0.85027452  1  -0.035969  0  -0.151538  -0.197666  0  3.855081  0
C  C93  1  0.34505637  0.04121809  0.76878620  1  -0.053964  0  -0.1693  -0.202511  0  3.848828  0
C  C94  1  0.23574396  0.64924300  0.83398824  1  -0.043879  0  -0.146844  -0.198504  0  3.865324  0
C  C95  1  0.22138159  0.09876311  0.78112541  1  -0.025285  0  -0.079546  -0.180849  0  3.679853  0
C  C96  1  0.15726583  0.93350425  0.71010759  1  0.111959  0  -0.032361  0.067536  0  3.697054  0
C  C97  1  0.19025603  0.01399103  0.69804033  1  0.045785  0  -0.00595  -0.007648  0  3.739158  0
C  C98  1  0.20926718  0.90526021  0.83925964  1  1.515191  0  0.222371  0.584293  0  4.109678  0
C  C99  1  0.26452273  0.11771733  0.93601093  1  1.539221  0  0.232284  0.588896  0  4.036568  0
C  C100  1  0.12322991  0.84262648  0.16078725  1  1.557381  0  0.22569  0.607018  0  4.117962  0
C  C101  1  0.17771950  0.93711192  0.39710943  1  1.563308  0  0.228818  0.562799  0  4.090597  0
C  C102  1  0.88799232  0.95394178  0.16418174  1  1.504212  0  0.226854  0.597786  0  4.102908  0
C  C103  1  0.95996964  0.07613222  0.76048564  1  1.57743  0  0.230213  0.58734  0  4.145534  0
C  C104  1  0.98682193  0.22331561  0.89422123  1  1.561372  0  0.23573  0.59038  0  4.133754  0
C  C105  1  0.09156333  0.29793530  0.63148187  1  1.561973  0  0.238612  0.575477  0  4.08554  0
C  C106  1  0.30505654  0.79033112  0.18186412  1  1.483725  0  0.230548  0.573077  0  4.130884  0
C  C107  1  0.24919604  0.17725848  0.76633994  1  1.557646  0  0.222736  0.601447  0  4.100197  0
C  C108  1  0.37869649  0.19969354  0.91466039  1  1.553244  0  0.238178  0.583976  0  4.064153  0
Cl  Cl109  1  0.81963883  0.52991279  0.11122432  1  -0.186599  0  0.001275  -0.057925  0  1.455802  0
Cl  Cl110  1  0.08479517  0.96735060  0.27566278  1  -0.186326  0  -0.013523  -0.079565  0  1.490538  0
Cl  Cl111  1  0.75110779  0.02268991  0.42662021  1  -0.195043  0  -0.016945  -0.077162  0  1.528788  0
Cl  Cl112  1  0.92981923  0.39154559  0.64916223  1  -0.20259  0  -0.042333  -0.097177  0  1.420287  0
Cl  Cl113  1  0.92127494  0.23128880  0.50836094  1  -0.173135  0  -0.017579  -0.072918  0  1.570177  0
Cl  Cl114  1  0.77738230  0.23189698  0.17592526  1  -0.164216  0  0.024138  -0.026334  0  1.634546  0
Cl  Cl115  1  0.93134150  0.38324888  0.20104800  1  -0.151313  0  0.002025  -0.044492  0  1.575694  0
Cl  Cl116  1  0.70443884  0.28816740  0.81130108  1  -0.212285  0  -0.057353  -0.114803  0  1.40044  0
Cl  Cl117  1  0.55502345  0.11394657  0.77941401  1  -0.23116  0  -0.04812  -0.111217  0  1.426082  0
Cl  Cl118  1  0.06286346  0.90755816  0.72544590  1  -0.243817  0  -0.025337  -0.114459  0  1.499084  0
O  O119  1  0.02053945  0.92042650  0.40885009  1  -1.185717  0  -0.308976  -0.580425  0  2.42051  0
O  O120  1  0.59053466  0.12530591  0.03051824  1  -1.158004  0  -0.299584  -0.555769  0  2.353486  0
O  O121  1  0.40936074  0.97880721  0.87985502  1  -1.179877  0  -0.315694  -0.575322  0  2.355946  0
O  O122  1  0.41393380  0.08390203  0.98755679  1  -1.110497  0  -0.289023  -0.484123  0  2.372339  0
O  O123  1  0.41984931  0.84179563  0.92564410  1  -1.127097  0  -0.316948  -0.52678  0  2.203973  0
O  O124  1  0.41758230  0.94269037  0.03165732  1  -1.170916  0  -0.307764  -0.567923  0  2.33798  0
O  O125  1  0.59543920  0.98667418  0.06372707  1  -1.172958  0  -0.306986  -0.565229  0  2.319109  0
O  O126  1  0.58787656  0.08347595  0.16846305  1  -1.123637  0  -0.31621  -0.527293  0  2.225921  0
O  O127  1  0.00275853  0.41243978  0.08632266  1  -1.120181  0  -0.316153  -0.53182  0  2.282421  0
O  O128  1  0.90096798  0.41233164  0.97770802  1  -1.160064  0  -0.300804  -0.564426  0  2.3958  0
O  O129  1  0.03832862  0.58949883  0.12073334  1  -1.155763  0  -0.300383  -0.548504  0  2.27271  0
O  O130  1  0.90360263  0.81547741  0.39475645  1  -1.13316  0  -0.31007  -0.514823  0  2.192778  0
O  O131  1  0.93129259  0.58267607  0.00993212  1  -1.106137  0  -0.301523  -0.506717  0  2.242064  0
O  O132  1  0.18227670  0.58301561  0.08251961  1  -1.116501  0  -0.308083  -0.513977  0  2.244355  0
O  O133  1  0.08149046  0.58859934  0.97801566  1  -1.166823  0  -0.303977  -0.561409  0  2.30941  0
O  O134  1  0.04335044  0.40336205  0.94771004  1  -1.15847  0  -0.300339  -0.553642  0  2.309576  0
O  O135  1  0.94349974  0.40971838  0.84239332  1  -1.119436  0  -0.308252  -0.522635  0  2.275623  0
O  O136  1  0.14805758  0.05693520  0.58941012  1  -1.126743  0  -0.300145  -0.509634  0  2.310389  0
O  O137  1  0.04269393  0.94594706  0.58171416  1  -1.174796  0  -0.309094  -0.566222  0  2.403345  0
O  O138  1  0.01544519  0.10431813  0.57531276  1  -1.165064  0  -0.301461  -0.560816  0  2.353836  0
O  O139  1  0.91273978  0.00070313  0.57932083  1  -1.120338  0  -0.305426  -0.522294  0  2.260807  0
O  O140  1  0.97882063  0.06197542  0.40326108  1  -1.119176  0  -0.312614  -0.53254  0  2.241126  0
O  O141  1  0.87381891  0.95814120  0.40423484  1  -1.165509  0  -0.310015  -0.571018  0  2.391749  0
O  O142  1  0.59714064  0.02397262  0.92932684  1  -1.12106  0  -0.312572  -0.522227  0  2.209108  0
O  O143  1  0.22543951  0.94678600  0.91321805  1  -1.12231  0  -0.274897  -0.460768  0  2.138141  0
O  O144  1  0.16677247  0.81656438  0.79488347  1  -1.084498  0  -0.343815  -0.494762  0  2.217304  0
O  O145  1  0.31457127  0.15807333  0.01374276  1  -1.109052  0  -0.284527  -0.46095  0  2.112848  0
O  O146  1  0.17682043  0.07917362  0.90194833  1  -1.121015  0  -0.330777  -0.486353  0  2.335208  0
O  O147  1  0.06887517  0.79788636  0.08404170  1  -1.122897  0  -0.285353  -0.468828  0  2.057836  0
O  O148  1  0.20003258  0.91440666  0.19352437  1  -1.112242  0  -0.339564  -0.492518  0  2.217607  0
O  O149  1  0.21980354  0.01499373  0.44577539  1  -1.129665  0  -0.280553  -0.456067  0  2.106414  0
O  O150  1  0.19015981  0.87807625  0.42034886  1  -1.12066  0  -0.335941  -0.47479  0  2.208125  0
O  O151  1  0.91493262  0.94372383  0.11276661  1  -1.112238  0  -0.302941  -0.494534  0  2.058365  0
O  O152  1  0.86278512  0.89521156  0.19120272  1  -1.107575  0  -0.336525  -0.481578  0  2.230121  0
O  O153  1  0.90398209  0.03410097  0.77222958  1  -1.120795  0  -0.294501  -0.47384  0  2.03627  0
O  O154  1  0.02685796  0.06377444  0.76042795  1  -1.111237  0  -0.324024  -0.464119  0  2.378714  0
O  O155  1  0.04785692  0.21830035  0.93865289  1  -1.112796  0  -0.277296  -0.455222  0  2.044205  0
O  O156  1  0.92418845  0.22718255  0.91385718  1  -1.118627  0  -0.322488  -0.477308  0  2.293035  0
O  O157  1  0.15146055  0.31957453  0.70129195  1  -1.155674  0  -0.282703  -0.490192  0  2.128194  0
O  O158  1  0.10173970  0.29767257  0.56366072  1  -1.101297  0  -0.317096  -0.448172  0  2.254872  0
O  O159  1  0.24639800  0.76364860  0.19784181  1  -1.13995  0  -0.280715  -0.482066  0  2.153958  0
O  O160  1  0.38796384  0.85338302  0.24518591  1  -1.109732  0  -0.334318  -0.480614  0  2.210701  0
O  O161  1  0.31365446  0.20869468  0.75987638  1  -1.141174  0  -0.295239  -0.486573  0  2.094008  0
O  O162  1  0.19098762  0.20601706  0.76036128  1  -1.12772  0  -0.333389  -0.47189  0  2.278603  0
O  O163  1  0.45119022  0.21104200  0.92987235  1  -1.116336  0  -0.270868  -0.451859  0  2.134726  0
O  O164  1  0.36105317  0.26569980  0.94029023  1  -1.107531  0  -0.326413  -0.473205  0  2.255636  0
