# generated using pymatgen
data_NdH8C6SNO9
_symmetry_space_group_name_H-M   'P 1'
_cell_length_a   7.31150937
_cell_length_b   10.40000604
_cell_length_c   15.92754426
_cell_angle_alpha   92.80127354
_cell_angle_beta   102.66487970
_cell_angle_gamma   110.66345998
_symmetry_Int_Tables_number   1
_chemical_formula_structural   NdH8C6SNO9
_chemical_formula_sum   'Nd4 H32 C24 S4 N4 O36'
_cell_volume   1095.01930736
_cell_formula_units_Z   4
loop_
 _symmetry_equiv_pos_site_id
 _symmetry_equiv_pos_as_xyz
  1  'x, y, z'
loop_
 _atom_site_type_symbol
 _atom_site_label
 _atom_site_symmetry_multiplicity
 _atom_site_fract_x
 _atom_site_fract_y
 _atom_site_fract_z
 _atom_site_occupancy
 _atom_site_hle17_bader_spin_density
 _atom_site_hle17_ddec_charge
 _atom_site_hle17_ddec_spin_density
 _atom_site_hle17_ddec_sum_bond_order
 _atom_site_hle17_magmom
 _atom_site_hse06_10hf_bader_spin_density
 _atom_site_hse06_10hf_ddec_charge
 _atom_site_hse06_10hf_ddec_spin_density
 _atom_site_hse06_10hf_ddec_sum_bond_order
 _atom_site_hse06_10hf_magmom
 _atom_site_hse06_bader_spin_density
 _atom_site_hse06_ddec_charge
 _atom_site_hse06_ddec_spin_density
 _atom_site_hse06_ddec_sum_bond_order
 _atom_site_hse06_magmom
 _atom_site_pbe_bader_charge
 _atom_site_pbe_bader_spin_density
 _atom_site_pbe_cm5_charge
 _atom_site_pbe_ddec_charge
 _atom_site_pbe_ddec_spin_density
 _atom_site_pbe_ddec_sum_bond_order
 _atom_site_pbe_magmom
Nd  Nd0  1  0.19719669  0.49062841  0.92847324  1  0  2.343793  0  1.596731  0  0  2.248009  0  1.953736  0  0  2.284759  0  1.91299  0  2.255044  0  1.486352  2.163495  0  2.084955  0
Nd  Nd1  1  0.27582258  0.00929704  0.57131038  1  0  2.344247  0  1.599363  0  0  2.24853  0  1.956821  0  0  2.285085  0  1.916064  0  2.256363  0  1.488914  2.164245  0  2.087704  0
Nd  Nd2  1  0.80280184  0.50936983  0.07152484  1  0  2.343785  0  1.596764  0  0  2.247999  0  1.95379  0  0  2.28475  0  1.91304  0  2.254997  0  1.486348  2.163443  0  2.085072  0
Nd  Nd3  1  0.72417702  0.99070431  0.42868876  1  0  2.344243  0  1.599403  0  0  2.248533  0  1.956867  0  0  2.285089  0  1.916109  0  2.256326  0  1.488915  2.164194  0  2.087851  0
H  H4  1  0.22858029  0.60591273  0.76335219  1  0  0.439762  0  0.813789  0  0  0.422694  0  0.868239  0  0  0.430982  0  0.856049  0  0.621463  0  0.325093  0.416751  0  0.874946  0
H  H5  1  0.35263619  0.89356996  0.73654814  1  0  0.43904  0  0.816774  0  0  0.422544  0  0.868572  0  0  0.430796  0  0.856423  0  0.623392  0  0.324941  0.416507  0  0.87696  0
H  H6  1  0.77141937  0.39408758  0.23664607  1  0  0.439783  0  0.81376  0  0  0.422699  0  0.868235  0  0  0.430989  0  0.856042  0  0.621489  0  0.325106  0.416756  0  0.874945  0
H  H7  1  0.64736146  0.10643242  0.26345139  1  0  0.439059  0  0.816758  0  0  0.422574  0  0.868532  0  0  0.430826  0  0.856382  0  0.623396  0  0.324929  0.416537  0  0.876927  0
H  H8  1  0.44699530  0.60397239  0.79663184  1  0  0.437058  0  0.855748  0  0  0.407241  0  0.918051  0  0  0.417139  0  0.903433  0  0.649814  0  0.304234  0.400145  0  0.928332  0
H  H9  1  0.54045578  0.89599799  0.70254815  1  0  0.437203  0  0.855939  0  0  0.407247  0  0.918468  0  0  0.417162  0  0.903822  0  0.65084  0  0.303982  0.400102  0  0.928846  0
H  H10  1  0.55300324  0.39602585  0.20336625  1  0  0.437125  0  0.855662  0  0  0.40729  0  0.917974  0  0  0.417203  0  0.903343  0  0.649817  0  0.304256  0.400188  0  0.92826  0
H  H11  1  0.45953887  0.10400232  0.29745073  1  0  0.437155  0  0.855999  0  0  0.4072  0  0.918527  0  0  0.417114  0  0.903882  0  0.650809  0  0.303946  0.400056  0  0.928902  0
H  H12  1  0.12351076  0.27495578  0.77153070  1  0  0.453949  0  0.842299  0  0  0.422918  0  0.904152  0  0  0.433573  0  0.888625  0  0.666848  0  0.300837  0.415253  0  0.915214  0
H  H13  1  0.57436135  0.22533698  0.72765421  1  0  0.453818  0  0.842923  0  0  0.422955  0  0.904452  0  0  0.433568  0  0.888985  0  0.661077  0  0.300603  0.41529  0  0.915525  0
H  H14  1  0.87648784  0.72504142  0.22846652  1  0  0.453905  0  0.842331  0  0  0.422891  0  0.904163  0  0  0.43355  0  0.888632  0  0.666872  0  0.300812  0.415228  0  0.915225  0
H  H15  1  0.42563774  0.77466229  0.27234536  1  0  0.453782  0  0.842973  0  0  0.422916  0  0.904504  0  0  0.43353  0  0.889037  0  0.661056  0  0.300593  0.415252  0  0.915576  0
H  H16  1  0.36513590  0.33821300  0.80902439  1  0  0.438989  0  0.86494  0  0  0.407384  0  0.929333  0  0  0.417982  0  0.913686  0  0.652233  0  0.300375  0.399701  0  0.940523  0
H  H17  1  0.71335263  0.16080246  0.68953021  1  0  0.437929  0  0.86642  0  0  0.406313  0  0.930966  0  0  0.416892  0  0.915336  0  0.663267  0  0.300309  0.398691  0  0.942069  0
H  H18  1  0.63486390  0.66178523  0.19097214  1  0  0.438951  0  0.864997  0  0  0.407336  0  0.929395  0  0  0.417933  0  0.913749  0  0.651818  0  0.300371  0.399655  0  0.940585  0
H  H19  1  0.28664584  0.83919681  0.31046875  1  0  0.437925  0  0.866422  0  0  0.406302  0  0.930978  0  0  0.416885  0  0.915341  0  0.663242  0  0.300314  0.398678  0  0.942083  0
H  H20  1  0.42848454  0.19695611  0.89181664  1  0  0.132866  0  0.947019  0  0  0.138971  0  1.006781  0  0  0.142583  0  1.003182  0  0.175904  0  0.143094  0.136249  0  1.009953  0
H  H21  1  0.83635744  0.30350578  0.60746278  1  0  0.133564  0  0.9438  0  0  0.138747  0  1.004864  0  0  0.142461  0  1.001111  0  0.179801  0  0.143225  0.135931  0  1.008176  0
H  H22  1  0.57151098  0.80304005  0.10818220  1  0  0.132876  0  0.947043  0  0  0.138965  0  1.006816  0  0  0.142577  0  1.003217  0  0.175872  0  0.143084  0.136234  0  1.010009  0
H  H23  1  0.16365624  0.69650075  0.39254384  1  0  0.133584  0  0.943888  0  0  0.138691  0  1.00504  0  0  0.142399  0  1.0013  0  0.179995  0  0.143234  0.135878  0  1.008352  0
H  H24  1  0.26839440  0.25209710  0.12113588  1  0  0.136085  0  0.952391  0  0  0.143118  0  1.007838  0  0  0.146694  0  1.004878  0  0.206258  0  0.141403  0.140393  0  1.010616  0
H  H25  1  0.39802299  0.24776505  0.37929711  1  0  0.136267  0  0.951933  0  0  0.143767  0  1.006822  0  0  0.147301  0  1.003921  0  0.217252  0  0.14169  0.141066  0  1.009593  0
H  H26  1  0.73160538  0.74790113  0.87886346  1  0  0.136108  0  0.952436  0  0  0.14308  0  1.007935  0  0  0.146652  0  1.004979  0  0.20623  0  0.141416  0.140356  0  1.010712  0
H  H27  1  0.60199108  0.75223526  0.62070570  1  0  0.136169  0  0.951991  0  0  0.143756  0  1.006801  0  0  0.147239  0  1.003969  0  0.217144  0  0.141689  0.141053  0  1.00957  0
H  H28  1  0.30460737  0.93618485  0.89040557  1  0  0.126969  0  0.923244  0  0  0.137603  0  0.976897  0  0  0.141393  0  0.975362  0  0.129812  0  0.121354  0.134728  0  0.978592  0
H  H29  1  0.97411344  0.56407709  0.60894032  1  0  0.128701  0  0.921693  0  0  0.138934  0  0.975551  0  0  0.142727  0  0.974002  0  0.115236  0  0.122087  0.136122  0  0.977119  0
H  H30  1  0.69538752  0.06381131  0.10959404  1  0  0.126982  0  0.923226  0  0  0.137611  0  0.976892  0  0  0.141398  0  0.975356  0  0.129755  0  0.121388  0.134737  0  0.978586  0
H  H31  1  0.02589460  0.43592944  0.39106348  1  0  0.128714  0  0.921742  0  0  0.13897  0  0.97555  0  0  0.142766  0  0.973996  0  0.115314  0  0.12207  0.136161  0  0.977118  0
H  H32  1  0.14976903  0.99587682  0.13157958  1  0  0.136058  0  0.9356  0  0  0.140675  0  0.997904  0  0  0.144695  0  0.99615  0  0.153164  0  0.118896  0.137749  0  0.999552  0
H  H33  1  0.52502469  0.50405101  0.36896632  1  0  0.135025  0  0.934578  0  0  0.140002  0  0.996756  0  0  0.143993  0  0.995056  0  0.152231  0  0.118652  0.137003  0  0.998571  0
H  H34  1  0.85022831  0.00412037  0.86842059  1  0  0.136029  0  0.93565  0  0  0.140647  0  0.997964  0  0  0.144666  0  0.996212  0  0.153185  0  0.118873  0.137721  0  0.999612  0
H  H35  1  0.47498003  0.49594826  0.63103748  1  0  0.135148  0  0.934461  0  0  0.140171  0  0.996572  0  0  0.144171  0  0.99487  0  0.152203  0  0.118699  0.137167  0  0.998381  0
C  C36  1  0.15345159  0.79168749  0.01374649  1  0  0.701032  0  3.871679  0  0  0.657345  0  4.167205  0  0  0.691411  0  4.155255  0  1.584141  0  0.232723  0.633337  0  4.172108  0
C  C37  1  0.84775524  0.70841466  0.48601114  1  0  0.704182  0  3.864928  0  0  0.660512  0  4.160476  0  0  0.694577  0  4.148503  0  1.646061  0  0.233938  0.636727  0  4.165034  0
C  C38  1  0.84654399  0.20830763  0.98625429  1  0  0.701046  0  3.871547  0  0  0.657391  0  4.167028  0  0  0.691456  0  4.155078  0  1.584094  0  0.2327  0.63338  0  4.171933  0
C  C39  1  0.15224309  0.29158669  0.51399095  1  0  0.70412  0  3.865035  0  0  0.660443  0  4.160598  0  0  0.694503  0  4.14863  0  1.646243  0  0.233836  0.636658  0  4.165158  0
C  C40  1  0.36212390  0.14475573  0.94138375  1  0  0.046469  0  3.552445  0  0  0.006105  0  3.814175  0  0  0.014732  0  3.823464  0  0.43031  0  0.064908  -0.000141  0  3.808726  0
C  C41  1  0.77406585  0.35543223  0.55803254  1  0  0.047158  0  3.551579  0  0  0.007723  0  3.812455  0  0  0.016392  0  3.821569  0  0.425416  0  0.065496  0.001963  0  3.806741  0
C  C42  1  0.63787331  0.85524354  0.05861536  1  0  0.046427  0  3.552702  0  0  0.006115  0  3.814395  0  0  0.01474  0  3.823687  0  0.430298  0  0.064973  -0.000134  0  3.808944  0
C  C43  1  0.22593843  0.64457430  0.44197032  1  0  0.04725  0  3.551422  0  0  0.007825  0  3.812362  0  0  0.01649  0  3.821486  0  0.425141  0  0.065478  0.002058  0  3.806653  0
C  C44  1  0.27553346  0.17650574  0.07347789  1  0  0.041699  0  3.533466  0  0  0.00636  0  3.787206  0  0  0.013681  0  3.79843  0  0.38811  0  0.061154  0.00155  0  3.780356  0
C  C45  1  0.52722414  0.32342697  0.42661482  1  0  0.042161  0  3.537075  0  0  0.007105  0  3.790089  0  0  0.014358  0  3.801407  0  0.302724  0  0.061364  0.001623  0  3.783783  0
C  C46  1  0.72446569  0.82349249  0.92652222  1  0  0.041616  0  3.533473  0  0  0.006385  0  3.787137  0  0  0.013713  0  3.798355  0  0.38806  0  0.061189  0.001575  0  3.780287  0
C  C47  1  0.47278190  0.67657126  0.57338936  1  0  0.042293  0  3.536942  0  0  0.007129  0  3.790002  0  0  0.014416  0  3.801344  0  0.302581  0  0.061335  0.001652  0  3.783691  0
C  C48  1  0.29525223  0.00309106  0.94264478  1  0  -0.091774  0  3.709281  0  0  -0.113314  0  3.962316  0  0  -0.118972  0  3.982222  0  -0.055387  0  -0.064355  -0.110005  0  3.950316  0
C  C49  1  0.84742631  0.49712907  0.55680775  1  0  -0.093067  0  3.70728  0  0  -0.114644  0  3.96062  0  0  -0.120235  0  3.980391  0  -0.036047  0  -0.064951  -0.111185  0  3.948062  0
C  C50  1  0.70474210  0.99690406  0.05735475  1  0  -0.091693  0  3.709343  0  0  -0.113263  0  3.962416  0  0  -0.118915  0  3.982317  0  -0.055301  0  -0.06439  -0.109953  0  3.950414  0
C  C51  1  0.15257372  0.50287539  0.44319321  1  0  -0.093122  0  3.707077  0  0  -0.114686  0  3.960393  0  0  -0.120278  0  3.98016  0  -0.036107  0  -0.064916  -0.111233  0  3.947845  0
C  C52  1  0.22054374  0.94587203  0.01156537  1  0  -0.025833  0  3.727739  0  0  -0.014715  0  3.964223  0  0  -0.015891  0  3.984379  0  0.037429  0  0.001697  -0.014017  0  3.951908  0
C  C53  1  0.76290283  0.55418550  0.48817864  1  0  -0.025787  0  3.725313  0  0  -0.014828  0  3.962336  0  0  -0.016035  0  3.982485  0  0.023979  0  0.002125  -0.014265  0  3.950189  0
C  C54  1  0.77945416  0.05412620  0.98843490  1  0  -0.02591  0  3.727591  0  0  -0.014798  0  3.964115  0  0  -0.015974  0  3.984269  0  0.037426  0  0.001661  -0.0141  0  3.951801  0
C  C55  1  0.23709624  0.44581377  0.51182796  1  0  -0.025596  0  3.7251  0  0  -0.014657  0  3.962137  0  0  -0.015859  0  3.982285  0  0.024259  0  0.002191  -0.014094  0  3.949991  0
C  C56  1  0.21004390  0.03522395  0.07719967  1  0  -0.102977  0  3.702224  0  0  -0.123304  0  3.953543  0  0  -0.128897  0  3.973496  0  0.005639  0  -0.068834  -0.119987  0  3.940802  0
C  C57  1  0.59929186  0.46471706  0.42289155  1  0  -0.103149  0  3.704884  0  0  -0.123882  0  3.956417  0  0  -0.129528  0  3.976537  0  0.049869  0  -0.069147  -0.120817  0  3.944522  0
C  C58  1  0.78995325  0.96477636  0.92279891  1  0  -0.102906  0  3.702145  0  0  -0.123267  0  3.953455  0  0  -0.128859  0  3.973403  0  0.005619  0  -0.068835  -0.119951  0  3.940715  0
C  C59  1  0.40071130  0.53528740  0.57711114  1  0  -0.103493  0  3.70507  0  0  -0.124243  0  3.956635  0  0  -0.129902  0  3.976753  0  0.049703  0  -0.069243  -0.121162  0  3.944721  0
S  S60  1  0.75597988  0.47279801  0.82594951  1  0  1.615933  0  5.809359  0  0  1.487527  0  6.367829  0  0  1.544356  0  6.328544  0  3.8182  0  0.579706  1.448664  0  6.386935  0
S  S61  1  0.95247722  0.02721044  0.67421389  1  0  1.61327  0  5.812393  0  0  1.484388  0  6.370825  0  0  1.541095  0  6.331848  0  3.809047  0  0.578693  1.445707  0  6.389658  0
S  S62  1  0.24401678  0.52720022  0.17404810  1  0  1.616095  0  5.809132  0  0  1.487694  0  6.367587  0  0  1.544523  0  6.328303  0  3.818113  0  0.579738  1.448831  0  6.386695  0
S  S63  1  0.04752307  0.97278987  0.32578500  1  0  1.613378  0  5.812135  0  0  1.484494  0  6.370562  0  0  1.541213  0  6.331577  0  3.808989  0  0.57874  1.445817  0  6.389393  0
N  N64  1  0.35352609  0.22868848  0.00706009  1  0  0.298312  0  3.65522  0  0  0.347276  0  3.924577  0  0  0.346379  0  3.942642  0  -0.682875  0  -0.109165  0.347753  0  3.907192  0
N  N65  1  0.61777971  0.27135629  0.49265130  1  0  0.298609  0  3.657927  0  0  0.347211  0  3.927258  0  0  0.346326  0  3.945329  0  -0.679844  0  -0.109302  0.347554  0  3.910047  0
N  N66  1  0.64647200  0.77130664  0.99293898  1  0  0.298328  0  3.655212  0  0  0.347254  0  3.924565  0  0  0.346356  0  3.942631  0  -0.682771  0  -0.109236  0.347731  0  3.907181  0
N  N67  1  0.38223228  0.72864713  0.50735506  1  0  0.29856  0  3.657414  0  0  0.347185  0  3.926754  0  0  0.346303  0  3.944815  0  -0.67959  0  -0.109255  0.34753  0  3.909546  0
O  O68  1  0.34389090  0.63346351  0.81383942  1  0  -0.883791  0  1.86496  0  0  -0.849318  0  2.048673  0  0  -0.865362  0  2.019207  0  -1.248447  0  -0.618509  -0.832006  0  2.070647  0
O  O69  1  0.39125010  0.86674344  0.68565194  1  0  -0.883691  0  1.867082  0  0  -0.849607  0  2.048536  0  0  -0.865724  0  2.019233  0  -1.253945  0  -0.617947  -0.832362  0  2.072028  0
O  O70  1  0.65610638  0.36653473  0.18615881  1  0  -0.8839  0  1.86489  0  0  -0.849393  0  2.048709  0  0  -0.865457  0  2.019193  0  -1.248471  0  -0.618541  -0.832075  0  2.070706  0
O  O71  1  0.60874511  0.13325791  0.31434703  1  0  -0.883674  0  1.867103  0  0  -0.849596  0  2.048517  0  0  -0.865712  0  2.019221  0  -1.253905  0  -0.617901  -0.832342  0  2.072018  0
O  O72  1  0.23666036  0.34102597  0.81863769  1  0  -0.962435  0  1.866218  0  0  -0.920603  0  2.07097  0  0  -0.938289  0  2.037157  0  -1.31716  0  -0.678761  -0.900804  0  2.098168  0
O  O73  1  0.57329140  0.15907275  0.67990600  1  0  -0.963403  0  1.866611  0  0  -0.921461  0  2.070864  0  0  -0.939168  0  2.03737  0  -1.324855  0  -0.679151  -0.901451  0  2.097545  0
O  O74  1  0.76333686  0.65897330  0.18135861  1  0  -0.962365  0  1.86631  0  0  -0.920544  0  2.071085  0  0  -0.938227  0  2.037268  0  -1.316747  0  -0.678731  -0.900713  0  2.098224  0
O  O75  1  0.42670889  0.84092756  0.32009289  1  0  -0.96335  0  1.866602  0  0  -0.921401  0  2.070861  0  0  -0.939109  0  2.037358  0  -1.324835  0  -0.679151  -0.901389  0  2.097557  0
O  O76  1  0.67962773  0.57788880  0.79168664  1  0  -0.695975  0  1.916095  0  0  -0.636582  0  2.147899  0  0  -0.658663  0  2.130096  0  -1.3446  0  -0.33431  -0.621915  0  2.160469  0
O  O77  1  0.80325839  0.92202554  0.70838906  1  0  -0.695355  0  1.918459  0  0  -0.635418  0  2.150084  0  0  -0.657273  0  2.132161  0  -1.35273  0  -0.333629  -0.620748  0  2.162595  0
O  O78  1  0.32037268  0.42210944  0.20831192  1  0  -0.696075  0  1.915891  0  0  -0.63669  0  2.147678  0  0  -0.658775  0  2.129881  0  -1.344596  0  -0.334353  -0.62202  0  2.160247  0
O  O79  1  0.19674058  0.07797580  0.29160945  1  0  -0.695421  0  1.918416  0  0  -0.635465  0  2.15003  0  0  -0.657329  0  2.132105  0  -1.352776  0  -0.333638  -0.620797  0  2.162541  0
O  O80  1  0.22171102  0.72685413  0.96686339  1  0  -0.719836  0  2.057653  0  0  -0.679875  0  2.309931  0  0  -0.703443  0  2.300111  0  -1.183614  0  -0.385213  -0.655022  0  2.31746  0
O  O81  1  0.02603694  0.77336008  0.53267000  1  0  -0.719778  0  2.056714  0  0  -0.679511  0  2.309058  0  0  -0.703236  0  2.299207  0  -1.193994  0  -0.385384  -0.655884  0  2.316288  0
O  O82  1  0.77828933  0.27314514  0.03313604  1  0  -0.719823  0  2.057546  0  0  -0.679884  0  2.309819  0  0  -0.703448  0  2.299994  0  -1.183566  0  -0.385223  -0.655026  0  2.317351  0
O  O83  1  0.97396384  0.22664230  0.46733125  1  0  -0.719735  0  2.056676  0  0  -0.679487  0  2.309048  0  0  -0.703209  0  2.299201  0  -1.193948  0  -0.385358  -0.655851  0  2.316283  0
O  O84  1  0.03565407  0.74066688  0.06160409  1  0  -0.70222  0  2.016791  0  0  -0.664458  0  2.267143  0  0  -0.687682  0  2.25718  0  -1.180604  0  -0.38195  -0.642164  0  2.275551  0
O  O85  1  0.73479937  0.75928171  0.43840181  1  0  -0.706051  0  2.014733  0  0  -0.668715  0  2.265173  0  0  -0.691467  0  2.254733  0  -1.198417  0  -0.382147  -0.644365  0  2.273151  0
O  O86  1  0.96434766  0.25933032  0.93839485  1  0  -0.702207  0  2.016742  0  0  -0.664438  0  2.267047  0  0  -0.687664  0  2.257086  0  -1.180542  0  -0.381896  -0.642146  0  2.275453  0
O  O87  1  0.26519885  0.24072172  0.56159781  1  0  -0.706036  0  2.014816  0  0  -0.668673  0  2.265235  0  0  -0.691422  0  2.254799  0  -1.198621  0  -0.382077  -0.644326  0  2.273197  0
O  O88  1  0.42717108  0.36668310  0.00691914  1  0  -0.716219  0  1.860544  0  0  -0.689951  0  2.133795  0  0  -0.707998  0  2.127429  0  -0.705388  0  -0.334391  -0.661755  0  2.136371  0
O  O89  1  0.55342531  0.13340421  0.49271439  1  0  -0.717276  0  1.86657  0  0  -0.690441  0  2.140064  0  0  -0.708681  0  2.133883  0  -0.701889  0  -0.336459  -0.662798  0  2.142927  0
O  O90  1  0.57282877  0.63331409  0.99307933  1  0  -0.716238  0  1.860595  0  0  -0.689952  0  2.13383  0  0  -0.708001  0  2.127465  0  -0.705463  0  -0.334378  -0.661756  0  2.136402  0
O  O91  1  0.44658474  0.86660025  0.50728955  1  0  -0.717353  0  1.866498  0  0  -0.690477  0  2.13994  0  0  -0.708684  0  2.133686  0  -0.701965  0  -0.336503  -0.662817  0  2.142769  0
O  O92  1  0.84364560  0.50636489  0.92342520  1  0  -0.944124  0  2.163441  0  0  -0.898888  0  2.461342  0  0  -0.918177  0  2.438839  0  -1.360228  0  -0.475513  -0.872155  0  2.474116  0
O  O93  1  0.91211199  0.99420107  0.57664894  1  0  -0.942521  0  2.160563  0  0  -0.89802  0  2.459723  0  0  -0.917015  0  2.436672  0  -1.354325  0  -0.475555  -0.871444  0  2.472787  0
O  O94  1  0.15635356  0.49363334  0.07657351  1  0  -0.944184  0  2.163612  0  0  -0.898975  0  2.461562  0  0  -0.918249  0  2.439023  0  -1.360211  0  -0.475492  -0.872242  0  2.474334  0
O  O95  1  0.08788511  0.00580027  0.42334910  1  0  -0.942516  0  2.160522  0  0  -0.898011  0  2.45967  0  0  -0.917005  0  2.436615  0  -1.354273  0  -0.475561  -0.871426  0  2.472703  0
O  O96  1  0.58871196  0.33359249  0.80726777  1  0  -0.717779  0  1.993087  0  0  -0.646127  0  2.222244  0  0  -0.669302  0  2.204003  0  -1.357746  0  -0.324746  -0.630357  0  2.234754  0
O  O97  1  0.94457605  0.16668263  0.69373360  1  0  -0.7152  0  1.9903  0  0  -0.642839  0  2.218833  0  0  -0.666214  0  2.200891  0  -1.337986  0  -0.323909  -0.627136  0  2.231127  0
O  O98  1  0.41128462  0.66640678  0.19273071  1  0  -0.717788  0  1.993059  0  0  -0.646132  0  2.222225  0  0  -0.669308  0  2.203982  0  -1.357715  0  -0.324734  -0.630366  0  2.234739  0
O  O99  1  0.05542298  0.83331768  0.30626544  1  0  -0.715229  0  1.990304  0  0  -0.642846  0  2.218812  0  0  -0.666243  0  2.200883  0  -1.337957  0  -0.323883  -0.627149  0  2.23111  0
O  O100  1  0.92712050  0.46806233  0.79087430  1  0  -0.78557  0  1.903653  0  0  -0.736051  0  2.157245  0  0  -0.757632  0  2.139401  0  -1.338583  0  -0.406437  -0.71535  0  2.169492  0
O  O101  1  0.16163093  0.03102575  0.70877929  1  0  -0.786263  0  1.905643  0  0  -0.73661  0  2.159252  0  0  -0.758174  0  2.14144  0  -1.342212  0  -0.408088  -0.716114  0  2.171671  0
O  O102  1  0.07287804  0.53193590  0.20912378  1  0  -0.785577  0  1.903532  0  0  -0.736038  0  2.157088  0  0  -0.75762  0  2.139244  0  -1.338571  0  -0.406445  -0.715336  0  2.169336  0
O  O103  1  0.83836560  0.96897455  0.29121866  1  0  -0.786323  0  1.905523  0  0  -0.736671  0  2.159121  0  0  -0.758237  0  2.141306  0  -1.342163  0  -0.408137  -0.716172  0  2.171543  0
