# generated using pymatgen
data_ZnH12C19(NO)4
_symmetry_space_group_name_H-M   'P 1'
_cell_length_a   9.87339683
_cell_length_b   10.99450216
_cell_length_c   11.01263729
_cell_angle_alpha   94.41436069
_cell_angle_beta   89.99883190
_cell_angle_gamma   90.00067923
_symmetry_Int_Tables_number   1
_chemical_formula_structural   ZnH12C19(NO)4
_chemical_formula_sum   'Zn2 H24 C38 N8 O8'
_cell_volume   1191.90939866
_cell_formula_units_Z   2
loop_
 _symmetry_equiv_pos_site_id
 _symmetry_equiv_pos_as_xyz
  1  'x, y, z'
loop_
 _atom_site_type_symbol
 _atom_site_label
 _atom_site_symmetry_multiplicity
 _atom_site_fract_x
 _atom_site_fract_y
 _atom_site_fract_z
 _atom_site_occupancy
 _atom_site_pbe_bader_charge
 _atom_site_pbe_bader_spin_density
 _atom_site_pbe_cm5_charge
 _atom_site_pbe_ddec_charge
 _atom_site_pbe_ddec_spin_density
 _atom_site_pbe_ddec_sum_bond_order
 _atom_site_pbe_magmom
Zn  Zn0  1  0.63419901  0.50000401  0.49999991  1  1.288362  0  0.686173  0.812851  0  2.401536  0
Zn  Zn1  1  0.34953710  0.50000117  0.50000355  1  1.313646  0  0.680001  0.849118  0  2.309206  0
H  H2  1  0.97843338  0.91031210  0.42231465  1  0.023895  0  0.094822  0.094781  0  1.034283  0
H  H3  1  0.97843387  0.08969080  0.57769739  1  0.023699  0  0.094832  0.0948  0  1.034257  0
H  H4  1  0.85637270  0.36270437  0.35896251  1  0.210451  0  0.150175  0.142854  0  0.959112  0
H  H5  1  0.85636682  0.63728763  0.64104984  1  0.210131  0  0.150167  0.142914  0  0.959155  0
H  H6  1  0.13755264  0.93272272  0.72494382  1  0.046678  0  0.085333  0.119531  0  1.014518  0
H  H7  1  0.31336623  0.94225813  0.75528659  1  0.032023  0  0.086623  0.120309  0  0.990763  0
H  H8  1  0.23221943  0.06030003  0.68158902  1  0.045169  0  0.082644  0.109761  0  1.024591  0
H  H9  1  0.17962640  0.89993447  0.50244354  1  0.011648  0  0.091014  0.088091  0  1.018617  0
H  H10  1  0.27337414  0.79374793  0.57797970  1  0.088797  0  0.086439  0.089513  0  1.063998  0
H  H11  1  0.13755602  0.06727643  0.27506283  1  0.046759  0  0.08532  0.119505  0  1.014538  0
H  H12  1  0.31336913  0.05773833  0.24470563  1  0.031905  0  0.086645  0.120338  0  0.990763  0
H  H13  1  0.23222427  0.93969747  0.31841118  1  0.045138  0  0.082642  0.109756  0  1.024481  0
H  H14  1  0.17963871  0.10007753  0.49755349  1  0.011894  0  0.090967  0.08801  0  1.018796  0
H  H15  1  0.27339482  0.20625660  0.42200440  1  0.088585  0  0.086441  0.089586  0  1.063866  0
H  H16  1  0.57595936  0.81093708  0.24202497  1  0.024275  0  0.080305  0.107993  0  1.018517  0
H  H17  1  0.71373246  0.89444235  0.18672676  1  0.02414  0  0.086539  0.11635  0  0.99515  0
H  H18  1  0.70071346  0.73531996  0.14691388  1  0.037198  0  0.077315  0.103319  0  1.032382  0
H  H19  1  0.87536109  0.76698294  0.30556671  1  0.013945  0  0.090762  0.090964  0  0.979332  0
H  H20  1  0.73477334  0.69443211  0.36633236  1  0.061594  0  0.082908  0.083254  0  1.068593  0
H  H21  1  0.57596607  0.18902725  0.75800770  1  0.024444  0  0.080412  0.10808  0  1.018429  0
H  H22  1  0.71375265  0.10553179  0.81328071  1  0.024229  0  0.086582  0.116349  0  0.994965  0
H  H23  1  0.70072084  0.26464970  0.85311556  1  0.037667  0  0.077266  0.103369  0  1.032367  0
H  H24  1  0.87535624  0.23302456  0.69444109  1  0.014063  0  0.090761  0.091037  0  0.979429  0
H  H25  1  0.73475201  0.30556597  0.63369162  1  0.061329  0  0.082901  0.083313  0  1.068549  0
C  C26  1  0.48331241  0.50006956  0.73428388  1  1.653964  0  0.226739  0.59561  0  4.172861  0
C  C27  1  0.48331205  0.49992405  0.26572675  1  1.654039  0  0.226831  0.595716  0  4.172769  0
C  C28  1  0.60572280  0.49622004  0.06407629  1  0.126882  0  0.04112  0.031846  0  3.998354  0
C  C29  1  0.60572419  0.50376021  0.93592253  1  0.063782  0  0.041192  0.031982  0  3.998009  0
C  C30  1  0.05550208  0.42920280  0.41756023  1  0.660267  0  0.17181  0.19498  0  3.983344  0
C  C31  1  0.05550297  0.57080221  0.58244271  1  0.660016  0  0.171866  0.195164  0  3.983979  0
C  C32  1  0.91332130  0.42514277  0.42115514  1  0.545188  0  0.109269  0.06742  0  3.773472  0
C  C33  1  0.91332634  0.57486983  0.57886931  1  0.54461  0  0.109288  0.067358  0  3.772916  0
C  C34  1  0.51167767  0.73501341  0.50278979  1  1.535625  0  0.221922  0.617296  0  4.109536  0
C  C35  1  0.51168107  0.26499195  0.49721147  1  1.535806  0  0.221794  0.617155  0  4.109833  0
C  C36  1  0.76399333  0.88523375  0.43030787  1  0.038644  0  -0.010799  0.074745  0  3.917779  0
C  C37  1  0.76399417  0.11476842  0.56969927  1  0.038526  0  -0.010826  0.074798  0  3.917834  0
C  C38  1  0.88338884  0.94689706  0.46028531  1  -0.108985  0  -0.105221  -0.15351  0  4.04477  0
C  C39  1  0.88339084  0.05310600  0.53972222  1  -0.055788  0  -0.105228  -0.153532  0  4.044765  0
C  C40  1  0.63967555  0.06353743  0.52102747  1  0.004067  0  0.002884  0.022586  0  3.885654  0
C  C41  1  0.63967411  0.93646722  0.47897580  1  -0.045659  0  0.002924  0.022728  0  3.885598  0
C  C42  1  0.51345982  0.87072895  0.49261806  1  0.001559  0  -0.015087  -0.139601  0  3.869216  0
C  C43  1  0.51346608  0.12927730  0.50738228  1  0.001251  0  -0.015051  -0.139479  0  3.869266  0
C  C44  1  0.39401872  0.93650171  0.51126715  1  -0.034148  0  0.010393  0.085241  0  3.851035  0
C  C45  1  0.39402182  0.06350269  0.48873185  1  0.018057  0  0.010476  0.08516  0  3.851084  0
C  C46  1  0.36035065  0.49142693  0.93546275  1  0.087349  0  0.048993  0.051469  0  3.96126  0
C  C47  1  0.36035237  0.50857998  0.06454152  1  0.174868  0  0.049025  0.051743  0  3.961251  0
C  C48  1  0.48300655  0.50274865  0.12911889  1  0.0587  0  0.027528  -0.055834  0  3.838248  0
C  C49  1  0.48300617  0.49724858  0.87087456  1  0.058557  0  0.027629  -0.05557  0  3.837979  0
C  C50  1  0.26490236  0.89056189  0.56518353  1  -0.019112  0  -0.172008  -0.16557  0  3.972926  0
C  C51  1  0.23495930  0.96118222  0.68845542  1  -0.094545  0  -0.246734  -0.355141  0  3.950582  0
C  C52  1  0.26491701  0.10943865  0.43481338  1  -0.018976  0  -0.171996  -0.165647  0  3.973246  0
C  C53  1  0.23496275  0.03881786  0.31154115  1  -0.094543  0  -0.246721  -0.355072  0  3.950336  0
C  C54  1  0.76891523  0.78048761  0.33312244  1  0.00037  0  -0.171393  -0.155749  0  3.973425  0
C  C55  1  0.68470329  0.80677235  0.22081057  1  -0.075885  0  -0.245983  -0.339908  0  3.952276  0
C  C56  1  0.76891589  0.21950859  0.66689082  1  0.000409  0  -0.171433  -0.155978  0  3.97358  0
C  C57  1  0.68470961  0.19320758  0.77921124  1  -0.076516  0  -0.246052  -0.339998  0  3.951963  0
C  C58  1  0.23610919  0.45842096  0.87527706  1  0.889647  0  0.189047  0.246658  0  3.997899  0
C  C59  1  0.23610894  0.54157937  0.12472404  1  0.889547  0  0.188882  0.246345  0  3.997652  0
C  C60  1  0.73284963  0.47838333  0.12201016  1  0.884039  0  0.19171  0.247922  0  4.008603  0
C  C61  1  0.73286447  0.52158349  0.87799130  1  0.884288  0  0.191613  0.247881  0  4.009191  0
C  C62  1  0.11680489  0.35541372  0.32040507  1  0.882615  0  0.205069  0.207838  0  3.948465  0
C  C63  1  0.11680437  0.64459086  0.67960666  1  0.882302  0  0.205124  0.207948  0  3.948138  0
N  N64  1  0.84439009  0.49999823  0.49999862  1  -1.244997  0  -0.286132  -0.132595  0  3.498971  0
N  N65  1  0.12841563  0.50000803  0.50000952  1  -1.13842  0  -0.249199  -0.216222  0  3.293851  0
N  N66  1  0.13617526  0.41647333  0.83362068  1  -1.07364  0  -0.27527  -0.308709  0  2.692044  0
N  N67  1  0.13616029  0.58351416  0.16638935  1  -1.073592  0  -0.275122  -0.308492  0  2.691642  0
N  N68  1  0.84059427  0.45517090  0.15736919  1  -1.069763  0  -0.267536  -0.308812  0  2.742868  0
N  N69  1  0.84059480  0.54477992  0.84262614  1  -1.070095  0  -0.267495  -0.308845  0  2.743575  0
N  N70  1  0.14983570  0.29372516  0.23466813  1  -1.027063  0  -0.237779  -0.245954  0  2.694839  0
N  N71  1  0.14985112  0.70627057  0.76533911  1  -1.026536  0  -0.237921  -0.246176  0  2.694764  0
O  O72  1  0.59492590  0.47529136  0.68167496  1  -1.152827  0  -0.285464  -0.511623  0  2.399124  0
O  O73  1  0.59492467  0.52469684  0.31832244  1  -1.15277  0  -0.28544  -0.511571  0  2.39936  0
O  O74  1  0.37281000  0.52891939  0.68580248  1  -1.145611  0  -0.290237  -0.520676  0  2.392806  0
O  O75  1  0.37279124  0.47109345  0.31420714  1  -1.14567  0  -0.290192  -0.520599  0  2.392685  0
O  O76  1  0.61722941  0.68364059  0.54261621  1  -1.164484  0  -0.317169  -0.550217  0  2.328849  0
O  O77  1  0.61724209  0.31636845  0.45739033  1  -1.164683  0  -0.317081  -0.550139  0  2.328996  0
O  O78  1  0.40333613  0.67671744  0.47119855  1  -1.171158  0  -0.316293  -0.556097  0  2.349552  0
O  O79  1  0.40334034  0.32329164  0.52880038  1  -1.171168  0  -0.316252  -0.556018  0  2.349488  0
