# generated using pymatgen
data_TbH14C20N5O7
_symmetry_space_group_name_H-M   'P 1'
_cell_length_a   9.88017070
_cell_length_b   11.87907758
_cell_length_c   11.87900217
_cell_angle_alpha   65.31383887
_cell_angle_beta   71.41582212
_cell_angle_gamma   71.41565141
_symmetry_Int_Tables_number   1
_chemical_formula_structural   TbH14C20N5O7
_chemical_formula_sum   'Tb2 H28 C40 N10 O14'
_cell_volume   1172.52069957
_cell_formula_units_Z   2
loop_
 _symmetry_equiv_pos_site_id
 _symmetry_equiv_pos_as_xyz
  1  'x, y, z'
loop_
 _atom_site_type_symbol
 _atom_site_label
 _atom_site_symmetry_multiplicity
 _atom_site_fract_x
 _atom_site_fract_y
 _atom_site_fract_z
 _atom_site_occupancy
 _atom_site_pbe_bader_charge
 _atom_site_pbe_bader_spin_density
 _atom_site_pbe_cm5_charge
 _atom_site_pbe_ddec_charge
 _atom_site_pbe_ddec_spin_density
 _atom_site_pbe_ddec_sum_bond_order
 _atom_site_pbe_magmom
Tb  Tb0  1  0.25000052  0.93789569  0.06210233  1  2.17452  0  1.560115  1.976303  0  2.356391  0
Tb  Tb1  1  0.75000159  0.06210214  0.93789870  1  2.174526  0  1.560117  1.976213  0  2.356478  0
H  H2  1  0.17445788  0.07471605  0.33766936  1  0.098077  0  0.108771  0.113297  0  1.02307  0
H  H3  1  0.29559484  0.20747812  0.57187842  1  0.126341  0  0.098812  0.100002  0  1.066103  0
H  H4  1  0.54741643  0.19398323  0.44074349  1  0.082218  0  0.104911  0.106052  0  0.981685  0
H  H5  1  0.60998781  0.13085294  0.25049356  1  0.095245  0  0.106161  0.105795  0  1.020085  0
H  H6  1  0.92037752  0.20778051  0.40570501  1  0.072739  0  0.10569  0.137611  0  1.028923  0
H  H7  1  0.70655542  0.20674972  0.62255711  1  0.102726  0  0.126016  0.110712  0  0.990183  0
H  H8  1  0.09719767  0.11258468  0.72380234  1  0.516628  0  0.325574  0.264353  0  0.999699  0
H  H9  1  0.32554017  0.66233008  0.92528076  1  0.098039  0  0.108757  0.113258  0  1.02306  0
H  H10  1  0.20440421  0.42811713  0.79252572  1  0.126677  0  0.098776  0.099955  0  1.066151  0
H  H11  1  0.95258378  0.55924839  0.80601850  1  0.082202  0  0.104904  0.106023  0  0.981732  0
H  H12  1  0.89000997  0.74950079  0.86914647  1  0.095149  0  0.106154  0.105821  0  1.020088  0
H  H13  1  0.57961860  0.59429329  0.79221887  1  0.072872  0  0.105711  0.137642  0  1.028892  0
H  H14  1  0.79344728  0.37744833  0.79324105  1  0.1025  0  0.126046  0.110737  0  0.99002  0
H  H15  1  0.40280680  0.27619344  0.88741770  1  0.516622  0  0.325608  0.264382  0  0.99968  0
H  H16  1  0.82553643  0.92529127  0.66232739  1  0.097895  0  0.108748  0.113277  0  1.02309  0
H  H17  1  0.70439915  0.79252632  0.42812127  1  0.126469  0  0.098805  0.100003  0  1.066131  0
H  H18  1  0.45257838  0.80602216  0.55925559  1  0.082138  0  0.104884  0.106024  0  0.981727  0
H  H19  1  0.39000758  0.86915434  0.74950544  1  0.095225  0  0.106133  0.105746  0  1.020179  0
H  H20  1  0.07961482  0.79222204  0.59429421  1  0.072341  0  0.105706  0.137642  0  1.028925  0
H  H21  1  0.29344145  0.79323950  0.37744967  1  0.102587  0  0.126015  0.11074  0  0.990082  0
H  H22  1  0.90279999  0.88741792  0.27619459  1  0.516585  0  0.325616  0.264455  0  0.999667  0
H  H23  1  0.67446244  0.33766584  0.07472176  1  0.097936  0  0.108776  0.11332  0  1.023083  0
H  H24  1  0.79559841  0.57187878  0.20747765  1  0.12662  0  0.0988  0.099998  0  1.066132  0
H  H25  1  0.04742198  0.44074764  0.19397807  1  0.082139  0  0.10488  0.106013  0  0.981753  0
H  H26  1  0.10999343  0.25049615  0.13085205  1  0.095124  0  0.106171  0.105834  0  1.02008  0
H  H27  1  0.42038400  0.40570266  0.20778196  1  0.072801  0  0.105686  0.137595  0  1.02899  0
H  H28  1  0.20655720  0.62254858  0.20675888  1  0.102559  0  0.126044  0.11077  0  0.990034  0
H  H29  1  0.59719843  0.72380062  0.11258403  1  0.516634  0  0.325597  0.264406  0  0.999656  0
C  C30  1  0.43406207  0.06030296  0.17073522  1  1.588335  0  0.239836  0.675058  0  4.126801  0
C  C31  1  0.39522367  0.10063263  0.28274423  1  -0.055408  0  -0.020908  -0.050071  0  3.980546  0
C  C32  1  0.25434138  0.10375103  0.35944605  1  -0.030563  0  -0.077717  -0.133541  0  3.93053  0
C  C33  1  0.21642516  0.14318091  0.46362626  1  0.025865  0  -0.007789  0.041379  0  4.037781  0
C  C34  1  0.32394804  0.17496981  0.49228202  1  -0.076975  0  -0.085778  -0.115192  0  3.945736  0
C  C35  1  0.46521460  0.16933518  0.41709794  1  -0.048625  0  -0.086505  -0.073495  0  4.026665  0
C  C36  1  0.50087854  0.13421031  0.31128836  1  -0.05117  0  -0.08342  -0.097499  0  3.975502  0
C  C37  1  0.06593693  0.15377722  0.53779600  1  0.394992  0  0.103475  0.155108  0  3.995504  0
C  C38  1  0.93375622  0.18514168  0.50037656  1  0.001107  0  -0.115921  -0.266097  0  3.97646  0
C  C39  1  0.82442056  0.18685694  0.60933353  1  0.420311  0  0.022172  0.028273  0  4.037826  0
C  C40  1  0.06593926  0.82926025  0.93969266  1  1.588809  0  0.239814  0.675074  0  4.126409  0
C  C41  1  0.10477370  0.71725227  0.89936528  1  -0.055089  0  -0.020881  -0.050047  0  3.980624  0
C  C42  1  0.24565630  0.64055033  0.89625047  1  -0.030511  0  -0.077725  -0.133474  0  3.930504  0
C  C43  1  0.28357399  0.53636922  0.85682187  1  0.025841  0  -0.00782  0.04131  0  4.037849  0
C  C44  1  0.17605196  0.50771030  0.82503568  1  -0.077375  0  -0.085775  -0.11517  0  3.945648  0
C  C45  1  0.03478439  0.58289625  0.83066564  1  -0.048528  0  -0.086408  -0.073346  0  4.026692  0
C  C46  1  0.99911888  0.68870598  0.86579010  1  -0.051256  0  -0.083448  -0.097595  0  3.975661  0
C  C47  1  0.43405927  0.46220124  0.84622568  1  0.394937  0  0.103523  0.155184  0  3.995464  0
C  C48  1  0.56624197  0.49962317  0.81485693  1  0.001141  0  -0.115941  -0.266173  0  3.9764  0
C  C49  1  0.67557684  0.39066648  0.81314144  1  0.420636  0  0.022159  0.028266  0  4.037697  0
C  C50  1  0.56594256  0.93970159  0.82925989  1  1.58826  0  0.239763  0.675055  0  4.126599  0
C  C51  1  0.60477219  0.89937280  0.71725287  1  -0.055386  0  -0.020859  -0.050091  0  3.980641  0
C  C52  1  0.74565588  0.89625726  0.64054952  1  -0.030813  0  -0.077734  -0.133466  0  3.930481  0
C  C53  1  0.78357021  0.85682642  0.53636935  1  0.026319  0  -0.007834  0.041259  0  4.038066  0
C  C54  1  0.67604652  0.82503655  0.50771589  1  -0.077141  0  -0.085757  -0.115197  0  3.945826  0
C  C55  1  0.53478069  0.83066832  0.58290093  1  -0.048589  0  -0.086401  -0.073362  0  4.026688  0
C  C56  1  0.49911841  0.86579508  0.68871099  1  -0.051187  0  -0.083456  -0.0975  0  3.975796  0
C  C57  1  0.93405574  0.84622816  0.46220281  1  0.394955  0  0.103523  0.155275  0  3.995624  0
C  C58  1  0.06623802  0.81486181  0.49962345  1  0.001543  0  -0.115913  -0.266174  0  3.9765  0
C  C59  1  0.17557195  0.81314084  0.39066842  1  0.420799  0  0.022209  0.028323  0  4.037762  0
C  C60  1  0.93406014  0.17073569  0.06030819  1  1.588176  0  0.239809  0.675059  0  4.126414  0
C  C61  1  0.89522833  0.28274177  0.10063648  1  -0.055379  0  -0.020891  -0.049975  0  3.980588  0
C  C62  1  0.75434288  0.35944650  0.10375345  1  -0.030382  0  -0.077745  -0.133565  0  3.930462  0
C  C63  1  0.71643051  0.46362767  0.14317976  1  0.025757  0  -0.007834  0.041245  0  4.037966  0
C  C64  1  0.82395196  0.49228468  0.17496687  1  -0.077207  0  -0.085772  -0.115181  0  3.945793  0
C  C65  1  0.96521828  0.41710353  0.16933193  1  -0.048717  0  -0.086415  -0.073321  0  4.026667  0
C  C66  1  0.00088239  0.31129094  0.13420901  1  -0.05101  0  -0.083457  -0.097682  0  3.975601  0
C  C67  1  0.56594465  0.53779375  0.15377602  1  0.395219  0  0.103468  0.155184  0  3.995432  0
C  C68  1  0.43376087  0.50037183  0.18514422  1  0.000811  0  -0.115908  -0.266112  0  3.976412  0
C  C69  1  0.32442575  0.60932948  0.18685854  1  0.420781  0  0.022132  0.028247  0  4.037691  0
N  N70  1  0.88312462  0.15652505  0.70892098  1  -0.727498  0  -0.311394  -0.300744  0  3.413821  0
N  N71  1  0.02924726  0.13776441  0.66311115  1  -0.814453  0  -0.273496  -0.105048  0  3.68663  0
N  N72  1  0.61687953  0.29107744  0.84347610  1  -0.727602  0  -0.311293  -0.300526  0  3.41375  0
N  N73  1  0.47075604  0.33688474  0.86223960  1  -0.814539  0  -0.273656  -0.105277  0  3.68672  0
N  N74  1  0.11687404  0.84347373  0.29107891  1  -0.727697  0  -0.311436  -0.300739  0  3.413852  0
N  N75  1  0.97075098  0.86224008  0.33688569  1  -0.814467  0  -0.273569  -0.105306  0  3.686736  0
N  N76  1  0.38312543  0.70891760  0.15652362  1  -0.727646  0  -0.311349  -0.300681  0  3.413858  0
N  N77  1  0.52924763  0.66311120  0.13776178  1  -0.814507  0  -0.27351  -0.105166  0  3.686718  0
N  N78  1  0.24999763  0.17109706  0.82890705  1  0.805663  0  0.094211  0.720946  0  4.397608  0
N  N79  1  0.75000055  0.82890359  0.17109390  1  0.805671  0  0.094181  0.72087  0  4.397848  0
O  O80  1  0.35732411  0.99319863  0.16915879  1  -1.20484  0  -0.416453  -0.686596  0  2.356666  0
O  O81  1  0.54208920  0.09551834  0.08296688  1  -1.2024  0  -0.419669  -0.689951  0  2.397943  0
O  O82  1  0.19993782  0.07792614  0.84221706  1  -0.57286  0  -0.199933  -0.485729  0  2.089726  0
O  O83  1  0.14268087  0.83084233  0.00679290  1  -1.20516  0  -0.416496  -0.686649  0  2.356457  0
O  O84  1  0.95790659  0.91703107  0.90447942  1  -1.202712  0  -0.419616  -0.689934  0  2.397679  0
O  O85  1  0.30005818  0.15778772  0.92207622  1  -0.572891  0  -0.199902  -0.485712  0  2.089974  0
O  O86  1  0.64268862  0.00679935  0.83083597  1  -1.204829  0  -0.416383  -0.686522  0  2.356609  0
O  O87  1  0.45790916  0.90448988  0.91703347  1  -1.202325  0  -0.419708  -0.690032  0  2.397806  0
O  O88  1  0.80006111  0.92207166  0.15778569  1  -0.57284  0  -0.19988  -0.48565  0  2.089918  0
O  O89  1  0.85732229  0.16915555  0.99320531  1  -1.204952  0  -0.416505  -0.686629  0  2.356459  0
O  O90  1  0.04209497  0.08296483  0.09552423  1  -1.202109  0  -0.419591  -0.689921  0  2.397673  0
O  O91  1  0.69994182  0.84221007  0.07792709  1  -0.572854  0  -0.199904  -0.485679  0  2.09003  0
O  O92  1  0.24999503  0.26767875  0.73232345  1  -0.459736  0  -0.139238  -0.364617  0  1.939542  0
O  O93  1  0.74999939  0.73231994  0.26768098  1  -0.459831  0  -0.13927  -0.36466  0  1.939545  0
