# generated using pymatgen
data_CdH20C20(NO2)2
_symmetry_space_group_name_H-M   'P 1'
_cell_length_a   7.65250054
_cell_length_b   9.62614518
_cell_length_c   12.72331145
_cell_angle_alpha   77.03716108
_cell_angle_beta   76.32640401
_cell_angle_gamma   89.10164703
_symmetry_Int_Tables_number   1
_chemical_formula_structural   CdH20C20(NO2)2
_chemical_formula_sum   'Cd2 H40 C40 N4 O8'
_cell_volume   886.78883428
_cell_formula_units_Z   2
loop_
 _symmetry_equiv_pos_site_id
 _symmetry_equiv_pos_as_xyz
  1  'x, y, z'
loop_
 _atom_site_type_symbol
 _atom_site_label
 _atom_site_symmetry_multiplicity
 _atom_site_fract_x
 _atom_site_fract_y
 _atom_site_fract_z
 _atom_site_occupancy
 _atom_site_hle17_bader_spin_density
 _atom_site_hle17_ddec_charge
 _atom_site_hle17_ddec_spin_density
 _atom_site_hle17_ddec_sum_bond_order
 _atom_site_hle17_magmom
 _atom_site_hse06_10hf_bader_spin_density
 _atom_site_hse06_10hf_ddec_charge
 _atom_site_hse06_10hf_ddec_spin_density
 _atom_site_hse06_10hf_ddec_sum_bond_order
 _atom_site_hse06_10hf_magmom
 _atom_site_hse06_bader_spin_density
 _atom_site_hse06_ddec_charge
 _atom_site_hse06_ddec_spin_density
 _atom_site_hse06_ddec_sum_bond_order
 _atom_site_hse06_magmom
 _atom_site_pbe_bader_spin_density
 _atom_site_pbe_cm5_charge
 _atom_site_pbe_ddec_charge
 _atom_site_pbe_ddec_spin_density
 _atom_site_pbe_ddec_sum_bond_order
 _atom_site_pbe_magmom
Cd  Cd0  1  0.67105137  0.64725301  0.99137203  1  0  1.100652  0  1.719158  0  0  0.904489  0  2.179662  0  0  0.963638  0  2.124671  0  0  0.766232  0.862321  0  2.216917  0
Cd  Cd1  1  0.32895244  0.35274847  0.00862729  1  0  1.100638  0  1.719169  0  0  0.904479  0  2.179672  0  0  0.963628  0  2.124681  0  0  0.766229  0.862312  0  2.216923  0
H  H2  1  0.12945802  0.90949770  0.06965024  1  0  0.094621  0  0.90545  0  0  0.10763  0  0.958969  0  0  0.109752  0  0.958658  0  0  0.107612  0.10605  0  0.959455  0
H  H3  1  0.87054040  0.09050374  0.93035062  1  0  0.094655  0  0.905377  0  0  0.107643  0  0.958908  0  0  0.109765  0  0.958596  0  0  0.107628  0.106061  0  0.9594  0
H  H4  1  0.24396440  0.76964632  0.21520822  1  0  0.060125  0  0.940052  0  0  0.073514  0  1.003488  0  0  0.074677  0  1.00406  0  0  0.094371  0.072914  0  1.0028  0
H  H5  1  0.75603537  0.23035512  0.78479168  1  0  0.060124  0  0.940002  0  0  0.073533  0  1.003438  0  0  0.074696  0  1.004012  0  0  0.094371  0.072932  0  1.002758  0
H  H6  1  0.11216515  0.53094216  0.32668169  1  0  0.057216  0  0.945868  0  0  0.074565  0  1.010097  0  0  0.075564  0  1.009789  0  0  0.082638  0.073803  0  1.010456  0
H  H7  1  0.88783596  0.46905931  0.67331958  1  0  0.057214  0  0.945858  0  0  0.074563  0  1.010101  0  0  0.075566  0  1.009792  0  0  0.082641  0.0738  0  1.010462  0
H  H8  1  0.92335061  0.55825725  0.26901789  1  0  0.071199  0  0.948905  0  0  0.087445  0  1.013412  0  0  0.087634  0  1.015648  0  0  0.085935  0.087211  0  1.011978  0
H  H9  1  0.07665045  0.44174316  0.73098436  1  0  0.071142  0  0.948911  0  0  0.087425  0  1.01339  0  0  0.087615  0  1.015627  0  0  0.085937  0.087195  0  1.01195  0
H  H10  1  0.85548477  0.62481493  0.45276462  1  0  0.049197  0  0.947175  0  0  0.068639  0  1.008456  0  0  0.069696  0  1.008352  0  0  0.078339  0.06791  0  1.00852  0
H  H11  1  0.14451486  0.37518333  0.54723820  1  0  0.04921  0  0.947194  0  0  0.068618  0  1.008492  0  0  0.069684  0  1.008379  0  0  0.07831  0.067892  0  1.008554  0
H  H12  1  0.04635016  0.74307027  0.40856041  1  0  0.046568  0  0.954391  0  0  0.065653  0  1.018771  0  0  0.065809  0  1.020364  0  0  0.076263  0.065475  0  1.017744  0
H  H13  1  0.95364691  0.25693118  0.59144221  1  0  0.046595  0  0.954408  0  0  0.065682  0  1.018768  0  0  0.065839  0  1.02036  0  0  0.076301  0.065504  0  1.017743  0
H  H14  1  0.76309151  0.87576675  0.39068009  1  0  0.042223  0  0.973914  0  0  0.060354  0  1.041619  0  0  0.060794  0  1.04237  0  0  0.075706  0.060072  0  1.041132  0
H  H15  1  0.23690544  0.12423148  0.60932155  1  0  0.042221  0  0.973912  0  0  0.060357  0  1.041624  0  0  0.060806  0  1.042367  0  0  0.075704  0.060074  0  1.041138  0
H  H16  1  0.72122112  0.76608034  0.30435450  1  0  0.053811  0  0.974934  0  0  0.070575  0  1.044381  0  0  0.071461  0  1.044326  0  0  0.082134  0.069953  0  1.04421  0
H  H17  1  0.27877582  0.23391790  0.69564792  1  0  0.053762  0  0.975001  0  0  0.070572  0  1.044401  0  0  0.071459  0  1.044349  0  0  0.082139  0.069955  0  1.04422  0
H  H18  1  0.04687818  0.97245071  0.24818652  1  0  0.047705  0  0.984576  0  0  0.062906  0  1.056676  0  0  0.062503  0  1.059835  0  0  0.077168  0.063225  0  1.05432  0
H  H19  1  0.95311612  0.02754857  0.75181530  1  0  0.047712  0  0.984609  0  0  0.062883  0  1.056764  0  0  0.062479  0  1.059922  0  0  0.077204  0.063201  0  1.05442  0
H  H20  1  0.85719610  0.99864597  0.18951342  1  0  0.077629  0  0.934864  0  0  0.095038  0  0.995214  0  0  0.096429  0  0.994795  0  0  0.091189  0.093951  0  0.995614  0
H  H21  1  0.14280089  0.00135334  0.81048880  1  0  0.077597  0  0.934854  0  0  0.095035  0  0.995179  0  0  0.09642  0  0.99477  0  0  0.091214  0.093954  0  0.995573  0
H  H22  1  0.82090241  0.34890434  0.10240926  1  0  0.111424  0  0.965333  0  0  0.11708  0  1.028087  0  0  0.120718  0  1.024477  0  0  0.121992  0.114226  0  1.030997  0
H  H23  1  0.17910391  0.65109290  0.89759202  1  0  0.111464  0  0.965344  0  0  0.117118  0  1.028094  0  0  0.120756  0  1.024485  0  0  0.122013  0.114263  0  1.031008  0
H  H24  1  0.81835833  0.18976763  0.28341003  1  0  0.102529  0  0.965407  0  0  0.113788  0  1.026385  0  0  0.116467  0  1.026378  0  0  0.107801  0.112016  0  1.026297  0
H  H25  1  0.18164265  0.81023064  0.71659181  1  0  0.102551  0  0.9654  0  0  0.113813  0  1.026367  0  0  0.116491  0  1.026365  0  0  0.107834  0.11204  0  1.026285  0
H  H26  1  0.43178311  0.46175615  0.43730972  1  0  0.094981  0  0.969802  0  0  0.105696  0  1.032571  0  0  0.108658  0  1.032212  0  0  0.102037  0.103495  0  1.033157  0
H  H27  1  0.56821398  0.53824525  0.56268742  1  0  0.095  0  0.969758  0  0  0.105699  0  1.032562  0  0  0.108661  0  1.032203  0  0  0.102026  0.103511  0  1.033132  0
H  H28  1  0.45533113  0.61441412  0.24769363  1  0  0.075665  0  0.951274  0  0  0.0867  0  1.014207  0  0  0.088406  0  1.01255  0  0  0.116982  0.085341  0  1.015405  0
H  H29  1  0.54467122  0.38558410  0.75230175  1  0  0.075614  0  0.951233  0  0  0.086666  0  1.014159  0  0  0.088386  0  1.012486  0  0  0.116981  0.085293  0  1.015376  0
H  H30  1  0.52297250  0.25991351  0.55700726  1  0  0.089674  0  0.969297  0  0  0.101704  0  1.032297  0  0  0.104088  0  1.031576  0  0  0.10402  0.10004  0  1.032754  0
H  H31  1  0.47702458  0.74008791  0.44299301  1  0  0.089592  0  0.96932  0  0  0.101693  0  1.032249  0  0  0.104077  0  1.031528  0  0  0.104024  0.100027  0  1.032708  0
H  H32  1  0.78949710  0.06571285  0.44291738  1  0  0.085716  0  0.971601  0  0  0.098619  0  1.033698  0  0  0.101277  0  1.032481  0  0  0.102274  0.096762  0  1.034541  0
H  H33  1  0.21050279  0.93429180  0.55708272  1  0  0.085724  0  0.971534  0  0  0.098608  0  1.033662  0  0  0.101264  0  1.032445  0  0  0.10228  0.096753  0  1.034507  0
H  H34  1  0.87515460  0.85966074  0.55165378  1  0  0.101827  0  0.964573  0  0  0.114416  0  1.024183  0  0  0.116984  0  1.024508  0  0  0.105339  0.112544  0  1.024184  0
H  H35  1  0.12484660  0.14034285  0.44834475  1  0  0.101822  0  0.964594  0  0  0.114419  0  1.024192  0  0  0.116985  0  1.024518  0  0  0.105356  0.112544  0  1.024194  0
H  H36  1  0.85756800  0.69437498  0.73705916  1  0  0.089345  0  0.959871  0  0  0.096434  0  1.025999  0  0  0.099302  0  1.023335  0  0  0.117599  0.094341  0  1.027773  0
H  H37  1  0.14243854  0.30562757  0.26293801  1  0  0.089314  0  0.959931  0  0  0.096456  0  1.025993  0  0  0.099323  0  1.023335  0  0  0.117603  0.094361  0  1.027764  0
H  H38  1  0.49649537  0.94794556  0.89818652  1  0  0.106058  0  0.915747  0  0  0.115371  0  0.974792  0  0  0.118744  0  0.971145  0  0  0.127437  0.112563  0  0.977996  0
H  H39  1  0.50350416  0.05204947  0.10181295  1  0  0.106042  0  0.915713  0  0  0.115317  0  0.974796  0  0  0.118711  0  0.971126  0  0  0.127424  0.112511  0  0.977997  0
H  H40  1  0.49740301  0.12201615  0.72487794  1  0  0.11215  0  0.974154  0  0  0.120283  0  1.039541  0  0  0.123808  0  1.037677  0  0  0.109198  0.117865  0  1.040807  0
H  H41  1  0.50259255  0.87798101  0.27512408  1  0  0.112122  0  0.97418  0  0  0.120285  0  1.039539  0  0  0.123809  0  1.037675  0  0  0.109209  0.117868  0  1.040805  0
C  C42  1  0.89777281  0.78489026  0.08043620  1  0  0.6494  0  3.85462  0  0  0.601699  0  4.151753  0  0  0.634521  0  4.14827  0  0  0.192272  0.579393  0  4.152856  0
C  C43  1  0.10222826  0.21511014  0.91956448  1  0  0.649506  0  3.854534  0  0  0.601814  0  4.151655  0  0  0.634635  0  4.148168  0  0  0.192309  0.579512  0  4.15275  0
C  C44  1  0.03266310  0.83676448  0.13679632  1  0  -0.11673  0  3.584001  0  0  -0.117757  0  3.81377  0  0  -0.123332  0  3.827706  0  0  -0.084624  -0.114032  0  3.804456  0
C  C45  1  0.96733528  0.16323589  0.86320395  1  0  -0.116838  0  3.583919  0  0  -0.117807  0  3.813679  0  0  -0.123379  0  3.827604  0  0  -0.084653  -0.114076  0  3.804368  0
C  C46  1  0.14177333  0.71431311  0.18899058  1  0  -0.122941  0  3.616499  0  0  -0.124427  0  3.847498  0  0  -0.130095  0  3.861513  0  0  -0.088508  -0.12054  0  3.837901  0
C  C47  1  0.85822639  0.28568728  0.81101029  1  0  -0.122876  0  3.616289  0  0  -0.124428  0  3.847404  0  0  -0.130096  0  3.861428  0  0  -0.088481  -0.120542  0  3.837814  0
C  C48  1  0.02737444  0.61411481  0.29252700  1  0  -0.117189  0  3.684706  0  0  -0.1584  0  3.937345  0  0  -0.158501  0  3.950837  0  0  -0.172118  -0.158194  0  3.928051  0
C  C49  1  0.97262528  0.38588558  0.70747465  1  0  -0.117111  0  3.684624  0  0  -0.158331  0  3.937273  0  0  -0.158447  0  3.950789  0  0  -0.172088  -0.158125  0  3.927977  0
C  C50  1  0.94019335  0.69723153  0.37930124  1  0  -0.101997  0  3.704491  0  0  -0.139528  0  3.964176  0  0  -0.140626  0  3.9787  0  0  -0.173534  -0.138512  0  3.95389  0
C  C51  1  0.05980503  0.30276885  0.62070060  1  0  -0.102108  0  3.704666  0  0  -0.139593  0  3.964355  0  0  -0.140694  0  3.978888  0  0  -0.173596  -0.138585  0  3.954072  0
C  C52  1  0.82915023  0.81585555  0.32899882  1  0  -0.115157  0  3.704147  0  0  -0.155359  0  3.966763  0  0  -0.156384  0  3.980658  0  0  -0.176752  -0.154663  0  3.957062  0
C  C53  1  0.17084676  0.18414376  0.67100340  1  0  -0.115099  0  3.704237  0  0  -0.155347  0  3.966876  0  0  -0.156386  0  3.980781  0  0  -0.176743  -0.15465  0  3.957173  0
C  C54  1  0.94178796  0.91698183  0.22529606  1  0  -0.116444  0  3.674769  0  0  -0.161377  0  3.932271  0  0  -0.161338  0  3.945246  0  0  -0.172547  -0.161136  0  3.922995  0
C  C55  1  0.05821037  0.08301748  0.77470519  1  0  -0.116394  0  3.674742  0  0  -0.16135  0  3.932291  0  0  -0.161303  0  3.945258  0  0  -0.172607  -0.161116  0  3.923032  0
C  C56  1  0.25174832  0.63565782  0.10509105  1  0  0.682839  0  3.868209  0  0  0.623072  0  4.183454  0  0  0.659332  0  4.173898  0  0  0.205969  0.598303  0  4.189095  0
C  C57  1  0.74825418  0.36434472  0.89490906  1  0  0.682881  0  3.86795  0  0  0.623079  0  4.183287  0  0  0.659337  0  4.173729  0  0  0.205941  0.598313  0  4.188926  0
C  C58  1  0.73581176  0.37086812  0.17829418  1  0  0.151264  0  3.653521  0  0  0.118091  0  3.908645  0  0  0.126997  0  3.923754  0  0  0.05652  0.112158  0  3.898685  0
C  C59  1  0.26419187  0.62912909  0.82170591  1  0  0.151058  0  3.6536  0  0  0.1179  0  3.908706  0  0  0.126806  0  3.923813  0  0  0.056454  0.11198  0  3.898744  0
C  C60  1  0.73373314  0.28183752  0.28098370  1  0  -0.154641  0  3.664189  0  0  -0.170401  0  3.906458  0  0  -0.178817  0  3.927475  0  0  -0.077256  -0.165126  0  3.892331  0
C  C61  1  0.26626519  0.71816179  0.71901755  1  0  -0.154554  0  3.664095  0  0  -0.170301  0  3.906365  0  0  -0.178716  0  3.927377  0  0  -0.077264  -0.165036  0  3.892249  0
C  C62  1  0.62431312  0.31142931  0.37833520  1  0  0.131057  0  3.817408  0  0  0.147202  0  4.044144  0  0  0.152671  0  4.067328  0  0  0.00422  0.143944  0  4.028357  0
C  C63  1  0.37568526  0.68857105  0.62166429  1  0  0.131038  0  3.817272  0  0  0.147151  0  4.044071  0  0  0.15262  0  4.067253  0  0  0.004268  0.143898  0  4.028284  0
C  C64  1  0.52113824  0.43376326  0.36521890  1  0  -0.183421  0  3.719074  0  0  -0.199584  0  3.967755  0  0  -0.208813  0  3.989474  0  0  -0.089607  -0.193867  0  3.953191  0
C  C65  1  0.47886153  0.56623818  0.63478021  1  0  -0.183513  0  3.719124  0  0  -0.199654  0  3.967852  0  0  -0.208885  0  3.989574  0  0  -0.089614  -0.193942  0  3.953266  0
C  C66  1  0.53180638  0.51806619  0.25977398  1  0  0.134013  0  3.739165  0  0  0.100946  0  3.995654  0  0  0.109153  0  4.014964  0  0  0.045735  0.095788  0  3.982163  0
C  C67  1  0.46819466  0.48193310  0.74022296  1  0  0.134242  0  3.738958  0  0  0.101125  0  3.99551  0  0  0.109323  0  4.014819  0  0  0.045807  0.095972  0  3.98203  0
C  C68  1  0.61282579  0.22321684  0.48912893  1  0  -0.097488  0  3.711867  0  0  -0.115789  0  3.957069  0  0  -0.118323  0  3.976505  0  0  -0.079893  -0.114343  0  3.944154  0
C  C69  1  0.38716750  0.77679095  0.51087076  1  0  -0.097465  0  3.712022  0  0  -0.115805  0  3.957223  0  0  -0.118338  0  3.976656  0  0  -0.079981  -0.114363  0  3.944313  0
C  C70  1  0.70068454  0.10138071  0.51181885  1  0  -0.103536  0  3.73396  0  0  -0.124646  0  3.986532  0  0  -0.126842  0  4.005826  0  0  -0.081845  -0.123226  0  3.973605  0
C  C71  1  0.29931780  0.89861755  0.48818124  1  0  -0.103498  0  3.734108  0  0  -0.124606  0  3.9867  0  0  -0.126801  0  4.005992  0  0  -0.08182  -0.123188  0  3.973779  0
C  C72  1  0.68918653  0.00753763  0.62034691  1  0  0.126068  0  3.823484  0  0  0.139743  0  4.056754  0  0  0.144748  0  4.079593  0  0  0.003199  0.136495  0  4.04139  0
C  C73  1  0.31081194  0.99246487  0.37965298  1  0  0.126043  0  3.823516  0  0  0.139736  0  4.05677  0  0  0.14474  0  4.079609  0  0  0.003223  0.136486  0  4.041409  0
C  C74  1  0.79072859  0.88403678  0.62672687  1  0  -0.17697  0  3.713288  0  0  -0.193641  0  3.960543  0  0  -0.20209  0  3.981853  0  0  -0.087178  -0.188352  0  3.946554  0
C  C75  1  0.20927526  0.11596574  0.37327069  1  0  -0.176963  0  3.713271  0  0  -0.193647  0  3.96055  0  0  -0.202094  0  3.981861  0  0  -0.0872  -0.188357  0  3.946557  0
C  C76  1  0.78244717  0.79182351  0.72895619  1  0  0.12034  0  3.728611  0  0  0.089347  0  3.980846  0  0  0.097057  0  3.998745  0  0  0.043646  0.084265  0  3.968554  0
C  C77  1  0.21755799  0.20817796  0.27104137  1  0  0.12034  0  3.728471  0  0  0.089306  0  3.980741  0  0  0.097012  0  3.99864  0  0  0.04362  0.08423  0  3.968438  0
C  C78  1  0.58069541  0.93294457  0.81976252  1  0  0.148254  0  3.665496  0  0  0.115421  0  3.917594  0  0  0.123429  0  3.934139  0  0  0.059746  0.11021  0  3.906681  0
C  C79  1  0.41930428  0.06705473  0.18023697  1  0  0.148237  0  3.665523  0  0  0.115451  0  3.917623  0  0  0.123442  0  3.934166  0  0  0.059754  0.11024  0  3.906707  0
C  C80  1  0.58217426  0.03060832  0.72089913  1  0  -0.156735  0  3.668149  0  0  -0.172886  0  3.914107  0  0  -0.180675  0  3.934424  0  0  -0.077097  -0.168192  0  3.900614  0
C  C81  1  0.41782535  0.96938884  0.27909996  1  0  -0.156713  0  3.66813  0  0  -0.172902  0  3.914069  0  0  -0.180693  0  3.934394  0  0  -0.077119  -0.168214  0  3.900582  0
N  N82  1  0.63572637  0.48736839  0.16757645  1  0  -0.329725  0  3.236817  0  0  -0.253836  0  3.504153  0  0  -0.274801  0  3.522677  0  0  -0.321408  -0.239741  0  3.491376  0
N  N83  1  0.36427862  0.51262881  0.83242109  1  0  -0.32972  0  3.236653  0  0  -0.253812  0  3.504006  0  0  -0.274778  0  3.522537  0  0  -0.321453  -0.239722  0  3.491227  0
N  N84  1  0.67937951  0.81553135  0.82415015  1  0  -0.313823  0  3.221037  0  0  -0.236266  0  3.482708  0  0  -0.255977  0  3.500661  0  0  -0.321535  -0.222815  0  3.470074  0
N  N85  1  0.32062418  0.18446691  0.17584896  1  0  -0.313736  0  3.221023  0  0  -0.236203  0  3.48273  0  0  -0.255915  0  3.500694  0  0  -0.321519  -0.222755  0  3.470092  0
O  O86  1  0.95688571  0.70575793  0.01226666  1  0  -0.637404  0  1.968269  0  0  -0.569242  0  2.205563  0  0  -0.599019  0  2.197471  0  0  -0.331645  -0.547774  0  2.209983  0
O  O87  1  0.04311809  0.29424355  0.98773344  1  0  -0.637454  0  1.968177  0  0  -0.569298  0  2.205478  0  0  -0.599076  0  2.197384  0  0  -0.331681  -0.547831  0  2.209894  0
O  O88  1  0.73490341  0.82102010  0.10189288  1  0  -0.65109  0  1.911132  0  0  -0.594091  0  2.14882  0  0  -0.621499  0  2.140884  0  0  -0.339613  -0.574268  0  2.153153  0
O  O89  1  0.26509489  0.17897814  0.89810778  1  0  -0.651124  0  1.911149  0  0  -0.594139  0  2.148842  0  0  -0.621545  0  2.140904  0  0  -0.339624  -0.574322  0  2.153175  0
O  O90  1  0.21907778  0.50238430  0.12107336  1  0  -0.647447  0  2.059221  0  0  -0.577213  0  2.329317  0  0  -0.606795  0  2.317462  0  0  -0.32724  -0.556303  0  2.336516  0
O  O91  1  0.78092460  0.49761503  0.87892653  1  0  -0.647467  0  2.059262  0  0  -0.577227  0  2.329396  0  0  -0.606809  0  2.31754  0  0  -0.327229  -0.556314  0  2.336593  0
O  O92  1  0.37647348  0.70840349  0.02904820  1  0  -0.670799  0  2.044164  0  0  -0.611978  0  2.32227  0  0  -0.640386  0  2.308541  0  0  -0.341166  -0.591547  0  2.330751  0
O  O93  1  0.62352624  0.29159690  0.97095267  1  0  -0.670839  0  2.04402  0  0  -0.611974  0  2.322104  0  0  -0.640383  0  2.308379  0  0  -0.341137  -0.591546  0  2.330593  0
