# generated using pymatgen
data_Ba2H18C8O17
_symmetry_space_group_name_H-M   'P 1'
_cell_length_a   5.10057034
_cell_length_b   9.64598188
_cell_length_c   18.49631596
_cell_angle_alpha   102.89913312
_cell_angle_beta   89.99175104
_cell_angle_gamma   105.34142538
_symmetry_Int_Tables_number   1
_chemical_formula_structural   Ba2H18C8O17
_chemical_formula_sum   'Ba4 H36 C16 O34'
_cell_volume   853.76337069
_cell_formula_units_Z   2
loop_
 _symmetry_equiv_pos_site_id
 _symmetry_equiv_pos_as_xyz
  1  'x, y, z'
loop_
 _atom_site_type_symbol
 _atom_site_label
 _atom_site_symmetry_multiplicity
 _atom_site_fract_x
 _atom_site_fract_y
 _atom_site_fract_z
 _atom_site_occupancy
 _atom_site_hle17_bader_spin_density
 _atom_site_hle17_ddec_charge
 _atom_site_hle17_ddec_spin_density
 _atom_site_hle17_ddec_sum_bond_order
 _atom_site_hle17_magmom
 _atom_site_hse06_10hf_bader_spin_density
 _atom_site_hse06_10hf_ddec_charge
 _atom_site_hse06_10hf_ddec_spin_density
 _atom_site_hse06_10hf_ddec_sum_bond_order
 _atom_site_hse06_10hf_magmom
 _atom_site_hse06_bader_spin_density
 _atom_site_hse06_ddec_charge
 _atom_site_hse06_ddec_spin_density
 _atom_site_hse06_ddec_sum_bond_order
 _atom_site_hse06_magmom
 _atom_site_pbe_bader_spin_density
 _atom_site_pbe_cm5_charge
 _atom_site_pbe_ddec_charge
 _atom_site_pbe_ddec_spin_density
 _atom_site_pbe_ddec_sum_bond_order
 _atom_site_pbe_magmom
Ba  Ba0  1  0.82426526  0.15420090  0.85887477  1  0  1.643497  0  1.125796  0  0  1.492065  0  1.524418  0  0  1.531174  0  1.480973  0  0  0.941547  1.463337  0  1.555324  0
Ba  Ba1  1  0.66996439  0.84545894  0.64114134  1  0  1.642752  0  1.12791  0  0  1.490868  0  1.527028  0  0  1.530147  0  1.483421  0  0  0.94162  1.462837  0  1.557211  0
Ba  Ba2  1  0.17574086  0.84579447  0.14112632  1  0  1.643485  0  1.12578  0  0  1.492061  0  1.524391  0  0  1.531168  0  1.480944  0  0  0.941533  1.46334  0  1.555298  0
Ba  Ba3  1  0.33003354  0.15454750  0.35886054  1  0  1.64274  0  1.127919  0  0  1.490895  0  1.526947  0  0  1.530174  0  1.483345  0  0  0.941644  1.462865  0  1.557123  0
H  H4  1  0.70637659  0.66406973  0.85860684  1  0  0.074541  0  0.937996  0  0  0.07904  0  1.008902  0  0  0.081854  0  1.00609  0  0  0.120038  0.077249  0  1.01066  0
H  H5  1  0.04160399  0.33547806  0.64139912  1  0  0.074571  0  0.938397  0  0  0.078941  0  1.008851  0  0  0.081718  0  1.006009  0  0  0.120334  0.077065  0  1.010741  0
H  H6  1  0.29362035  0.33591906  0.14139130  1  0  0.074482  0  0.938102  0  0  0.078914  0  1.009101  0  0  0.081724  0  1.006298  0  0  0.120024  0.077119  0  1.010862  0
H  H7  1  0.95839339  0.66452728  0.35860209  1  0  0.074598  0  0.938346  0  0  0.079005  0  1.008817  0  0  0.081784  0  1.005973  0  0  0.120344  0.077132  0  1.010705  0
H  H8  1  0.34814167  0.60651724  0.93512819  1  0  0.075144  0  0.918761  0  0  0.0846  0  0.979836  0  0  0.086572  0  0.978253  0  0  0.12552  0.08303  0  0.981224  0
H  H9  1  0.74135438  0.39332994  0.56496534  1  0  0.074475  0  0.918956  0  0  0.083892  0  0.980229  0  0  0.085896  0  0.978606  0  0  0.125276  0.0826  0  0.981228  0
H  H10  1  0.65186642  0.39347816  0.06487182  1  0  0.075146  0  0.918826  0  0  0.08468  0  0.979817  0  0  0.086653  0  0.978231  0  0  0.125531  0.083097  0  0.981213  0
H  H11  1  0.25864017  0.60667759  0.43503722  1  0  0.074475  0  0.918977  0  0  0.083909  0  0.980231  0  0  0.085914  0  0.978607  0  0  0.125295  0.082618  0  0.981229  0
H  H12  1  0.00327433  0.87458949  0.91309342  1  0  0.388672  0  0.863003  0  0  0.36476  0  0.935138  0  0  0.374624  0  0.923583  0  0  0.321688  0.357397  0  0.943851  0
H  H13  1  0.12790117  0.12507675  0.58680972  1  0  0.387967  0  0.863357  0  0  0.364201  0  0.935159  0  0  0.37407  0  0.923661  0  0  0.321944  0.356998  0  0.943563  0
H  H14  1  0.99673382  0.12539820  0.08690404  1  0  0.388777  0  0.862819  0  0  0.364841  0  0.935009  0  0  0.374714  0  0.923439  0  0  0.321687  0.357474  0  0.943736  0
H  H15  1  0.87209424  0.87492857  0.41319258  1  0  0.387997  0  0.863304  0  0  0.364258  0  0.935107  0  0  0.374129  0  0.923602  0  0  0.321931  0.357051  0  0.94353  0
H  H16  1  0.10164925  0.74404700  0.97740783  1  0  0.34654  0  0.973634  0  0  0.321862  0  1.049218  0  0  0.331531  0  1.038849  0  0  0.298038  0.315135  0  1.056361  0
H  H17  1  0.35725880  0.25602418  0.52258834  1  0  0.347372  0  0.97307  0  0  0.322387  0  1.049198  0  0  0.332035  0  1.038808  0  0  0.298205  0.315592  0  1.056526  0
H  H18  1  0.89835884  0.25594840  0.02259218  1  0  0.346499  0  0.973668  0  0  0.321828  0  1.049241  0  0  0.331496  0  1.038874  0  0  0.298042  0.315106  0  1.056375  0
H  H19  1  0.64273857  0.74398115  0.47741395  1  0  0.347196  0  0.973198  0  0  0.322263  0  1.049261  0  0  0.33191  0  1.038884  0  0  0.298168  0.315458  0  1.056596  0
H  H20  1  0.33624717  0.35475395  0.76150229  1  0  0.419582  0  0.888215  0  0  0.38598  0  0.955814  0  0  0.397729  0  0.938809  0  0  0.293408  0.377735  0  0.967724  0
H  H21  1  0.98144446  0.64484528  0.73851823  1  0  0.418757  0  0.889337  0  0  0.385765  0  0.955925  0  0  0.397459  0  0.938987  0  0  0.293373  0.377401  0  0.968002  0
H  H22  1  0.66374917  0.64524147  0.23849610  1  0  0.419614  0  0.888173  0  0  0.386013  0  0.955773  0  0  0.397767  0  0.938759  0  0  0.293386  0.377765  0  0.967687  0
H  H23  1  0.01855604  0.35515454  0.26148232  1  0  0.418725  0  0.889382  0  0  0.385741  0  0.955953  0  0  0.397435  0  0.939016  0  0  0.293379  0.377376  0  0.968031  0
H  H24  1  0.18682282  0.93480807  0.76899334  1  0  0.424249  0  0.877283  0  0  0.395966  0  0.937106  0  0  0.407219  0  0.920588  0  0  0.314072  0.387993  0  0.948848  0
H  H25  1  0.25209708  0.06489821  0.73104187  1  0  0.424148  0  0.877798  0  0  0.395934  0  0.937508  0  0  0.40721  0  0.92097  0  0  0.313791  0.387939  0  0.94921  0
H  H26  1  0.81317963  0.06519175  0.23100720  1  0  0.424115  0  0.877469  0  0  0.395883  0  0.937196  0  0  0.407131  0  0.920688  0  0  0.314046  0.38791  0  0.948943  0
H  H27  1  0.74790648  0.93510381  0.26895948  1  0  0.424184  0  0.877752  0  0  0.39597  0  0.937462  0  0  0.407247  0  0.920923  0  0  0.313813  0.387978  0  0.949162  0
H  H28  1  0.18801774  0.46591642  0.80905078  1  0  0.425709  0  0.874076  0  0  0.39229  0  0.942275  0  0  0.402988  0  0.926666  0  0  0.295256  0.384767  0  0.953239  0
H  H29  1  0.72178432  0.53374972  0.69102402  1  0  0.42633  0  0.873344  0  0  0.392992  0  0.941403  0  0  0.403706  0  0.925767  0  0  0.295555  0.385372  0  0.952452  0
H  H30  1  0.81198084  0.53407564  0.19094991  1  0  0.425768  0  0.87402  0  0  0.392372  0  0.942178  0  0  0.403071  0  0.926568  0  0  0.295309  0.384849  0  0.953142  0
H  H31  1  0.27821056  0.46625455  0.30897544  1  0  0.426294  0  0.87339  0  0  0.392969  0  0.941426  0  0  0.403683  0  0.92579  0  0  0.295581  0.385351  0  0.952471  0
H  H32  1  0.74625490  0.50624684  0.93124646  1  0  0.419166  0  0.887129  0  0  0.387809  0  0.952513  0  0  0.398586  0  0.936748  0  0  0.288584  0.380174  0  0.963614  0
H  H33  1  0.23943557  0.49358943  0.56874731  1  0  0.419495  0  0.886696  0  0  0.388242  0  0.951879  0  0  0.399003  0  0.936148  0  0  0.288525  0.380608  0  0.962995  0
H  H34  1  0.25374536  0.49374857  0.06875247  1  0  0.419142  0  0.887181  0  0  0.387792  0  0.952548  0  0  0.39857  0  0.936783  0  0  0.288578  0.380159  0  0.963648  0
H  H35  1  0.76056378  0.50641592  0.43125336  1  0  0.419512  0  0.886685  0  0  0.388257  0  0.951872  0  0  0.399021  0  0.936135  0  0  0.288547  0.380621  0  0.962991  0
H  H36  1  0.52598319  0.41049730  0.86525878  1  0  0.406574  0  0.904422  0  0  0.377452  0  0.967851  0  0  0.388224  0  0.951952  0  0  0.290266  0.369819  0  0.979055  0
H  H37  1  0.11504618  0.58928485  0.63479120  1  0  0.407117  0  0.903657  0  0  0.378125  0  0.967042  0  0  0.388899  0  0.951124  0  0  0.290566  0.370473  0  0.978281  0
H  H38  1  0.47401596  0.58949591  0.13473989  1  0  0.406564  0  0.904439  0  0  0.377437  0  0.967878  0  0  0.388209  0  0.951978  0  0  0.290268  0.369804  0  0.979081  0
H  H39  1  0.88495372  0.41072160  0.36520961  1  0  0.407166  0  0.903602  0  0  0.378176  0  0.966986  0  0  0.38895  0  0.951067  0  0  0.290576  0.370523  0  0.978226  0
C  C40  1  0.41425923  0.75969319  0.82092549  1  0  0.673283  0  3.836538  0  0  0.615153  0  4.147124  0  0  0.648874  0  4.138113  0  0  0.233916  0.592213  0  4.152803  0
C  C41  1  0.65377946  0.23986199  0.67903264  1  0  0.676476  0  3.834825  0  0  0.616242  0  4.147994  0  0  0.649925  0  4.138982  0  0  0.234873  0.593447  0  4.153614  0
C  C42  1  0.58574133  0.24029891  0.17907304  1  0  0.673329  0  3.836268  0  0  0.615223  0  4.146842  0  0  0.648942  0  4.137833  0  0  0.233941  0.592278  0  4.152526  0
C  C43  1  0.34621541  0.76014227  0.32096737  1  0  0.676455  0  3.834994  0  0  0.616332  0  4.148109  0  0  0.650018  0  4.139089  0  0  0.234906  0.593535  0  4.153737  0
C  C44  1  0.61972394  0.75698677  0.88108234  1  0  0.06504  0  3.611606  0  0  0.036985  0  3.867451  0  0  0.038442  0  3.873832  0  0  0.005327  0.035556  0  3.863125  0
C  C45  1  0.86198916  0.24258618  0.61886892  1  0  0.06413  0  3.610857  0  0  0.037533  0  3.865542  0  0  0.039209  0  3.871629  0  0  0.004628  0.036231  0  3.861363  0
C  C46  1  0.38028111  0.24300647  0.11891470  1  0  0.065064  0  3.611789  0  0  0.037034  0  3.867637  0  0  0.038488  0  3.874035  0  0  0.005378  0.035618  0  3.863307  0
C  C47  1  0.13801129  0.75742137  0.38113255  1  0  0.064189  0  3.610915  0  0  0.037354  0  3.866057  0  0  0.039031  0  3.872144  0  0  0.004647  0.036053  0  3.86188  0
C  C48  1  0.46140189  0.72454464  0.94962224  1  0  0.056372  0  3.634733  0  0  0.032121  0  3.88813  0  0  0.033805  0  3.894571  0  0  0.002719  0.031057  0  3.883669  0
C  C49  1  0.73640299  0.27528555  0.55035294  1  0  0.056962  0  3.632621  0  0  0.032649  0  3.885125  0  0  0.034308  0  3.891585  0  0  0.00161  0.031283  0  3.880776  0
C  C50  1  0.53860284  0.27545188  0.05037683  1  0  0.056254  0  3.634646  0  0  0.031934  0  3.888032  0  0  0.033618  0  3.894467  0  0  0.00266  0.030879  0  3.883572  0
C  C51  1  0.26359690  0.72472090  0.44964841  1  0  0.057016  0  3.63242  0  0  0.032656  0  3.885129  0  0  0.034316  0  3.891591  0  0  0.001579  0.031286  0  3.880776  0
C  C52  1  0.66270227  0.74571904  0.01527657  1  0  0.640499  0  3.878039  0  0  0.584565  0  4.185932  0  0  0.617668  0  4.177467  0  0  0.212875  0.561874  0  4.191222  0
C  C53  1  0.91674177  0.25430054  0.48469100  1  0  0.641438  0  3.876685  0  0  0.585336  0  4.184499  0  0  0.61843  0  4.17609  0  0  0.214347  0.562901  0  4.189555  0
C  C54  1  0.33730473  0.25427418  0.98472155  1  0  0.640789  0  3.877638  0  0  0.584922  0  4.185427  0  0  0.618037  0  4.176927  0  0  0.212995  0.562216  0  4.190746  0
C  C55  1  0.08325892  0.74571144  0.51531048  1  0  0.641575  0  3.876138  0  0  0.585561  0  4.183832  0  0  0.618651  0  4.175428  0  0  0.214456  0.563133  0  4.188875  0
O  O56  1  0.46288358  0.87060310  0.79118094  1  0  -0.722556  0  2.014769  0  0  -0.650333  0  2.253406  0  0  -0.677771  0  2.243165  0  0  -0.357609  -0.631453  0  2.2602  0
O  O57  1  0.59167281  0.12903149  0.70881949  1  0  -0.723525  0  2.015006  0  0  -0.650887  0  2.254745  0  0  -0.67827  0  2.244487  0  0  -0.357802  -0.631771  0  2.261394  0
O  O58  1  0.53712334  0.12939780  0.20882081  1  0  -0.722498  0  2.014771  0  0  -0.650317  0  2.253404  0  0  -0.677749  0  2.243164  0  0  -0.357582  -0.631438  0  2.260203  0
O  O59  1  0.40832734  0.87097939  0.29118185  1  0  -0.723647  0  2.01521  0  0  -0.651035  0  2.254912  0  0  -0.678419  0  2.244651  0  0  -0.357843  -0.631917  0  2.261564  0
O  O60  1  0.20558438  0.65033218  0.80486077  1  0  -0.624076  0  2.01535  0  0  -0.558975  0  2.236631  0  0  -0.584846  0  2.22523  0  0  -0.292977  -0.541119  0  2.244223  0
O  O61  1  0.55444149  0.34921865  0.69507124  1  0  -0.626319  0  2.016805  0  0  -0.560435  0  2.239404  0  0  -0.586358  0  2.228044  0  0  -0.293184  -0.542624  0  2.246902  0
O  O62  1  0.79441981  0.34966327  0.19513655  1  0  -0.624086  0  2.015076  0  0  -0.559012  0  2.236367  0  0  -0.584885  0  2.224968  0  0  -0.29302  -0.541154  0  2.243958  0
O  O63  1  0.44553970  0.65078568  0.30492498  1  0  -0.626307  0  2.016796  0  0  -0.560416  0  2.239303  0  0  -0.586347  0  2.227942  0  0  -0.293226  -0.542614  0  2.246824  0
O  O64  1  0.83217182  0.89187599  0.89760752  1  0  -0.572794  0  2.098963  0  0  -0.519662  0  2.329836  0  0  -0.53521  0  2.318318  0  0  -0.421743  -0.508319  0  2.338058  0
O  O65  1  0.93950942  0.10772161  0.60230241  1  0  -0.571171  0  2.100916  0  0  -0.518329  0  2.331634  0  0  -0.533956  0  2.319961  0  0  -0.421253  -0.507269  0  2.33947  0
O  O66  1  0.16783548  0.10811391  0.10239075  1  0  -0.572902  0  2.098927  0  0  -0.519789  0  2.329849  0  0  -0.53533  0  2.318308  0  0  -0.421771  -0.50845  0  2.338073  0
O  O67  1  0.06049101  0.89228592  0.39770015  1  0  -0.571255  0  2.10106  0  0  -0.518385  0  2.331794  0  0  -0.534023  0  2.320144  0  0  -0.421218  -0.50729  0  2.339556  0
O  O68  1  0.27580783  0.81263117  0.96780778  1  0  -0.553938  0  2.095784  0  0  -0.509361  0  2.318904  0  0  -0.5245  0  2.307981  0  0  -0.391477  -0.498535  0  2.326394  0
O  O69  1  0.46262399  0.18731087  0.53211245  1  0  -0.553909  0  2.095446  0  0  -0.509313  0  2.318506  0  0  -0.524497  0  2.307628  0  0  -0.390833  -0.498458  0  2.325852  0
O  O70  1  0.72420026  0.18736423  0.03219223  1  0  -0.553837  0  2.095682  0  0  -0.50924  0  2.3188  0  0  -0.524385  0  2.307884  0  0  -0.39145  -0.498386  0  2.326226  0
O  O71  1  0.53737535  0.81269447  0.46788930  1  0  -0.553738  0  2.095376  0  0  -0.509186  0  2.31847  0  0  -0.524356  0  2.307564  0  0  -0.390778  -0.498319  0  2.325843  0
O  O72  1  0.82076776  0.65916122  0.00572477  1  0  -0.683546  0  2.017243  0  0  -0.614761  0  2.241282  0  0  -0.641396  0  2.231406  0  0  -0.333556  -0.59602  0  2.247721  0
O  O73  1  0.16127825  0.34096785  0.49425635  1  0  -0.684703  0  2.01806  0  0  -0.615469  0  2.241941  0  0  -0.642155  0  2.232149  0  0  -0.334187  -0.596881  0  2.247996  0
O  O74  1  0.17923726  0.34083197  0.99427497  1  0  -0.683693  0  2.017207  0  0  -0.61493  0  2.241198  0  0  -0.641568  0  2.231307  0  0  -0.33359  -0.596184  0  2.247639  0
O  O75  1  0.83872163  0.65903858  0.50574607  1  0  -0.684697  0  2.017923  0  0  -0.615468  0  2.24175  0  0  -0.642154  0  2.23196  0  0  -0.33422  -0.596897  0  2.247836  0
O  O76  1  0.67261041  0.84392469  0.07355361  1  0  -0.675889  0  2.003293  0  0  -0.616121  0  2.248384  0  0  -0.641914  0  2.240016  0  0  -0.367806  -0.59804  0  2.25392  0
O  O77  1  0.82856036  0.15611905  0.42640118  1  0  -0.67642  0  2.002976  0  0  -0.616516  0  2.248134  0  0  -0.642264  0  2.239645  0  0  -0.36835  -0.598645  0  2.25325  0
O  O78  1  0.32739546  0.15606628  0.92644640  1  0  -0.675994  0  2.003203  0  0  -0.616286  0  2.248315  0  0  -0.642082  0  2.239934  0  0  -0.367877  -0.5982  0  2.253861  0
O  O79  1  0.17144059  0.84389736  0.57360029  1  0  -0.676579  0  2.002766  0  0  -0.616736  0  2.247975  0  0  -0.642486  0  2.239485  0  0  -0.368443  -0.59886  0  2.253088  0
O  O80  1  0.09511198  0.99986123  0.75000085  1  0  -0.912494  0  1.858359  0  0  -0.857323  0  2.049938  0  0  -0.878408  0  2.016989  0  0  -0.638595  -0.842266  0  2.072876  0
O  O81  1  0.90489189  0.00013749  0.24999956  1  0  -0.912379  0  1.858398  0  0  -0.857241  0  2.049963  0  0  -0.878323  0  2.017018  0  0  -0.638601  -0.842194  0  2.07289  0
O  O82  1  0.22215579  0.36793896  0.80556973  1  0  -0.884998  0  1.828946  0  0  -0.823033  0  2.012204  0  0  -0.844995  0  1.97985  0  0  -0.609992  -0.807383  0  2.0347  0
O  O83  1  0.85392370  0.63173491  0.69451882  1  0  -0.884392  0  1.829734  0  0  -0.822654  0  2.01252  0  0  -0.844694  0  1.980394  0  0  -0.609788  -0.807153  0  2.034978  0
O  O84  1  0.77784366  0.63205092  0.19442908  1  0  -0.885094  0  1.828886  0  0  -0.823156  0  2.012126  0  0  -0.845121  0  1.979764  0  0  -0.610008  -0.8075  0  2.034625  0
O  O85  1  0.14607454  0.36826824  0.30548159  1  0  -0.884322  0  1.829813  0  0  -0.822599  0  2.012572  0  0  -0.84464  0  1.980447  0  0  -0.609821  -0.807097  0  2.035029  0
O  O86  1  0.71072886  0.42220068  0.88697635  1  0  -0.884708  0  1.810336  0  0  -0.829797  0  1.988653  0  0  -0.849506  0  1.957671  0  0  -0.649171  -0.815457  0  2.010159  0
O  O87  1  0.28805482  0.57761712  0.61303276  1  0  -0.885407  0  1.809246  0  0  -0.83072  0  1.987122  0  0  -0.850503  0  1.956182  0  0  -0.649585  -0.816648  0  2.008703  0
O  O88  1  0.28926889  0.57779364  0.11302191  1  0  -0.884667  0  1.810359  0  0  -0.829745  0  1.988661  0  0  -0.849454  0  1.95768  0  0  -0.649176  -0.815403  0  2.010164  0
O  O89  1  0.71194369  0.42239049  0.38696602  1  0  -0.885471  0  1.809164  0  0  -0.830809  0  1.987043  0  0  -0.850592  0  1.956091  0  0  -0.649613  -0.816735  0  2.008631  0
