# generated using pymatgen
data_LaH3CSO7
_symmetry_space_group_name_H-M   'P 1'
_cell_length_a   7.02611568
_cell_length_b   7.02830816
_cell_length_c   11.74689316
_cell_angle_alpha   90.00093317
_cell_angle_beta   89.99990624
_cell_angle_gamma   90.04442016
_symmetry_Int_Tables_number   1
_chemical_formula_structural   LaH3CSO7
_chemical_formula_sum   'La4 H12 C4 S4 O28'
_cell_volume   580.08145224
_cell_formula_units_Z   4
loop_
 _symmetry_equiv_pos_site_id
 _symmetry_equiv_pos_as_xyz
  1  'x, y, z'
loop_
 _atom_site_type_symbol
 _atom_site_label
 _atom_site_symmetry_multiplicity
 _atom_site_fract_x
 _atom_site_fract_y
 _atom_site_fract_z
 _atom_site_occupancy
 _atom_site_hle17_bader_spin_density
 _atom_site_hle17_ddec_charge
 _atom_site_hle17_ddec_spin_density
 _atom_site_hle17_ddec_sum_bond_order
 _atom_site_hle17_magmom
 _atom_site_hse06_10hf_bader_spin_density
 _atom_site_hse06_10hf_ddec_charge
 _atom_site_hse06_10hf_ddec_spin_density
 _atom_site_hse06_10hf_ddec_sum_bond_order
 _atom_site_hse06_10hf_magmom
 _atom_site_hse06_bader_spin_density
 _atom_site_hse06_ddec_charge
 _atom_site_hse06_ddec_spin_density
 _atom_site_hse06_ddec_sum_bond_order
 _atom_site_hse06_magmom
 _atom_site_pbe_bader_spin_density
 _atom_site_pbe_cm5_charge
 _atom_site_pbe_ddec_charge
 _atom_site_pbe_ddec_spin_density
 _atom_site_pbe_ddec_sum_bond_order
 _atom_site_pbe_magmom
La  La0  1  0.35373340  0.10762888  0.15629018  1  0  2.215306  0  1.662014  0  0  2.104793  0  2.143696  0  0  2.205302  0  2.04236  0  0  1.429123  2.028351  0  2.215802  0
La  La1  1  0.64627378  0.89237187  0.65630520  1  0  2.215263  0  1.662228  0  0  2.104732  0  2.143996  0  0  2.205209  0  2.042671  0  0  1.429139  2.028369  0  2.216212  0
La  La2  1  0.89282625  0.35394891  0.40644832  1  0  2.215715  0  1.661624  0  0  2.104812  0  2.143882  0  0  2.205266  0  2.042627  0  0  1.428965  2.028452  0  2.216034  0
La  La3  1  0.10718596  0.64606437  0.90645552  1  0  2.215666  0  1.661561  0  0  2.104672  0  2.143945  0  0  2.205138  0  2.04267  0  0  1.42892  2.028269  0  2.216006  0
H  H4  1  0.83501074  0.00465917  0.11251361  1  0  0.034666  0  0.937504  0  0  0.041525  0  1.005352  0  0  0.042639  0  1.000141  0  0  0.132799  0.040353  0  1.009452  0
H  H5  1  0.16500651  0.99532901  0.61251734  1  0  0.034616  0  0.937642  0  0  0.041504  0  1.005437  0  0  0.042617  0  1.000231  0  0  0.132805  0.040335  0  1.009568  0
H  H6  1  0.99588628  0.83543845  0.36240066  1  0  0.034757  0  0.937679  0  0  0.041314  0  1.005835  0  0  0.04238  0  1.000701  0  0  0.132907  0.040173  0  1.009916  0
H  H7  1  0.00413743  0.16457648  0.86238882  1  0  0.034837  0  0.937655  0  0  0.041352  0  1.005852  0  0  0.04242  0  1.000721  0  0  0.132934  0.040194  0  1.009961  0
H  H8  1  0.58701006  0.19058194  0.92642346  1  0  0.452532  0  0.82249  0  0  0.426516  0  0.882069  0  0  0.436706  0  0.867236  0  0  0.316799  0.419066  0  0.892921  0
H  H9  1  0.41298643  0.80941196  0.42642030  1  0  0.452594  0  0.822317  0  0  0.426562  0  0.881994  0  0  0.436764  0  0.867144  0  0  0.31679  0.419122  0  0.892834  0
H  H10  1  0.81046331  0.58760594  0.17658020  1  0  0.452703  0  0.822144  0  0  0.426575  0  0.882088  0  0  0.436797  0  0.867201  0  0  0.316763  0.41912  0  0.892937  0
H  H11  1  0.18954524  0.41238825  0.67656974  1  0  0.453022  0  0.821721  0  0  0.426847  0  0.88175  0  0  0.437076  0  0.86685  0  0  0.316851  0.419394  0  0.892614  0
H  H12  1  0.52390760  0.38348944  0.98047106  1  0  0.438318  0  0.863592  0  0  0.407408  0  0.927726  0  0  0.418201  0  0.912125  0  0  0.306619  0.399622  0  0.938964  0
H  H13  1  0.47610156  0.61650452  0.48047363  1  0  0.438268  0  0.863705  0  0  0.407334  0  0.927893  0  0  0.418128  0  0.912286  0  0  0.306584  0.399558  0  0.939123  0
H  H14  1  0.61740454  0.52422071  0.23045125  1  0  0.438666  0  0.86288  0  0  0.407637  0  0.927175  0  0  0.418492  0  0.911491  0  0  0.306551  0.399825  0  0.938428  0
H  H15  1  0.38258678  0.47577779  0.73044972  1  0  0.438716  0  0.862816  0  0  0.407686  0  0.927116  0  0  0.418539  0  0.911434  0  0  0.306562  0.399872  0  0.938381  0
C  C16  1  0.84316469  0.08960988  0.19112885  1  0  0.617758  0  3.847135  0  0  0.552044  0  4.151171  0  0  0.588069  0  4.143987  0  0  0.173105  0.527241  0  4.155169  0
C  C17  1  0.15685093  0.91038186  0.69113602  1  0  0.617681  0  3.847207  0  0  0.55195  0  4.151244  0  0  0.587971  0  4.144065  0  0  0.173021  0.527165  0  4.155317  0
C  C18  1  0.91103013  0.84339290  0.44103685  1  0  0.616691  0  3.84687  0  0  0.551101  0  4.151071  0  0  0.587154  0  4.143855  0  0  0.172237  0.526296  0  4.155117  0
C  C19  1  0.08897202  0.15662417  0.94103251  1  0  0.616579  0  3.847116  0  0  0.550996  0  4.151339  0  0  0.587057  0  4.144123  0  0  0.172185  0.526142  0  4.155422  0
S  S20  1  0.61680205  0.74593116  0.96792648  1  0  1.656225  0  5.780742  0  0  1.533569  0  6.322909  0  0  1.5937  0  6.28738  0  0  0.615115  1.491229  0  6.346258  0
S  S21  1  0.38318436  0.25405818  0.46791029  1  0  1.655939  0  5.78123  0  0  1.533305  0  6.323394  0  0  1.593434  0  6.287868  0  0  0.615066  1.490927  0  6.346905  0
S  S22  1  0.25454579  0.61693437  0.21806563  1  0  1.655999  0  5.781766  0  0  1.533456  0  6.323913  0  0  1.593602  0  6.28841  0  0  0.615596  1.49108  0  6.347276  0
S  S23  1  0.74546692  0.38307234  0.71808242  1  0  1.655862  0  5.782082  0  0  1.533313  0  6.32421  0  0  1.59343  0  6.288727  0  0  0.615516  1.49096  0  6.347666  0
O  O24  1  0.67694552  0.85754753  0.86699307  1  0  -0.797058  0  2.029416  0  0  -0.751941  0  2.317609  0  0  -0.782687  0  2.302338  0  0  -0.400722  -0.729229  0  2.327103  0
O  O25  1  0.32302695  0.14248173  0.36700906  1  0  -0.796825  0  2.030629  0  0  -0.751714  0  2.318855  0  0  -0.782461  0  2.303583  0  0  -0.40041  -0.728927  0  2.328366  0
O  O26  1  0.14213702  0.67646990  0.11735169  1  0  -0.797336  0  2.027976  0  0  -0.752219  0  2.31618  0  0  -0.782942  0  2.300887  0  0  -0.400442  -0.72947  0  2.325651  0
O  O27  1  0.85785175  0.32351128  0.61734735  1  0  -0.797335  0  2.027842  0  0  -0.75223  0  2.316023  0  0  -0.782971  0  2.300762  0  0  -0.400325  -0.729496  0  2.325551  0
O  O28  1  0.46625333  0.60528515  0.93488564  1  0  -0.784847  0  2.02127  0  0  -0.724933  0  2.285544  0  0  -0.75387  0  2.268669  0  0  -0.379993  -0.703822  0  2.296685  0
O  O29  1  0.53374030  0.39470898  0.43489196  1  0  -0.784623  0  2.021222  0  0  -0.724734  0  2.28553  0  0  -0.753669  0  2.268651  0  0  -0.37995  -0.70358  0  2.296706  0
O  O30  1  0.39510584  0.46666346  0.18488159  1  0  -0.78457  0  2.021088  0  0  -0.724794  0  2.285533  0  0  -0.753743  0  2.268609  0  0  -0.37999  -0.703652  0  2.296683  0
O  O31  1  0.60488562  0.53334518  0.68487784  1  0  -0.784654  0  2.020671  0  0  -0.724871  0  2.285095  0  0  -0.753824  0  2.268191  0  0  -0.380075  -0.703736  0  2.296305  0
O  O32  1  0.53771779  0.87308935  0.05590471  1  0  -0.798881  0  2.106119  0  0  -0.749619  0  2.396498  0  0  -0.780945  0  2.380125  0  0  -0.427038  -0.726595  0  2.407  0
O  O33  1  0.46227257  0.12689157  0.55590993  1  0  -0.798742  0  2.105408  0  0  -0.749587  0  2.395845  0  0  -0.780894  0  2.37946  0  0  -0.427076  -0.726568  0  2.406432  0
O  O34  1  0.12805681  0.53786894  0.30652019  1  0  -0.799312  0  2.107103  0  0  -0.74963  0  2.396722  0  0  -0.780868  0  2.380158  0  0  -0.427466  -0.726687  0  2.407377  0
O  O35  1  0.87192862  0.46211314  0.80651123  1  0  -0.799028  0  2.108029  0  0  -0.749314  0  2.397628  0  0  -0.780547  0  2.381079  0  0  -0.427234  -0.726313  0  2.408284  0
O  O36  1  0.78640785  0.64711087  0.01490882  1  0  -0.767927  0  1.985959  0  0  -0.714298  0  2.248296  0  0  -0.741969  0  2.230125  0  0  -0.380946  -0.694185  0  2.260449  0
O  O37  1  0.21358122  0.35290735  0.51492414  1  0  -0.768157  0  1.98569  0  0  -0.71441  0  2.247854  0  0  -0.742092  0  2.229692  0  0  -0.381051  -0.694291  0  2.260081  0
O  O38  1  0.35359516  0.78684503  0.26465575  1  0  -0.767905  0  1.986098  0  0  -0.714329  0  2.248299  0  0  -0.742013  0  2.230109  0  0  -0.381044  -0.694244  0  2.260511  0
O  O39  1  0.64638327  0.21316152  0.76466332  1  0  -0.768066  0  1.986085  0  0  -0.71444  0  2.248182  0  0  -0.742046  0  2.229953  0  0  -0.381144  -0.694338  0  2.260426  0
O  O40  1  0.69133185  0.13199865  0.24356938  1  0  -0.670376  0  2.055849  0  0  -0.620716  0  2.314648  0  0  -0.657008  0  2.308282  0  0  -0.360642  -0.594429  0  2.317964  0
O  O41  1  0.30866656  0.86800590  0.74357003  1  0  -0.67018  0  2.056198  0  0  -0.620469  0  2.314955  0  0  -0.656753  0  2.308585  0  0  -0.360513  -0.59416  0  2.318309  0
O  O42  1  0.86879856  0.69158252  0.49354363  1  0  -0.669728  0  2.056959  0  0  -0.619816  0  2.315234  0  0  -0.656118  0  2.308867  0  0  -0.360003  -0.593504  0  2.318592  0
O  O43  1  0.13122338  0.30841749  0.99352711  1  0  -0.669624  0  2.057568  0  0  -0.61961  0  2.315636  0  0  -0.655932  0  2.309308  0  0  -0.35996  -0.593281  0  2.318957  0
O  O44  1  0.00640075  0.14119890  0.22781411  1  0  -0.717479  0  2.08863  0  0  -0.668692  0  2.361288  0  0  -0.706944  0  2.354314  0  0  -0.387374  -0.640802  0  2.364917  0
O  O45  1  0.99359344  0.85880379  0.72781824  1  0  -0.717559  0  2.088309  0  0  -0.668766  0  2.361  0  0  -0.707025  0  2.35403  0  0  -0.387384  -0.64083  0  2.364604  0
O  O46  1  0.85949679  0.00658592  0.47777700  1  0  -0.717353  0  2.086289  0  0  -0.668601  0  2.358938  0  0  -0.706856  0  2.351943  0  0  -0.387097  -0.640708  0  2.362626  0
O  O47  1  0.14051095  0.99341935  0.97776967  1  0  -0.717432  0  2.086142  0  0  -0.66867  0  2.358779  0  0  -0.706943  0  2.351795  0  0  -0.387156  -0.640763  0  2.362412  0
O  O48  1  0.54992933  0.24830223  0.99934687  1  0  -0.878096  0  1.845073  0  0  -0.835432  0  2.04166  0  0  -0.861024  0  2.010202  0  0  -0.637177  -0.816661  0  2.063831  0
O  O49  1  0.45008404  0.75167944  0.49935418  1  0  -0.878154  0  1.844981  0  0  -0.835455  0  2.04159  0  0  -0.861048  0  2.010127  0  0  -0.63708  -0.816673  0  2.063762  0
O  O50  1  0.75257185  0.55039346  0.24946570  1  0  -0.878413  0  1.843759  0  0  -0.835692  0  2.040707  0  0  -0.861286  0  2.008993  0  0  -0.636792  -0.816931  0  2.063068  0
O  O51  1  0.24742369  0.44960556  0.74945554  1  0  -0.878723  0  1.843289  0  0  -0.836021  0  2.040266  0  0  -0.861614  0  2.008546  0  0  -0.636866  -0.817241  0  2.062647  0
