# generated using pymatgen
data_SrCuH12C14N2O11
_symmetry_space_group_name_H-M   'P 1'
_cell_length_a   6.68243464
_cell_length_b   10.60648520
_cell_length_c   14.01427521
_cell_angle_alpha   96.19464323
_cell_angle_beta   103.01029680
_cell_angle_gamma   92.84103730
_symmetry_Int_Tables_number   1
_chemical_formula_structural   SrCuH12C14N2O11
_chemical_formula_sum   'Sr2 Cu2 H24 C28 N4 O22'
_cell_volume   959.34176618
_cell_formula_units_Z   2
loop_
 _symmetry_equiv_pos_site_id
 _symmetry_equiv_pos_as_xyz
  1  'x, y, z'
loop_
 _atom_site_type_symbol
 _atom_site_label
 _atom_site_symmetry_multiplicity
 _atom_site_fract_x
 _atom_site_fract_y
 _atom_site_fract_z
 _atom_site_occupancy
 _atom_site_pbe_bader_charge
 _atom_site_pbe_bader_spin_density
 _atom_site_pbe_cm5_charge
 _atom_site_pbe_ddec_charge
 _atom_site_pbe_ddec_spin_density
 _atom_site_pbe_ddec_sum_bond_order
 _atom_site_pbe_magmom
Sr  Sr0  1  0.58626465  0.41281187  0.85963434  1  1.694191  0.000122  0.935962  1.484684  0.000101  1.471841  0.0
Sr  Sr1  1  0.41376449  0.58709937  0.14038682  1  1.694184  0.000122  0.936087  1.485331  0.000102  1.471163  0.0
Cu  Cu2  1  0.00001264  0.00001630  0.00000599  1  1.091721  -0.586477  0.755925  0.772713  -0.772249  2.323515  -0.584
Cu  Cu3  1  0.00001888  0.49998722  0.49998526  1  1.087588  0.577381  0.756829  0.768689  0.765568  2.346291  0.575
H  H4  1  0.77800459  0.80504702  0.61624588  1  0.098162  -7.2e-05  0.116057  0.115554  -4e-05  0.973707  0.0
H  H5  1  0.22200023  0.19495222  0.38376676  1  0.098126  -7.2e-05  0.116047  0.115589  -4e-05  0.97365  0.0
H  H6  1  0.48657553  0.88470030  0.49685817  1  0.086606  0.001161  0.115624  0.114663  0.000618  0.987589  0.0
H  H7  1  0.51345116  0.11529027  0.50314683  1  0.086427  0.001162  0.115622  0.114689  0.000618  0.987632  0.0
H  H8  1  0.14686521  0.75044500  0.44516041  1  0.143124  0.002052  0.131686  0.11308  0.000966  0.973617  0.002
H  H9  1  0.85316105  0.24954348  0.55483584  1  0.142991  0.002052  0.131549  0.112979  0.000966  0.973627  0.002
H  H10  1  0.02645419  0.35745540  0.80970250  1  0.621766  1e-06  0.299453  0.383496  -1e-06  0.945467  0.0
H  H11  1  0.97358827  0.64253475  0.19032407  1  0.621742  1e-06  0.299421  0.38346  -1e-06  0.945557  0.0
H  H12  1  0.93749663  0.22724254  0.83317252  1  0.617918  4.9e-05  0.304718  0.386165  -9e-06  0.932499  0.0
H  H13  1  0.06252077  0.77278030  0.16687516  1  0.618019  4.9e-05  0.304657  0.386095  -9e-06  0.932563  0.0
H  H14  1  0.96829674  0.45755896  0.05455159  1  0.628401  6e-06  0.316223  0.372557  2e-06  0.956646  0.0
H  H15  1  0.03173724  0.54280212  0.94488748  1  0.618167  6e-06  0.316633  0.372752  2e-06  0.956174  0.0
H  H16  1  0.99777670  0.32116436  0.00802977  1  0.641576  -7e-06  0.293402  0.387157  -2.2e-05  0.959173  0.0
H  H17  1  0.00199018  0.67878545  0.99212923  1  0.642523  -7e-06  0.293572  0.387427  -2.2e-05  0.958909  0.0
H  H18  1  0.44026311  0.22930496  0.21650860  1  0.130072  1.8e-05  0.110132  0.107932  1.1e-05  1.040868  0.0
H  H19  1  0.55973645  0.77070531  0.78348928  1  0.130168  1.8e-05  0.110103  0.107933  1.1e-05  1.040771  0.0
H  H20  1  0.73304984  0.11820162  0.30946987  1  0.056788  -0.001015  0.1092  0.107238  -0.000531  1.003756  0.0
H  H21  1  0.26695039  0.88181440  0.69052990  1  0.057027  -0.001015  0.109268  0.10728  -0.000531  1.00372  0.0
H  H22  1  0.12179460  0.52951775  0.75807011  1  0.640417  1.5e-05  0.289772  0.390183  3.3e-05  0.952142  0.0
H  H23  1  0.87817552  0.47052883  0.24194155  1  0.640763  1.5e-05  0.289777  0.390256  3.3e-05  0.952023  0.0
H  H24  1  0.23015011  0.56208065  0.87114426  1  0.607873  -6e-06  0.305939  0.377444  -0.0  0.96046  0.0
H  H25  1  0.77039606  0.43801663  0.12882497  1  0.60921  -6e-06  0.305725  0.377774  -0.0  0.960069  0.0
H  H26  1  0.97904483  0.01852712  0.21483816  1  0.124511  -0.002129  0.126681  0.10121  -0.001  0.981811  -0.002
H  H27  1  0.02095010  0.98148227  0.78516276  1  0.124583  -0.002128  0.126644  0.101136  -0.000999  0.981915  -0.002
C  C28  1  0.41054607  0.56518252  0.59456068  1  0.44504  -0.000491  0.116183  0.063397  7.2e-05  3.91205  -0.001
C  C29  1  0.58947043  0.43481194  0.40544925  1  0.445459  -0.000493  0.116172  0.063235  7.2e-05  3.912617  -0.001
C  C30  1  0.60223642  0.63437004  0.62910412  1  0.045545  0.002622  0.009625  -0.06255  0.001945  3.892749  0.002
C  C31  1  0.39778198  0.36562561  0.37091609  1  0.044243  0.002624  0.009604  -0.062706  0.001946  3.893535  0.002
C  C32  1  0.62839619  0.75115232  0.59301018  1  -0.063099  -0.003489  -0.056794  -0.048314  -0.002359  3.923976  -0.002
C  C33  1  0.37161741  0.24884314  0.40700239  1  -0.062155  -0.003489  -0.056761  -0.04815  -0.002359  3.924078  -0.002
C  C34  1  0.46708225  0.79588462  0.52728782  1  -0.019096  0.005671  -0.068037  -0.099146  0.00389  3.959348  0.004
C  C35  1  0.53293687  0.20410688  0.47271719  1  -0.019616  0.005672  -0.068027  -0.099334  0.003891  3.959381  0.004
C  C36  1  0.27942330  0.72289158  0.49760427  1  0.519453  -0.001631  0.063714  0.107851  -0.000261  3.907567  -0.001
C  C37  1  0.72060163  0.27709794  0.50239619  1  0.519599  -0.00163  0.063721  0.107965  -0.000259  3.907588  -0.001
C  C38  1  0.35730433  0.43240004  0.61725349  1  1.622722  -0.000987  0.214986  0.550526  0.000772  4.232556  -0.001
C  C39  1  0.64271268  0.56759831  0.38276034  1  1.622735  -0.000989  0.214728  0.550194  0.000772  4.232867  -0.001
C  C40  1  0.78161100  0.59325074  0.70382045  1  1.647042  0.001202  0.221273  0.611462  0.000937  4.222057  0.001
C  C41  1  0.21841015  0.40675457  0.29620713  1  1.648251  0.001201  0.221309  0.611641  0.000937  4.222483  0.001
C  C42  1  0.66264602  0.12800886  0.03134875  1  0.487987  0.000503  0.112564  0.058711  -8.5e-05  3.946089  0.001
C  C43  1  0.33732410  0.87198514  0.96864570  1  0.487907  0.000506  0.112587  0.058578  -8.2e-05  3.946436  0.001
C  C44  1  0.52328865  0.18892300  0.07789093  1  0.014414  -0.002894  0.014061  -0.0559  -0.002105  3.886693  -0.002
C  C45  1  0.47668163  0.81107285  0.92210152  1  0.013668  -0.002893  0.014119  -0.055848  -0.002105  3.88681  -0.002
C  C46  1  0.54864008  0.18356905  0.17937335  1  -0.078666  0.003362  -0.055542  -0.041244  0.00228  3.89642  0.002
C  C47  1  0.45134828  0.81643735  0.82062241  1  -0.078711  0.003361  -0.055628  -0.041419  0.00228  3.896531  0.002
C  C48  1  0.71135248  0.12270779  0.23059173  1  0.059764  -0.00568  -0.068397  -0.088892  -0.003932  3.941996  -0.005
C  C49  1  0.28863907  0.87729960  0.76940513  1  0.059406  -0.005679  -0.068475  -0.088895  -0.00393  3.942088  -0.005
C  C50  1  0.84734576  0.06705708  0.17950828  1  0.490888  0.00143  0.059492  0.106243  0.000131  3.908629  0.001
C  C51  1  0.15264231  0.93294650  0.82048867  1  0.490634  0.001429  0.059446  0.10622  0.00013  3.908721  0.001
C  C52  1  0.65418153  0.12270748  0.92265278  1  1.611343  0.001046  0.213524  0.547301  -0.000658  4.227516  0.001
C  C53  1  0.34580161  0.87726478  0.07734435  1  1.611279  0.001047  0.213612  0.547383  -0.000658  4.227346  0.001
C  C54  1  0.35398205  0.26582282  0.02750046  1  1.655132  -0.001337  0.23224  0.623421  -0.001035  4.218916  -0.001
C  C55  1  0.64594289  0.73415105  0.97249011  1  1.656088  -0.001336  0.232558  0.624147  -0.001035  4.218693  -0.001
N  N56  1  0.25532098  0.61129607  0.53138885  1  -1.218258  0.079608  -0.348595  -0.240435  0.05454  3.662036  0.069
N  N57  1  0.74470279  0.38869634  0.46861384  1  -1.218207  0.079634  -0.34855  -0.240471  0.054557  3.662402  0.069
N  N58  1  0.82071801  0.06999826  0.08234621  1  -1.22712  -0.079365  -0.348661  -0.231338  -0.054117  3.648886  -0.068
N  N59  1  0.17926036  0.93000056  0.91765085  1  -1.226799  -0.079336  -0.348559  -0.231236  -0.054098  3.648821  -0.068
O  O60  1  0.17567619  0.38288971  0.57334334  1  -1.105279  0.104474  -0.32047  -0.52272  0.068894  2.329292  0.095
O  O61  1  0.82434533  0.61710771  0.42667089  1  -1.105498  0.10452  -0.320275  -0.522413  0.068924  2.329202  0.095
O  O62  1  0.48737569  0.37708377  0.67328573  1  -1.176264  0.019356  -0.34917  -0.560942  0.012621  2.223978  0.016
O  O63  1  0.51264668  0.62291955  0.32673755  1  -1.176053  0.019372  -0.349082  -0.560861  0.012631  2.224114  0.016
O  O64  1  0.75861396  0.58807763  0.79060941  1  -1.205395  0.001771  -0.376554  -0.619086  0.001159  2.211043  0.001
O  O65  1  0.24143130  0.41189379  0.20942757  1  -1.205828  0.001774  -0.376617  -0.618896  0.00116  2.211086  0.001
O  O66  1  0.94536722  0.57683416  0.67417799  1  -1.168217  -0.000299  -0.307917  -0.570811  -0.00031  2.24134  0.001
O  O67  1  0.05467246  0.42319803  0.32586121  1  -1.168298  -0.000296  -0.307955  -0.57105  -0.000308  2.241516  0.001
O  O68  1  0.79615626  0.06347266  0.89190750  1  -1.114644  -0.100877  -0.315313  -0.530946  -0.066483  2.321614  -0.092
O  O69  1  0.20384220  0.93651300  0.10809284  1  -1.114546  -0.100853  -0.315433  -0.531038  -0.066468  2.321571  -0.092
O  O70  1  0.51695534  0.17696424  0.86910189  1  -1.178887  -0.017449  -0.349276  -0.558104  -0.011344  2.164358  -0.015
O  O71  1  0.48301588  0.82298586  0.13088178  1  -1.178808  -0.017446  -0.349211  -0.558145  -0.011342  2.164097  -0.015
O  O72  1  0.40894822  0.37874807  0.01565616  1  -1.223192  -0.00179  -0.369933  -0.65138  -0.001163  2.219248  -0.001
O  O73  1  0.59090280  0.62121796  0.98428918  1  -1.223768  -0.001789  -0.369969  -0.651738  -0.001162  2.219339  -0.001
O  O74  1  0.17108815  0.21700960  0.00837741  1  -1.17483  -0.00057  -0.300413  -0.57194  -0.000283  2.297238  -0.001
O  O75  1  0.82885603  0.78293750  0.99164396  1  -1.174978  -0.000567  -0.30065  -0.572309  -0.000282  2.297168  -0.001
O  O76  1  0.89895421  0.30184920  0.80003237  1  -1.252701  4.4e-05  -0.609747  -0.788234  2.2e-05  1.971396  0.0
O  O77  1  0.10107907  0.69815602  0.19999002  1  -1.252851  4.4e-05  -0.609625  -0.788085  2.2e-05  1.971255  0.0
O  O78  1  0.89090557  0.38496157  0.01086760  1  -1.300379  1e-06  -0.611237  -0.82473  2.3e-05  2.101143  0.0
O  O79  1  0.10875494  0.61489098  0.98932372  1  -1.291077  1e-06  -0.611583  -0.825173  2.3e-05  2.101276  0.0
O  O80  1  0.22393650  0.49788822  0.81436075  1  -1.274184  4.1e-05  -0.612736  -0.814331  9e-06  2.04303  0.0
O  O81  1  0.77604620  0.50209530  0.18563069  1  -1.275845  4.1e-05  -0.613039  -0.814931  1e-05  2.042628  0.0
