# generated using pymatgen
data_Zn2H21C41(NO7)2
_symmetry_space_group_name_H-M   'P 1'
_cell_length_a   11.04418720
_cell_length_b   13.82565318
_cell_length_c   26.27927973
_cell_angle_alpha   89.81945517
_cell_angle_beta   90.07967401
_cell_angle_gamma   88.94955524
_symmetry_Int_Tables_number   1
_chemical_formula_structural   Zn2H21C41(NO7)2
_chemical_formula_sum   'Zn4 H42 C82 N4 O28'
_cell_volume   4011.96624941
_cell_formula_units_Z   2
loop_
 _symmetry_equiv_pos_site_id
 _symmetry_equiv_pos_as_xyz
  1  'x, y, z'
loop_
 _atom_site_type_symbol
 _atom_site_label
 _atom_site_symmetry_multiplicity
 _atom_site_fract_x
 _atom_site_fract_y
 _atom_site_fract_z
 _atom_site_occupancy
 _atom_site_pbe_bader_charge
 _atom_site_pbe_bader_spin_density
 _atom_site_pbe_cm5_charge
 _atom_site_pbe_ddec_charge
 _atom_site_pbe_ddec_spin_density
 _atom_site_pbe_ddec_sum_bond_order
 _atom_site_pbe_magmom
Zn  Zn0  1  0.50336751  0.39941105  0.50314842  1  1.276744  0  0.673131  0.821355  0  2.43996  0
Zn  Zn1  1  0.49886941  0.60194226  0.50361495  1  1.284007  0  0.675311  0.81493  0  2.43455  0
Zn  Zn2  1  0.49109333  0.59971538  0.08323113  1  1.295919  0  0.673078  0.825206  0  2.432615  0
Zn  Zn3  1  0.49363415  0.39714478  0.08332234  1  1.283831  0  0.676333  0.810965  0  2.435172  0
H  H4  1  0.36346440  0.24907366  0.55646077  1  0.127828  0  0.128751  0.107071  0  0.974201  0
H  H5  1  0.26444837  0.09214313  0.58632920  1  0.10861  0  0.1222  0.148763  0  0.965248  0
H  H6  1  0.62373694  0.24889091  0.44382685  1  0.091336  0  0.124221  0.091013  0  1.021943  0
H  H7  1  0.63009353  0.75137861  0.44483640  1  0.130818  0  0.132681  0.111964  0  0.966163  0
H  H8  1  0.70670427  0.90893786  0.40526491  1  0.100512  0  0.124511  0.150829  0  0.960635  0
H  H9  1  0.35683857  0.75198738  0.55190157  1  0.118935  0  0.123694  0.092198  0  1.022741  0
H  H10  1  0.67526622  0.36746016  0.19842725  1  0.061295  0  0.095  0.103107  0  1.04736  0
H  H11  1  0.81476166  0.25717823  0.24458456  1  0.062514  0  0.095624  0.09121  0  1.002295  0
H  H12  1  0.69204439  0.37643128  0.38677875  1  0.035047  0  0.092738  0.098462  0  1.053626  0
H  H13  1  0.82654318  0.26396316  0.33967258  1  0.045635  0  0.098341  0.098229  0  0.998231  0
H  H14  1  0.50968859  0.66027314  0.66610422  1  0.091224  0  0.103507  0.11157  0  1.004185  0
H  H15  1  0.50902817  0.74809045  0.74917258  1  0.08737  0  0.110127  0.136374  0  0.978359  0
H  H16  1  0.50276564  0.35211257  0.66081718  1  0.054651  0  0.098802  0.090206  0  1.046634  0
H  H17  1  0.49993519  0.33831692  0.92054982  1  0.075452  0  0.103424  0.111626  0  1.004795  0
H  H18  1  0.50148171  0.25067851  0.83764642  1  0.077971  0  0.109571  0.133835  0  0.980704  0
H  H19  1  0.50703988  0.64652694  0.92604108  1  0.056455  0  0.09807  0.090238  0  1.047499  0
H  H20  1  0.76926278  0.64237241  0.56986546  1  0.119186  0  0.097324  0.110407  0  1.031692  0
H  H21  1  0.87320271  0.75688382  0.62588947  1  0.058197  0  0.097232  0.094764  0  0.998305  0
H  H22  1  0.21775913  0.62974393  0.58407492  1  0.043408  0  0.093363  0.101594  0  1.045639  0
H  H23  1  0.09862620  0.74768219  0.63504903  1  0.023591  0  0.094587  0.092028  0  1.00533  0
H  H24  1  0.36012094  0.75338176  0.02866153  1  0.150434  0  0.127943  0.107535  0  0.978124  0
H  H25  1  0.26084492  0.91252911  0.99882312  1  0.104347  0  0.121618  0.148383  0  0.965129  0
H  H26  1  0.63217388  0.74770082  0.13670938  1  0.056293  0  0.125934  0.092671  0  1.007192  0
H  H27  1  0.62299013  0.24447682  0.14108894  1  0.142305  0  0.130457  0.108318  0  0.98594  0
H  H28  1  0.71974215  0.08549369  0.17204687  1  0.124162  0  0.122823  0.147529  0  0.969171  0
H  H29  1  0.34381911  0.25089131  0.03642526  1  0.106592  0  0.12274  0.090024  0  1.028354  0
H  H30  1  0.77694369  0.35261671  0.01176162  1  0.07184  0  0.099028  0.114039  0  1.032632  0
H  H31  1  0.89415816  0.24423307  0.95561902  1  0.064627  0  0.098416  0.095742  0  0.996481  0
H  H32  1  0.22424161  0.37924651  0.00250440  1  0.040203  0  0.094493  0.10176  0  1.039552  0
H  H33  1  0.11888700  0.25958331  0.94909914  1  0.039957  0  0.096591  0.094861  0  1.002247  0
H  H34  1  0.22592660  0.84161824  0.57915180  1  0.630092  0  0.329602  0.359684  0  0.911467  0
H  H35  1  0.69849193  0.16139731  0.39163482  1  0.594797  0  0.331331  0.361637  0  0.909413  0
H  H36  1  0.50995993  0.75140541  0.88265598  1  0.62245  0  0.324779  0.352732  0  0.913  0
H  H37  1  0.50564953  0.24730695  0.70417375  1  0.569088  0  0.325495  0.354468  0  0.910826  0
H  H38  1  0.21751147  0.16355942  0.00671012  1  0.62453  0  0.32469  0.352822  0  0.92699  0
H  H39  1  0.76168808  0.83454731  0.16415828  1  0.609962  0  0.34343  0.376007  0  0.874108  0
H  H40  1  0.42449954  0.64452510  0.38044221  1  0.651605  0  0.304312  0.351343  0  0.973694  0
H  H41  1  0.41928857  0.64496053  0.20665885  1  0.660058  0  0.30394  0.350818  0  0.975414  0
H  H42  1  0.21364293  0.35481631  0.47838002  1  0.667002  0  0.302261  0.348551  0  0.983718  0
H  H43  1  0.80039302  0.34576074  0.48524032  1  0.629772  0  0.30027  0.34031  0  0.992286  0
H  H44  1  0.19148620  0.65752957  0.10160772  1  0.650324  0  0.305285  0.349889  0  0.968936  0
H  H45  1  0.77754445  0.63737703  0.10858653  1  0.639272  0  0.293649  0.332959  0  1.022037  0
C  C46  1  0.50526744  0.50786114  0.60251535  1  1.541458  0  0.216426  0.597293  0  4.155075  0
C  C47  1  0.26262862  0.50027957  0.51074603  1  1.503913  0  0.216838  0.615207  0  4.126906  0
C  C48  1  0.51196564  0.50094923  0.40319876  1  1.497645  0  0.218738  0.617869  0  4.12479  0
C  C49  1  0.74039637  0.49625487  0.50740333  1  1.545042  0  0.219861  0.617876  0  4.128565  0
C  C50  1  0.49913209  0.49016188  0.98418780  1  1.560467  0  0.215039  0.594239  0  4.157087  0
C  C51  1  0.25388819  0.50873981  0.07433563  1  1.547258  0  0.218948  0.618763  0  4.13302  0
C  C52  1  0.50364634  0.50109521  0.18325777  1  1.492549  0  0.218658  0.618032  0  4.120694  0
C  C53  1  0.73282997  0.49261498  0.07955625  1  1.504598  0  0.218181  0.613859  0  4.116858  0
C  C54  1  0.41927300  0.20440919  0.53122179  1  0.444379  0  0.059496  0.042579  0  3.867085  0
C  C55  1  0.41047613  0.10320508  0.53076584  1  0.041146  0  0.005291  0.064379  0  4.060526  0
C  C56  1  0.32709767  0.05225188  0.56177835  1  0.044175  0  -0.095433  -0.257649  0  3.93036  0
C  C57  1  0.56685158  0.20348763  0.46754401  1  0.455965  0  0.049119  0.042733  0  3.908065  0
C  C58  1  0.56729761  0.10262160  0.46383298  1  0.038531  0  -0.003245  -0.065915  0  4.024023  0
C  C59  1  0.64395192  0.04827577  0.42913930  1  0.443608  0  0.100808  0.294424  0  4.067678  0
C  C60  1  0.56857434  0.79620597  0.46756481  1  0.451711  0  0.065647  0.052157  0  3.850187  0
C  C61  1  0.56919618  0.89767933  0.46447139  1  0.047687  0  0.007316  0.065148  0  4.058131  0
C  C62  1  0.64637108  0.94876505  0.43082262  1  0.10029  0  -0.091752  -0.251966  0  3.921294  0
C  C63  1  0.41360148  0.79747321  0.52817566  1  0.438268  0  0.048713  0.041212  0  3.91001  0
C  C64  1  0.40579399  0.89846150  0.52854021  1  0.081926  0  -0.005346  -0.070128  0  4.033799  0
C  C65  1  0.32172419  0.95301788  0.55997109  1  0.482541  0  0.098288  0.294016  0  4.069461  0
C  C66  1  0.48843596  0.05147177  0.49679922  1  0.089566  0  0.010084  0.021798  0  3.961481  0
C  C67  1  0.48703605  0.94949247  0.49661586  1  -0.054253  0  0.010056  0.021708  0  3.964913  0
C  C68  1  0.52358901  0.50430533  0.23899034  1  0.006412  0  -0.03948  -0.235753  0  3.959625  0
C  C69  1  0.59789486  0.43343092  0.26564883  1  0.089218  0  -0.008969  0.07184  0  3.969909  0
C  C70  1  0.46815986  0.58015096  0.26601807  1  0.653428  0  0.090852  0.220862  0  4.045621  0
C  C71  1  0.67558396  0.36716072  0.23976920  1  -0.102173  0  -0.103778  -0.141343  0  3.99687  0
C  C72  1  0.75407059  0.30548377  0.26573824  1  0.00562  0  -0.107021  -0.096837  0  4.08602  0
C  C73  1  0.52857654  0.50524418  0.34732783  1  0.05313  0  -0.039392  -0.232563  0  3.965686  0
C  C74  1  0.47007244  0.58032537  0.32068618  1  0.478069  0  0.091204  0.220742  0  4.04857  0
C  C75  1  0.60131616  0.43465506  0.32019560  1  -0.086794  0  -0.009844  0.071161  0  3.973575  0
C  C76  1  0.68438376  0.37151846  0.34563509  1  0.031646  0  -0.107433  -0.1486  0  4.013101  0
C  C77  1  0.75947320  0.30828104  0.31920414  1  -0.092352  0  -0.109542  -0.109146  0  4.0891  0
C  C78  1  0.50770537  0.59187109  0.68681682  1  -0.023967  0  -0.082983  -0.144359  0  3.922098  0
C  C79  1  0.50709525  0.59116562  0.74024477  1  0.007506  0  -0.004294  0.101707  0  4.063814  0
C  C80  1  0.50806492  0.67863503  0.76893517  1  0.039041  0  -0.110685  -0.276943  0  3.972944  0
C  C81  1  0.50412581  0.41650275  0.68479055  1  -0.008988  0  -0.094287  -0.15476  0  3.98993  0
C  C82  1  0.50442556  0.41205045  0.73799565  1  -0.031452  0  -0.016873  -0.034408  0  4.049867  0
C  C83  1  0.50329616  0.32174088  0.76577026  1  0.390338  0  0.081433  0.27167  0  4.098085  0
C  C84  1  0.50164631  0.40678703  0.89990315  1  -0.027446  0  -0.083721  -0.145611  0  3.925549  0
C  C85  1  0.50322861  0.40759973  0.84650279  1  -0.012615  0  -0.004629  0.10173  0  4.066179  0
C  C86  1  0.50261792  0.32012349  0.81786395  1  0.049467  0  -0.110586  -0.275207  0  3.975097  0
C  C87  1  0.50552450  0.58216095  0.90205750  1  -0.0142  0  -0.095691  -0.158918  0  3.993221  0
C  C88  1  0.50636349  0.58670221  0.84883463  1  -0.010044  0  -0.016395  -0.033118  0  4.049095  0
C  C89  1  0.50788413  0.67699490  0.82103624  1  0.382809  0  0.080851  0.271161  0  4.097047  0
C  C90  1  0.50581956  0.50555815  0.65938833  1  0.001666  0  -0.021835  -0.022958  0  4.012149  0
C  C91  1  0.50556234  0.50019103  0.76641382  1  -0.061689  0  0.00035  0.005377  0  3.93605  0
C  C92  1  0.50250121  0.49302247  0.92738816  1  0.010736  0  -0.022784  -0.022649  0  4.0154  0
C  C93  1  0.50511276  0.49859726  0.82036817  1  0.09522  0  -9e-05  0.005588  0  3.936  0
C  C94  1  0.87329824  0.49556493  0.51574747  1  -0.014288  0  -0.036571  -0.224411  0  3.969287  0
C  C95  1  0.93334285  0.57054541  0.54347709  1  0.043113  0  -0.00857  0.068671  0  3.978783  0
C  C96  1  0.93949912  0.41663845  0.49685428  1  0.607364  0  0.086447  0.213762  0  4.047428  0
C  C97  1  0.86767234  0.64095262  0.57197191  1  -0.09253  0  -0.100304  -0.134105  0  3.980887  0
C  C98  1  0.92608540  0.70509672  0.60342702  1  -0.079617  0  -0.106405  -0.097133  0  4.079918  0
C  C99  1  0.13021573  0.49578522  0.51834589  1  0.047609  0  -0.041426  -0.237715  0  3.965651  0
C  C100  1  0.06923720  0.41792741  0.49663485  1  0.519377  0  0.090546  0.222887  0  4.04971  0
C  C101  1  0.06304252  0.56886052  0.54618328  1  -0.03214  0  -0.010015  0.073826  0  3.974786  0
C  C102  1  0.11995503  0.63476589  0.57950677  1  -0.022324  0  -0.109602  -0.155607  0  4.021886  0
C  C103  1  0.05318077  0.70095502  0.60784819  1  -0.03318  0  -0.112272  -0.112809  0  4.099683  0
C  C104  1  0.41962704  0.79671756  0.05224960  1  0.418386  0  0.057228  0.041026  0  3.865309  0
C  C105  1  0.41185710  0.89819716  0.05210199  1  0.069481  0  0.00496  0.064088  0  4.06654  0
C  C106  1  0.32466484  0.95100488  0.02270071  1  0.020845  0  -0.096592  -0.259746  0  3.933698  0
C  C107  1  0.57504321  0.79410670  0.11270083  1  0.508154  0  0.047529  0.035295  0  3.923574  0
C  C108  1  0.57902437  0.89506513  0.11462104  1  0.063789  0  -0.003791  -0.065563  0  4.029127  0
C  C109  1  0.66313241  0.94762215  0.14592951  1  0.448656  0  0.100281  0.289768  0  4.075776  0
C  C110  1  0.56282813  0.20129543  0.11776671  1  0.522117  0  0.067992  0.057152  0  3.843164  0
C  C111  1  0.56949242  0.09977774  0.11840466  1  0.019033  0  0.007227  0.064125  0  4.057177  0
C  C112  1  0.65625624  0.04695025  0.14803183  1  0.060767  0  -0.0919  -0.251148  0  3.926341  0
C  C113  1  0.40423645  0.20394765  0.05870564  1  0.425033  0  0.05013  0.044721  0  3.901374  0
C  C114  1  0.40107167  0.10300682  0.05647487  1  0.077349  0  -0.004497  -0.067452  0  4.022332  0
C  C115  1  0.31694387  0.05031381  0.02520227  1  0.522269  0  0.099819  0.297103  0  4.066449  0
C  C116  1  0.49347573  0.94808811  0.08438769  1  -0.01138  0  0.01045  0.023206  0  3.959652  0
C  C117  1  0.48753656  0.04998681  0.08626405  1  -0.050285  0  0.009379  0.019361  0  3.964136  0
C  C118  1  0.86461302  0.49968937  0.07010105  1  0.030475  0  -0.039236  -0.237158  0  3.951005  0
C  C119  1  0.93196714  0.42853705  0.04084366  1  -0.007879  0  -0.007912  0.072735  0  3.967602  0
C  C120  1  0.92419554  0.58008212  0.08998571  1  0.500261  0  0.090867  0.229885  0  4.030256  0
C  C121  1  0.87499850  0.35731904  0.01074951  1  0.010782  0  -0.10042  -0.136308  0  3.979417  0
C  C122  1  0.94112543  0.29629419  0.97930246  1  -0.051405  0  -0.104965  -0.093485  0  4.075148  0
C  C123  1  0.12093388  0.50938344  0.06648776  1  0.025818  0  -0.036641  -0.22373  0  3.976169  0
C  C124  1  0.05361694  0.58521430  0.08788824  1  0.561294  0  0.08714  0.213027  0  4.054957  0
C  C125  1  0.06137659  0.43418014  0.03890339  1  0.007009  0  -0.010086  0.069441  0  3.985551  0
C  C126  1  0.12672660  0.37090487  0.00601874  1  -0.020063  0  -0.106907  -0.151795  0  4.015742  0
C  C127  1  0.06794816  0.30370343  0.97641216  1  -0.087109  0  -0.112189  -0.117377  0  4.099202  0
N  N128  1  0.49573518  0.25164487  0.50075986  1  -1.243954  0  -0.323442  -0.188811  0  3.578744  0
N  N129  1  0.49362224  0.74919026  0.49872751  1  -1.243879  0  -0.323158  -0.185837  0  3.576665  0
N  N130  1  0.49765821  0.74750867  0.08222132  1  -1.237151  0  -0.325536  -0.192102  0  3.586961  0
N  N131  1  0.48393897  0.25032817  0.08822212  1  -1.258412  0  -0.320745  -0.180488  0  3.56828  0
O  O132  1  0.49335634  0.42729580  0.57944828  1  -1.166722  0  -0.322725  -0.556477  0  2.328386  0
O  O133  1  0.51642111  0.58999500  0.58112863  1  -1.161131  0  -0.31686  -0.544135  0  2.327768  0
O  O134  1  0.31683003  0.57988340  0.51513690  1  -1.167397  0  -0.306745  -0.530516  0  2.359695  0
O  O135  1  0.31835277  0.42039208  0.49793137  1  -1.169824  0  -0.318468  -0.566517  0  2.381461  0
O  O136  1  0.48181881  0.58092566  0.42605838  1  -1.16114  0  -0.316055  -0.565867  0  2.363032  0
O  O137  1  0.52383077  0.42085504  0.42641252  1  -1.167117  0  -0.307536  -0.531109  0  2.370323  0
O  O138  1  0.68976277  0.41242805  0.50692796  1  -1.167127  0  -0.317809  -0.562174  0  2.356871  0
O  O139  1  0.68354309  0.57538491  0.49969710  1  -1.171922  0  -0.304608  -0.529026  0  2.332508  0
O  O140  1  0.50747178  0.57076022  0.00760491  1  -1.175256  0  -0.323098  -0.556187  0  2.332164  0
O  O141  1  0.48784880  0.40781848  0.00528861  1  -1.170352  0  -0.315819  -0.542338  0  2.331376  0
O  O142  1  0.31002380  0.42876777  0.07993047  1  -1.171328  0  -0.304213  -0.52783  0  2.339188  0
O  O143  1  0.30480769  0.59227903  0.07722055  1  -1.171973  0  -0.317886  -0.568315  0  2.353942  0
O  O144  1  0.51282933  0.42161154  0.15951701  1  -1.162683  0  -0.303665  -0.525953  0  2.363259  0
O  O145  1  0.47380016  0.58199618  0.16084497  1  -1.166919  0  -0.320235  -0.568096  0  2.366532  0
O  O146  1  0.67568595  0.57204685  0.09286740  1  -1.170619  0  -0.323336  -0.571143  0  2.387343  0
O  O147  1  0.68000240  0.41254084  0.07596714  1  -1.160703  0  -0.300462  -0.518483  0  2.341842  0
O  O148  1  0.23788990  0.90870887  0.58928603  1  -1.140009  0  -0.339804  -0.430317  0  2.264739  0
O  O149  1  0.71688288  0.09232918  0.39503622  1  -1.095924  0  -0.336398  -0.424958  0  2.266093  0
O  O150  1  0.50874048  0.76350373  0.84613171  1  -1.142287  0  -0.35946  -0.438805  0  2.247867  0
O  O151  1  0.50253090  0.23526183  0.74067776  1  -1.092901  0  -0.359375  -0.439499  0  2.246339  0
O  O152  1  0.22989538  0.09583297  0.99707062  1  -1.137726  0  -0.339869  -0.429073  0  2.278063  0
O  O153  1  0.74959958  0.90181306  0.17430971  1  -1.106596  0  -0.334491  -0.417823  0  2.242454  0
O  O154  1  0.40993748  0.65411807  0.34289943  1  -1.148049  0  -0.348169  -0.41154  0  2.277685  0
O  O155  1  0.40731911  0.65443289  0.24430526  1  -1.158198  0  -0.348199  -0.410587  0  2.279629  0
O  O156  1  0.12429432  0.34242769  0.47381384  1  -1.164283  0  -0.349938  -0.414357  0  2.277833  0
O  O157  1  0.88854750  0.33771038  0.47648968  1  -1.13579  0  -0.355642  -0.420906  0  2.283607  0
O  O158  1  0.10278789  0.66384311  0.10915086  1  -1.147108  0  -0.352161  -0.41392  0  2.27514  0
O  O159  1  0.86649023  0.65440878  0.11304859  1  -1.153602  0  -0.360606  -0.437673  0  2.285465  0
