# generated using pymatgen
data_CuH9C9(NO)2
_symmetry_space_group_name_H-M   'P 1'
_cell_length_a   9.18211976
_cell_length_b   9.48027500
_cell_length_c   12.44978911
_cell_angle_alpha   67.55250209
_cell_angle_beta   89.22785575
_cell_angle_gamma   87.79782527
_symmetry_Int_Tables_number   1
_chemical_formula_structural   CuH9C9(NO)2
_chemical_formula_sum   'Cu4 H36 C36 N8 O8'
_cell_volume   1000.88603139
_cell_formula_units_Z   4
loop_
 _symmetry_equiv_pos_site_id
 _symmetry_equiv_pos_as_xyz
  1  'x, y, z'
loop_
 _atom_site_type_symbol
 _atom_site_label
 _atom_site_symmetry_multiplicity
 _atom_site_fract_x
 _atom_site_fract_y
 _atom_site_fract_z
 _atom_site_occupancy
 _atom_site_pbe_bader_spin_density
 _atom_site_pbe_cm5_charge
 _atom_site_pbe_ddec_charge
 _atom_site_pbe_ddec_spin_density
 _atom_site_pbe_ddec_sum_bond_order
 _atom_site_pbe_magmom
Cu  Cu0  1  0.44292235  0.88016322  0.93563954  1  0  0.509447  0.328067  0  2.738245  0
Cu  Cu1  1  0.05695590  0.18512786  0.93521096  1  0  0.508889  0.328158  0  2.736946  0
Cu  Cu2  1  0.55709625  0.11984236  0.06435198  1  0  0.50959  0.328226  0  2.738347  0
Cu  Cu3  1  0.94305150  0.81487701  0.06478799  1  0  0.508921  0.328146  0  2.73705  0
H  H4  1  0.61133433  0.15223291  0.83005636  1  0  0.110135  0.071614  0  1.045182  0
H  H5  1  0.88822100  0.01914021  0.82954713  1  0  0.110551  0.072634  0  1.043671  0
H  H6  1  0.38868765  0.84777665  0.16992893  1  0  0.110146  0.07159  0  1.045338  0
H  H7  1  0.11181762  0.98084263  0.17045587  1  0  0.110541  0.072672  0  1.043672  0
H  H8  1  0.31449311  0.94467715  0.69439797  1  0  0.117647  0.097828  0  1.017363  0
H  H9  1  0.18551469  0.36185611  0.69387040  1  0  0.117564  0.098219  0  1.0183  0
H  H10  1  0.68551310  0.05532775  0.30560323  1  0  0.11765  0.097941  0  1.017311  0
H  H11  1  0.81451072  0.63814063  0.30614710  1  0  0.11747  0.098055  0  1.018418  0
H  H12  1  0.35859611  0.12680808  0.49241574  1  0  0.112961  0.121563  0  1.002962  0
H  H13  1  0.14195776  0.38102001  0.49208305  1  0  0.113238  0.122134  0  1.002744  0
H  H14  1  0.64138254  0.87319130  0.50757360  1  0  0.112976  0.121552  0  1.002973  0
H  H15  1  0.85806221  0.61897758  0.50793355  1  0  0.113195  0.122097  0  1.002717  0
H  H16  1  0.66851793  0.34439045  0.63086501  1  0  0.113252  0.121162  0  0.995138  0
H  H17  1  0.83163976  0.02555022  0.63055462  1  0  0.113399  0.121798  0  0.994813  0
H  H18  1  0.33149536  0.65562481  0.36911452  1  0  0.113185  0.121073  0  0.995318  0
H  H19  1  0.16837790  0.97444246  0.36944520  1  0  0.113391  0.121732  0  0.995028  0
H  H20  1  0.37079887  0.52970924  0.19511529  1  0  0.108191  0.083543  0  0.95512  0
H  H21  1  0.12898612  0.27409526  0.19521285  1  0  0.108232  0.083279  0  0.955359  0
H  H22  1  0.62918061  0.47026993  0.80487372  1  0  0.108232  0.083509  0  0.955157  0
H  H23  1  0.87101249  0.72591613  0.80478179  1  0  0.108257  0.083239  0  0.955313  0
H  H24  1  0.54708528  0.57166748  0.23229558  1  0  0.100932  0.065699  0  1.030876  0
H  H25  1  0.95274205  0.19517801  0.23263295  1  0  0.101043  0.06582  0  1.031157  0
H  H26  1  0.45288444  0.42834407  0.76768723  1  0  0.100989  0.065729  0  1.030967  0
H  H27  1  0.04726903  0.80480264  0.76737881  1  0  0.101061  0.06578  0  1.031236  0
H  H28  1  0.57949750  0.47536184  0.07544255  1  0  0.097497  0.142677  0  1.001903  0
H  H29  1  0.92031123  0.44830932  0.07514643  1  0  0.096924  0.142056  0  1.001858  0
H  H30  1  0.42048605  0.52462136  0.92454932  1  0  0.097479  0.142669  0  1.001922  0
H  H31  1  0.07964468  0.55167019  0.92488191  1  0  0.096913  0.142015  0  1.001942  0
H  H32  1  0.47677527  0.31124549  0.15235540  1  0  0.078507  0.107557  0  1.055137  0
H  H33  1  0.02319048  0.53576420  0.15174345  1  0  0.078582  0.107762  0  1.055465  0
H  H34  1  0.52320416  0.68872080  0.84764646  1  0  0.07849  0.107547  0  1.055117  0
H  H35  1  0.97677099  0.46423137  0.84826777  1  0  0.078585  0.107791  0  1.055504  0
H  H36  1  0.65049006  0.33398092  0.20531551  1  0  0.091946  0.130975  0  1.018612  0
H  H37  1  0.84950089  0.46027114  0.20462486  1  0  0.091875  0.130918  0  1.018318  0
H  H38  1  0.34948796  0.66602980  0.79467733  1  0  0.091948  0.130933  0  1.018552  0
H  H39  1  0.15047171  0.53969372  0.79540914  1  0  0.091928  0.130987  0  1.018423  0
C  C40  1  0.12471464  0.82532222  0.99855865  1  0  -0.064522  -0.152785  0  3.949449  0
C  C41  1  0.37535168  0.17629764  0.99810864  1  0  -0.064255  -0.151541  0  3.950932  0
C  C42  1  0.87529987  0.17467058  0.00146268  1  0  -0.064494  -0.152812  0  3.949456  0
C  C43  1  0.62466261  0.82370634  0.00188328  1  0  -0.064223  -0.151452  0  3.950836  0
C  C44  1  0.55853790  0.15089369  0.75241550  1  0  0.044031  0.085268  0  3.933714  0
C  C45  1  0.94131828  0.09785126  0.75198151  1  0  0.045138  0.086456  0  3.93488  0
C  C46  1  0.44147196  0.84911839  0.24757058  1  0  0.043908  0.085057  0  3.933685  0
C  C47  1  0.05870341  0.90214867  0.24801909  1  0  0.04504  0.086261  0  3.934584  0
C  C48  1  0.51761577  0.25081056  0.54622486  1  0  0.00176  -0.000466  0  3.981223  0
C  C49  1  0.98279849  0.20330042  0.54590847  1  0  0.001105  -0.001558  0  3.980889  0
C  C50  1  0.48237672  0.74920244  0.45375900  1  0  0.001623  -0.000629  0  3.981358  0
C  C51  1  0.01722927  0.79669951  0.45410245  1  0  0.001109  -0.00132  0  3.980753  0
C  C52  1  0.39282951  0.03415611  0.67748901  1  0  0.046211  0.089974  0  3.902297  0
C  C53  1  0.10724152  0.28922616  0.67703997  1  0  0.04681  0.090004  0  3.900906  0
C  C54  1  0.60718142  0.96585114  0.32250192  1  0  0.046148  0.089639  0  3.902332  0
C  C55  1  0.89279165  0.71076810  0.32297667  1  0  0.046776  0.090143  0  3.90126  0
C  C56  1  0.41749860  0.13645009  0.56440088  1  0  -0.073332  -0.13379  0  3.939998  0
C  C57  1  0.08292473  0.29951709  0.56405552  1  0  -0.073335  -0.133601  0  3.939185  0
C  C58  1  0.58249742  0.86355079  0.43558827  1  0  -0.073257  -0.133538  0  3.940169  0
C  C59  1  0.91711299  0.70047309  0.43596067  1  0  -0.073174  -0.133608  0  3.939214  0
C  C60  1  0.58963267  0.25689144  0.64258072  1  0  -0.074903  -0.134808  0  3.95732  0
C  C61  1  0.91053474  0.10129803  0.64224819  1  0  -0.075675  -0.136789  0  3.960156  0
C  C62  1  0.41037101  0.74311743  0.35740053  1  0  -0.074668  -0.134422  0  3.957214  0
C  C63  1  0.08947655  0.89870767  0.35776024  1  0  -0.07564  -0.136766  0  3.960053  0
C  C64  1  0.55214518  0.36702197  0.42939756  1  0  0.237052  0.513076  0  4.112917  0
C  C65  1  0.94801922  0.20374832  0.42915524  1  0  0.238448  0.514548  0  4.111852  0
C  C66  1  0.44782227  0.63299041  0.57058668  1  0  0.237075  0.513107  0  4.113328  0
C  C67  1  0.05199934  0.79627024  0.57084953  1  0  0.238371  0.514293  0  4.111236  0
C  C68  1  0.47858075  0.48083326  0.22990030  1  0  -0.068485  0.08275  0  3.861482  0
C  C69  1  0.02135265  0.28845880  0.22989985  1  0  -0.068675  0.082598  0  3.86331  0
C  C70  1  0.52139255  0.51915327  0.77009839  1  0  -0.068612  0.082729  0  3.861576  0
C  C71  1  0.97864816  0.71154613  0.77010013  1  0  -0.06871  0.082762  0  3.863302  0
C  C72  1  0.55016191  0.39446002  0.16221668  1  0  -0.251322  -0.40542  0  3.948915  0
C  C73  1  0.94977570  0.44262368  0.16183086  1  0  -0.250576  -0.404502  0  3.948681  0
C  C74  1  0.44980616  0.60552572  0.83777819  1  0  -0.251239  -0.4053  0  3.948959  0
C  C75  1  0.05019112  0.55736058  0.83819284  1  0  -0.250651  -0.404663  0  3.948705  0
N  N76  1  0.24686315  0.83292017  0.96716128  1  0  -0.452053  -0.314475  0  3.682626  0
N  N77  1  0.25306839  0.20047694  0.96686526  1  0  -0.452387  -0.31533  0  3.683789  0
N  N78  1  0.75313936  0.16710493  0.03283112  1  0  -0.4521  -0.314468  0  3.682778  0
N  N79  1  0.74695090  0.79954477  0.03312042  1  0  -0.452367  -0.315285  0  3.683852  0
N  N80  1  0.46151180  0.04079830  0.77037524  1  0  -0.343751  -0.187165  0  3.587721  0
N  N81  1  0.03813914  0.19017013  0.76986104  1  0  -0.344144  -0.188107  0  3.589071  0
N  N82  1  0.53849712  0.95920975  0.22961144  1  0  -0.34376  -0.187057  0  3.587325  0
N  N83  1  0.96188171  0.80981690  0.23014559  1  0  -0.343965  -0.187934  0  3.588758  0
O  O84  1  0.45092010  0.37583773  0.34937435  1  0  -0.166746  -0.241345  0  2.477761  0
O  O85  1  0.04940817  0.27406275  0.34930143  1  0  -0.167013  -0.241334  0  2.478657  0
O  O86  1  0.54904939  0.62414153  0.65061903  1  0  -0.166819  -0.241488  0  2.478077  0
O  O87  1  0.95061019  0.72593480  0.65070266  1  0  -0.167032  -0.241293  0  2.478648  0
O  O88  1  0.65940667  0.44628228  0.41081169  1  0  -0.274972  -0.472632  0  2.172433  0
O  O89  1  0.84028447  0.14369861  0.41059032  1  0  -0.275349  -0.472626  0  2.170705  0
O  O90  1  0.34054358  0.55374560  0.58917742  1  0  -0.274871  -0.472587  0  2.172547  0
O  O91  1  0.15971721  0.85634922  0.58942384  1  0  -0.27529  -0.472512  0  2.170022  0
