# generated using pymatgen
data_H16PbC22S(NO2)3
_symmetry_space_group_name_H-M   'P 1'
_cell_length_a   9.97568960
_cell_length_b   10.11178387
_cell_length_c   10.86417343
_cell_angle_alpha   90.26395351
_cell_angle_beta   87.99840490
_cell_angle_gamma   67.39772212
_symmetry_Int_Tables_number   1
_chemical_formula_structural   H16PbC22S(NO2)3
_chemical_formula_sum   'H32 Pb2 C44 S2 N6 O12'
_cell_volume   1010.91071619
_cell_formula_units_Z   2
loop_
 _symmetry_equiv_pos_site_id
 _symmetry_equiv_pos_as_xyz
  1  'x, y, z'
loop_
 _atom_site_type_symbol
 _atom_site_label
 _atom_site_symmetry_multiplicity
 _atom_site_fract_x
 _atom_site_fract_y
 _atom_site_fract_z
 _atom_site_occupancy
 _atom_site_hle17_bader_spin_density
 _atom_site_hle17_ddec_charge
 _atom_site_hle17_ddec_spin_density
 _atom_site_hle17_ddec_sum_bond_order
 _atom_site_hle17_magmom
 _atom_site_hse06_10hf_bader_spin_density
 _atom_site_hse06_10hf_ddec_charge
 _atom_site_hse06_10hf_ddec_spin_density
 _atom_site_hse06_10hf_ddec_sum_bond_order
 _atom_site_hse06_10hf_magmom
 _atom_site_hse06_bader_spin_density
 _atom_site_hse06_ddec_charge
 _atom_site_hse06_ddec_spin_density
 _atom_site_hse06_ddec_sum_bond_order
 _atom_site_hse06_magmom
 _atom_site_pbe_bader_spin_density
 _atom_site_pbe_cm5_charge
 _atom_site_pbe_ddec_charge
 _atom_site_pbe_ddec_spin_density
 _atom_site_pbe_ddec_sum_bond_order
 _atom_site_pbe_magmom
H  H0  1  0.83763087  0.90827625  0.16848004  1  0  0.119119  0  0.937488  0  0  0.127706  0  0.997933  0  0  0.131664  0  0.996505  0  0  0.104536  0.124968  0  0.999216  0
H  H1  1  0.16236395  0.09168041  0.83153452  1  0  0.119178  0  0.93751  0  0  0.127662  0  0.998034  0  0  0.131618  0  0.99661  0  0  0.10462  0.124927  0  0.999306  0
H  H2  1  0.97779733  0.78434339  0.34944220  1  0  0.093725  0  0.983867  0  0  0.101546  0  1.050877  0  0  0.103701  0  1.050695  0  0  0.099947  0.100037  0  1.051005  0
H  H3  1  0.02221929  0.21563690  0.65056880  1  0  0.093773  0  0.983722  0  0  0.101568  0  1.050756  0  0  0.103725  0  1.050582  0  0  0.099977  0.100059  0  1.050886  0
H  H4  1  0.36669406  0.60882898  0.11584749  1  0  0.117607  0  0.935349  0  0  0.125419  0  1.001905  0  0  0.129601  0  0.997362  0  0  0.112333  0.122525  0  1.005004  0
H  H5  1  0.63330808  0.39117560  0.88414713  1  0  0.11765  0  0.93533  0  0  0.125446  0  1.00189  0  0  0.129629  0  0.997351  0  0  0.112367  0.12255  0  1.004991  0
H  H6  1  0.56817315  0.73239974  0.87435629  1  0  0.082242  0  0.97023  0  0  0.091129  0  1.034039  0  0  0.093675  0  1.031355  0  0  0.116192  0.088991  0  1.036373  0
H  H7  1  0.43177667  0.26762017  0.12566541  1  0  0.082253  0  0.97023  0  0  0.091115  0  1.034034  0  0  0.093662  0  1.031351  0  0  0.116136  0.088991  0  1.036329  0
H  H8  1  0.70324196  0.87862066  0.95549520  1  0  0.110822  0  0.95982  0  0  0.118305  0  1.023101  0  0  0.121618  0  1.022256  0  0  0.106807  0.115507  0  1.024341  0
H  H9  1  0.29680782  0.12133728  0.04446353  1  0  0.11082  0  0.959579  0  0  0.118299  0  1.022886  0  0  0.121608  0  1.022044  0  0  0.10685  0.115501  0  1.024126  0
H  H10  1  0.66807647  0.11059817  0.85353053  1  0  0.096903  0  0.953053  0  0  0.108806  0  1.011354  0  0  0.110608  0  1.011004  0  0  0.106402  0.107191  0  1.011844  0
H  H11  1  0.33196178  0.88936853  0.14643948  1  0  0.096832  0  0.953209  0  0  0.108838  0  1.011414  0  0  0.110554  0  1.011166  0  0  0.106391  0.10723  0  1.011893  0
H  H12  1  0.49989797  0.19055587  0.68173013  1  0  0.124208  0  0.965043  0  0  0.13354  0  1.027693  0  0  0.136922  0  1.025933  0  0  0.110866  0.130804  0  1.029606  0
H  H13  1  0.50003771  0.80947933  0.31830840  1  0  0.124241  0  0.964869  0  0  0.133546  0  1.027582  0  0  0.136935  0  1.025807  0  0  0.110766  0.130767  0  1.029553  0
H  H14  1  0.33868916  0.25753172  0.56157388  1  0  0.117631  0  0.958731  0  0  0.124862  0  1.024589  0  0  0.128626  0  1.0224  0  0  0.112287  0.121974  0  1.026292  0
H  H15  1  0.66133268  0.74246626  0.43840829  1  0  0.117549  0  0.95885  0  0  0.124828  0  1.024664  0  0  0.128568  0  1.022505  0  0  0.112305  0.121939  0  1.026368  0
H  H16  1  0.16068581  0.31812552  0.39951055  1  0  0.105057  0  0.952729  0  0  0.116882  0  1.010225  0  0  0.119508  0  1.008237  0  0  0.110838  0.114872  0  1.011984  0
H  H17  1  0.83930821  0.68188676  0.60049528  1  0  0.105008  0  0.952667  0  0  0.116813  0  1.01021  0  0  0.11944  0  1.008221  0  0  0.110811  0.114802  0  1.011964  0
H  H18  1  0.04982642  0.13994281  0.34093856  1  0  0.115901  0  0.938339  0  0  0.128898  0  0.990357  0  0  0.132011  0  0.989812  0  0  0.114009  0.126664  0  0.990622  0
H  H19  1  0.95014818  0.86008041  0.65908244  1  0  0.115884  0  0.938467  0  0  0.128888  0  0.990445  0  0  0.132001  0  0.989903  0  0  0.114013  0.126655  0  0.990709  0
H  H20  1  0.13988850  0.90178093  0.44434621  1  0  0.071262  0  0.97422  0  0  0.077588  0  1.04529  0  0  0.079421  0  1.044265  0  0  0.110612  0.075878  0  1.047021  0
H  H21  1  0.86014799  0.09820815  0.55561630  1  0  0.07134  0  0.973879  0  0  0.077607  0  1.045042  0  0  0.079451  0  1.044022  0  0  0.110546  0.075883  0  1.046805  0
H  H22  1  0.01802109  0.86640265  0.87282316  1  0  0.381675  0  0.905308  0  0  0.352615  0  0.982704  0  0  0.364817  0  0.969831  0  0  0.298995  0.344135  0  0.991466  0
H  H23  1  0.98195834  0.13358811  0.12718325  1  0  0.381845  0  0.905245  0  0  0.352785  0  0.982599  0  0  0.364988  0  0.969724  0  0  0.299067  0.344304  0  0.991362  0
H  H24  1  0.58661646  0.64431932  0.13139147  1  0  0.071858  0  0.939277  0  0  0.081521  0  1.002943  0  0  0.083831  0  1.000807  0  0  0.110471  0.080133  0  1.004182  0
H  H25  1  0.41337511  0.35572962  0.86862424  1  0  0.071886  0  0.9393  0  0  0.081614  0  1.002867  0  0  0.083923  0  1.000738  0  0  0.110504  0.080225  0  1.00411  0
H  H26  1  0.75394125  0.61008390  0.95075021  1  0  0.095811  0  0.985297  0  0  0.108645  0  1.044931  0  0  0.111419  0  1.044018  0  0  0.104332  0.106667  0  1.045756  0
H  H27  1  0.24604659  0.38992625  0.04925764  1  0  0.095873  0  0.98523  0  0  0.108656  0  1.044924  0  0  0.111431  0  1.044008  0  0  0.104362  0.106667  0  1.045777  0
H  H28  1  0.11002394  0.42237981  0.19344451  1  0  0.103187  0  0.969944  0  0  0.112055  0  1.035557  0  0  0.115306  0  1.034307  0  0  0.102691  0.109689  0  1.036714  0
H  H29  1  0.88996917  0.57761195  0.80655507  1  0  0.103229  0  0.969975  0  0  0.112067  0  1.035613  0  0  0.115332  0  1.03434  0  0  0.102697  0.109699  0  1.036773  0
H  H30  1  0.92613211  0.46389413  0.36359220  1  0  0.078306  0  0.944987  0  0  0.088065  0  1.006295  0  0  0.09078  0  1.00392  0  0  0.1106  0.086178  0  1.008005  0
H  H31  1  0.07386435  0.53608151  0.63640558  1  0  0.078309  0  0.94485  0  0  0.088126  0  1.006102  0  0  0.090811  0  1.003761  0  0  0.110652  0.08624  0  1.007811  0
Pb  Pb32  1  0.38304543  0.68406391  0.65015434  1  0  1.284273  0  1.3771  0  0  1.086636  0  1.766747  0  0  1.146179  0  1.727207  0  0  0.64771  1.043089  0  1.794604  0
Pb  Pb33  1  0.61699401  0.31595042  0.34983642  1  0  1.284338  0  1.377035  0  0  1.086672  0  1.76664  0  0  1.146196  0  1.727142  0  0  0.64772  1.043126  0  1.794495  0
C  C34  1  0.25088986  0.72899553  0.90514194  1  0  0.646102  0  3.90734  0  0  0.59438  0  4.194461  0  0  0.63006  0  4.18884  0  0  0.204713  0.569864  0  4.197999  0
C  C35  1  0.74908944  0.27100345  0.09484599  1  0  0.645993  0  3.907603  0  0  0.594269  0  4.194756  0  0  0.629946  0  4.189127  0  0  0.204627  0.569751  0  4.198295  0
C  C36  1  0.17472561  0.74534058  0.02758116  1  0  -0.210408  0  3.760064  0  0  -0.191401  0  4.003806  0  0  -0.205779  0  4.024864  0  0  -0.036862  -0.181991  0  3.989541  0
C  C37  1  0.82526900  0.25465760  0.97241740  1  0  -0.210467  0  3.760002  0  0  -0.191531  0  4.003958  0  0  -0.205904  0  4.025016  0  0  -0.036899  -0.182117  0  3.989691  0
C  C38  1  0.02307161  0.82724462  0.04183093  1  0  0.354126  0  3.788331  0  0  0.333476  0  4.055106  0  0  0.351319  0  4.066482  0  0  0.096617  0.321344  0  4.047446  0
C  C39  1  0.97692253  0.17274950  0.95817872  1  0  0.354431  0  3.788066  0  0  0.333615  0  4.055049  0  0  0.351458  0  4.066413  0  0  0.096694  0.321481  0  4.047389  0
C  C40  1  0.95331582  0.84254965  0.15865210  1  0  -0.180976  0  3.698694  0  0  -0.202163  0  3.9631  0  0  -0.210138  0  3.979757  0  0  -0.104579  -0.197004  0  3.951925  0
C  C41  1  0.04668463  0.15742841  0.84135844  1  0  -0.181142  0  3.698725  0  0  -0.202159  0  3.963152  0  0  -0.210132  0  3.979802  0  0  -0.10468  -0.196995  0  3.951977  0
C  C42  1  0.03143342  0.77490648  0.25898668  1  0  -0.02957  0  3.765709  0  0  -0.05736  0  4.018314  0  0  -0.051518  0  4.036615  0  0  -0.08417  -0.060917  0  4.005421  0
C  C43  1  0.96857640  0.22507585  0.74102081  1  0  -0.02961  0  3.765735  0  0  -0.057402  0  4.018309  0  0  -0.051578  0  4.036639  0  0  -0.084251  -0.060963  0  4.005415  0
C  C44  1  0.18043741  0.69046218  0.24424923  1  0  -0.162869  0  3.778522  0  0  -0.137286  0  4.033106  0  0  -0.148959  0  4.055728  0  0  -0.037612  -0.129231  0  4.017484  0
C  C45  1  0.81957586  0.30953184  0.75575161  1  0  -0.1628  0  3.778737  0  0  -0.137222  0  4.033307  0  0  -0.148891  0  4.055931  0  0  -0.037545  -0.129157  0  4.017672  0
C  C46  1  0.25147274  0.67592512  0.12936941  1  0  -0.037782  0  3.734819  0  0  -0.075768  0  3.991085  0  0  -0.068349  0  4.006335  0  0  -0.076653  -0.079861  0  3.979985  0
C  C47  1  0.74852949  0.32407412  0.87062617  1  0  -0.037871  0  3.73492  0  0  -0.075797  0  3.991208  0  0  -0.068388  0  4.006474  0  0  -0.076714  -0.079894  0  3.98011  0
C  C48  1  0.55748799  0.83444604  0.83474582  1  0  0.129866  0  3.722077  0  0  0.098885  0  3.973435  0  0  0.105592  0  3.992133  0  0  0.048885  0.094479  0  3.961113  0
C  C49  1  0.44248480  0.16556408  0.16526428  1  0  0.129781  0  3.721868  0  0  0.098876  0  3.973174  0  0  0.105578  0  3.991869  0  0  0.048927  0.094477  0  3.960858  0
C  C50  1  0.63018650  0.91626242  0.87988521  1  0  -0.11647  0  3.731117  0  0  -0.13009  0  3.983809  0  0  -0.136595  0  4.004963  0  0  -0.083111  -0.126213  0  3.968565  0
C  C51  1  0.36982416  0.08372059  0.12010199  1  0  -0.116365  0  3.730929  0  0  -0.130029  0  3.983675  0  0  -0.136523  0  4.004804  0  0  -0.08314  -0.126156  0  3.968433  0
C  C52  1  0.60994899  0.04532907  0.82296783  1  0  0.005487  0  3.707167  0  0  -0.010686  0  3.95375  0  0  -0.00753  0  3.972923  0  0  -0.06372  -0.011715  0  3.939322  0
C  C53  1  0.39005852  0.95465936  0.17702310  1  0  0.00547  0  3.707433  0  0  -0.010756  0  3.953976  0  0  -0.007542  0  3.973181  0  0  -0.063689  -0.011785  0  3.939539  0
C  C54  1  0.51560701  0.08975273  0.72622627  1  0  -0.143536  0  3.685847  0  0  -0.164734  0  3.934977  0  0  -0.17198  0  3.957211  0  0  -0.077692  -0.160498  0  3.920799  0
C  C55  1  0.48437090  0.91025963  0.27378736  1  0  -0.143552  0  3.685856  0  0  -0.164748  0  3.934973  0  0  -0.171987  0  3.957184  0  0  -0.077642  -0.160482  0  3.920817  0
C  C56  1  0.44404037  0.00250351  0.68723319  1  0  0.16917  0  3.768746  0  0  0.166105  0  4.011008  0  0  0.172528  0  4.032428  0  0  0.121036  0.161951  0  3.99679  0
C  C57  1  0.55594119  0.99750984  0.31277573  1  0  0.169117  0  3.768501  0  0  0.166074  0  4.010766  0  0  0.172494  0  4.032192  0  0  0.121065  0.161924  0  3.996539  0
C  C58  1  0.33799790  0.04461618  0.58788216  1  0  0.170387  0  3.767261  0  0  0.16515  0  4.012606  0  0  0.17167  0  4.033641  0  0  0.119857  0.160691  0  3.998244  0
C  C59  1  0.66200768  0.95538731  0.41211053  1  0  0.170406  0  3.76708  0  0  0.165178  0  4.01242  0  0  0.171701  0  4.033451  0  0  0.119828  0.160719  0  3.998056  0
C  C60  1  0.29539919  0.17899541  0.53270304  1  0  -0.134611  0  3.665023  0  0  -0.154414  0  3.915815  0  0  -0.161183  0  3.93642  0  0  -0.07482  -0.148571  0  3.900937  0
C  C61  1  0.70461329  0.82100590  0.46728673  1  0  -0.134519  0  3.665085  0  0  -0.154368  0  3.91587  0  0  -0.161117  0  3.936487  0  0  -0.0748  -0.14852  0  3.900985  0
C  C62  1  0.19214590  0.21416651  0.44253408  1  0  0.010342  0  3.68901  0  0  -0.009467  0  3.939948  0  0  -0.005929  0  3.957661  0  0  -0.061069  -0.011649  0  3.927208  0
C  C63  1  0.80785835  0.78584029  0.55746414  1  0  0.010201  0  3.689054  0  0  -0.009612  0  3.940009  0  0  -0.006071  0  3.957709  0  0  -0.061192  -0.01179  0  3.927266  0
C  C64  1  0.13275095  0.11553120  0.40940961  1  0  -0.106374  0  3.701319  0  0  -0.117726  0  3.950741  0  0  -0.123832  0  3.97088  0  0  -0.07612  -0.113124  0  3.936545  0
C  C65  1  0.86724657  0.88447991  0.59059060  1  0  -0.106278  0  3.701598  0  0  -0.117589  0  3.950918  0  0  -0.123695  0  3.971062  0  0  -0.076042  -0.112988  0  3.936717  0
C  C66  1  0.18156768  0.98355323  0.46738790  1  0  0.127703  0  3.72843  0  0  0.099306  0  3.980493  0  0  0.105754  0  3.999828  0  0  0.049023  0.094202  0  3.968898  0
C  C67  1  0.81845407  0.01644252  0.53258968  1  0  0.127579  0  3.728007  0  0  0.0992  0  3.980066  0  0  0.10563  0  3.999415  0  0  0.048962  0.0941  0  3.968469  0
C  C68  1  0.70380262  0.59739840  0.14250351  1  0  0.123654  0  3.758653  0  0  0.098132  0  4.018543  0  0  0.104404  0  4.036364  0  0  0.039861  0.093789  0  4.00658  0
C  C69  1  0.29618971  0.40262576  0.85750687  1  0  0.123624  0  3.758651  0  0  0.098059  0  4.018573  0  0  0.104325  0  4.036392  0  0  0.039819  0.093714  0  4.006613  0
C  C70  1  0.79819643  0.57846288  0.04081725  1  0  -0.16134  0  3.718906  0  0  -0.180073  0  3.964136  0  0  -0.187343  0  3.986183  0  0  -0.08692  -0.175006  0  3.949038  0
C  C71  1  0.20179344  0.42154723  0.95918871  1  0  -0.161483  0  3.71876  0  0  -0.18014  0  3.964113  0  0  -0.187404  0  3.986159  0  0  -0.086989  -0.175075  0  3.949013  0
C  C72  1  0.94873453  0.51274458  0.05387160  1  0  0.090099  0  3.755074  0  0  0.102487  0  3.984012  0  0  0.105542  0  4.006986  0  0  0.007753  0.100473  0  3.968595  0
C  C73  1  0.05125548  0.48726012  0.94613164  1  0  0.090356  0  3.754815  0  0  0.10256  0  3.983921  0  0  0.105607  0  4.006897  0  0  0.007817  0.100549  0  3.968502  0
C  C74  1  0.99533569  0.47198597  0.17342367  1  0  -0.154149  0  3.693614  0  0  -0.174221  0  3.942963  0  0  -0.180938  0  3.964348  0  0  -0.08619  -0.169796  0  3.928769  0
C  C75  1  0.00465660  0.52801550  0.82657861  1  0  -0.154434  0  3.693745  0  0  -0.174452  0  3.943199  0  0  -0.181174  0  3.964553  0  0  -0.086304  -0.170028  0  3.929009  0
C  C76  1  0.89267086  0.49614663  0.27007511  1  0  0.116065  0  3.739494  0  0  0.091459  0  3.998479  0  0  0.097224  0  4.01617  0  0  0.038584  0.087665  0  3.986513  0
C  C77  1  0.10732394  0.50384843  0.72992807  1  0  0.116258  0  3.739517  0  0  0.091609  0  3.998499  0  0  0.097397  0  4.016197  0  0  0.038612  0.087815  0  3.986531  0
S  S78  1  0.27841278  0.59530066  0.37026922  1  0  1.276034  0  5.691187  0  0  1.187359  0  6.191292  0  0  1.235603  0  6.171165  0  0  0.502246  1.15355  0  6.204296  0
S  S79  1  0.72161340  0.40469880  0.62973214  1  0  1.275782  0  5.691162  0  0  1.187127  0  6.191251  0  0  1.235362  0  6.171137  0  0  0.502234  1.153311  0  6.204255  0
N  N80  1  0.46784581  0.87555438  0.74091402  1  0  -0.362115  0  3.215278  0  0  -0.290739  0  3.459583  0  0  -0.310543  0  3.481461  0  0  -0.296462  -0.277387  0  3.444998  0
N  N81  1  0.53212643  0.12446222  0.25909789  1  0  -0.362018  0  3.215046  0  0  -0.290713  0  3.459387  0  0  -0.310505  0  3.481256  0  0  -0.296487  -0.277363  0  3.444799  0
N  N82  1  0.28124898  0.94859864  0.55402938  1  0  -0.373115  0  3.178485  0  0  -0.304872  0  3.427109  0  0  -0.324105  0  3.448098  0  0  -0.296477  -0.292249  0  3.413801  0
N  N83  1  0.71877233  0.05139820  0.44594913  1  0  -0.37303  0  3.178343  0  0  -0.304792  0  3.426943  0  0  -0.324025  0  3.447937  0  0  -0.296333  -0.292168  0  3.413629  0
N  N84  1  0.74840506  0.55652836  0.25651310  1  0  -0.341135  0  3.108924  0  0  -0.295669  0  3.37763  0  0  -0.309199  0  3.394865  0  0  -0.318967  -0.285989  0  3.366724  0
N  N85  1  0.25158852  0.44348503  0.74349457  1  0  -0.34121  0  3.108979  0  0  -0.295746  0  3.377737  0  0  -0.309274  0  3.394962  0  0  -0.318986  -0.286068  0  3.366837  0
O  O86  1  0.38525565  0.65324552  0.89200491  1  0  -0.617632  0  1.944998  0  0  -0.556996  0  2.174478  0  0  -0.585381  0  2.16805  0  0  -0.298399  -0.536969  0  2.17822  0
O  O87  1  0.61473414  0.34678790  0.10798612  1  0  -0.617604  0  1.945225  0  0  -0.556846  0  2.174566  0  0  -0.58525  0  2.168188  0  0  -0.29831  -0.536825  0  2.178308  0
O  O88  1  0.17370951  0.79386630  0.81297562  1  0  -0.657547  0  1.975462  0  0  -0.586134  0  2.202273  0  0  -0.615678  0  2.194778  0  0  -0.306362  -0.565365  0  2.207265  0
O  O89  1  0.82625437  0.20608529  0.18700761  1  0  -0.657524  0  1.975581  0  0  -0.586149  0  2.202533  0  0  -0.615694  0  2.195038  0  0  -0.306313  -0.565375  0  2.20752  0
O  O90  1  0.94393346  0.88993891  0.94535789  1  0  -0.511608  0  2.119418  0  0  -0.461159  0  2.339697  0  0  -0.481917  0  2.331669  0  0  -0.340799  -0.446121  0  2.344752  0
O  O91  1  0.05605482  0.11006493  0.05465644  1  0  -0.511874  0  2.119288  0  0  -0.461347  0  2.33964  0  0  -0.482106  0  2.331601  0  0  -0.340901  -0.446315  0  2.344704  0
O  O92  1  0.31499542  0.44142130  0.34221657  1  0  -0.687799  0  1.950662  0  0  -0.630007  0  2.200517  0  0  -0.654445  0  2.189553  0  0  -0.333607  -0.612559  0  2.20804  0
O  O93  1  0.68502199  0.55857730  0.65779793  1  0  -0.687602  0  1.950479  0  0  -0.629864  0  2.200443  0  0  -0.654304  0  2.18949  0  0  -0.333552  -0.612406  0  2.207949  0
O  O94  1  0.18159082  0.64867415  0.48043219  1  0  -0.678152  0  1.964372  0  0  -0.624711  0  2.214018  0  0  -0.647673  0  2.202526  0  0  -0.331471  -0.608336  0  2.221786  0
O  O95  1  0.81844617  0.35134366  0.51957241  1  0  -0.678021  0  1.9644  0  0  -0.624479  0  2.213862  0  0  -0.647442  0  2.202384  0  0  -0.331411  -0.608102  0  2.221631  0
O  O96  1  0.41207892  0.62558307  0.37620465  1  0  -0.721445  0  1.972454  0  0  -0.665248  0  2.226253  0  0  -0.690299  0  2.215901  0  0  -0.336107  -0.646726  0  2.232178  0
O  O97  1  0.58795669  0.37440539  0.62378090  1  0  -0.721587  0  1.972542  0  0  -0.665388  0  2.226277  0  0  -0.690435  0  2.215926  0  0  -0.336224  -0.646869  0  2.232209  0
