# generated using pymatgen
data_Cu3H18C28(N3O5)2
_symmetry_space_group_name_H-M   'P 1'
_cell_length_a   7.02861703
_cell_length_b   10.32343474
_cell_length_c   13.19228244
_cell_angle_alpha   107.91580229
_cell_angle_beta   91.23935624
_cell_angle_gamma   97.43974977
_symmetry_Int_Tables_number   1
_chemical_formula_structural   Cu3H18C28(N3O5)2
_chemical_formula_sum   'Cu3 H18 C28 N6 O10'
_cell_volume   901.22297992
_cell_formula_units_Z   1
loop_
 _symmetry_equiv_pos_site_id
 _symmetry_equiv_pos_as_xyz
  1  'x, y, z'
loop_
 _atom_site_type_symbol
 _atom_site_label
 _atom_site_symmetry_multiplicity
 _atom_site_fract_x
 _atom_site_fract_y
 _atom_site_fract_z
 _atom_site_occupancy
 _atom_site_hle17_ddec_charge
 _atom_site_hle17_ddec_spin_density
 _atom_site_hle17_ddec_sum_bond_order
 _atom_site_hle17_magmom
 _atom_site_hse06_10hf_ddec_charge
 _atom_site_hse06_10hf_ddec_spin_density
 _atom_site_hse06_10hf_ddec_sum_bond_order
 _atom_site_hse06_10hf_magmom
 _atom_site_hse06_ddec_charge
 _atom_site_hse06_ddec_spin_density
 _atom_site_hse06_ddec_sum_bond_order
 _atom_site_hse06_magmom
 _atom_site_pbe_cm5_charge
 _atom_site_pbe_ddec_charge
 _atom_site_pbe_ddec_spin_density
 _atom_site_pbe_ddec_sum_bond_order
 _atom_site_pbe_magmom
Cu  Cu0  1  0.50050050  0.00006153  0.50008183  1  0.840847  0.677087  1.739382  0.475  0.810283  0.763866  2.123476  0.586  0.90059  0.839186  2.056269  0.672  0.761843  0.752447  0.703643  2.17367  0.526
Cu  Cu1  1  0.89931125  0.77946643  0.65922975  1  0.841104  -0.707491  1.750584  -0.473  0.805952  -0.798837  2.154529  -0.595  0.907507  -0.888221  2.073623  -0.684  0.732935  0.744739  -0.726872  2.210267  -0.531
Cu  Cu2  1  0.10104368  0.22107462  0.34061846  1  0.840381  0.674908  1.746989  0.477  0.80591  0.768358  2.150295  0.595  0.907956  0.846228  2.069102  0.685  0.731226  0.743621  0.714377  2.206995  0.54
H  H3  1  0.68986899  0.36563331  0.35058160  1  0.135823  -0.00085  0.911427  -0.001  0.144012  -0.000825  0.969981  -0.001  0.14767  -0.000597  0.968055  -0.001  0.122781  0.141168  -0.001002  0.971912  -0.001
H  H4  1  0.30890087  0.63481090  0.64978051  1  0.13595  0.000961  0.911181  0.001  0.144323  0.000804  0.969423  0.001  0.14801  0.000577  0.96747  0.001  0.122863  0.141242  0.000999  0.971643  0.001
H  H5  1  0.89068377  0.44523746  0.22229853  1  0.11888  -0.000121  0.941593  0.0  0.131231  6.2e-05  0.993475  0.0  0.134893  4.8e-05  0.990493  0.0  0.115591  0.128368  6.6e-05  0.995976  0.0
H  H6  1  0.10845573  0.55441600  0.77783094  1  0.118956  0.000102  0.940867  0.0  0.131321  -3.8e-05  0.992871  0.0  0.135012  -4e-05  0.989848  0.0  0.1155  0.128374  -2.9e-05  0.995477  0.0
H  H7  1  0.10164217  0.67721649  0.28702309  1  0.114203  -0.000535  0.932173  -0.001  0.127183  -0.000584  0.984622  -0.001  0.130325  -0.000447  0.982991  -0.001  0.116957  0.124898  -0.000665  0.985881  -0.001
H  H8  1  0.89891773  0.32192472  0.71289994  1  0.113811  0.00087  0.933132  0.001  0.126916  0.000786  0.985351  0.001  0.130049  0.000564  0.983722  0.001  0.116712  0.124519  0.000957  0.986828  0.001
H  H9  1  0.99425629  0.05941923  0.77860295  1  0.128109  0.000813  0.987398  0.001  0.135444  0.000643  1.04952  0.001  0.139138  0.000531  1.048706  0.001  0.112714  0.132546  0.000715  1.050564  0.001
H  H10  1  0.00720929  0.93980039  0.22146521  1  0.128678  0.000149  0.986238  0.0  0.136219  0.00041  1.047913  0.001  0.139884  0.000232  1.047141  0.0  0.113115  0.133299  0.000557  1.049009  0.001
H  H11  1  0.15843190  0.28915150  0.89279058  1  0.094641  0.000586  0.922077  0.001  0.110908  0.000201  0.969724  0.0  0.112712  8.1e-05  0.968619  0.0  0.115667  0.10938  0.000333  0.970784  0.0
H  H12  1  0.84225618  0.71022116  0.10719256  1  0.094683  0.000682  0.922591  0.001  0.110741  0.000225  0.970313  0.0  0.112571  0.000106  0.969205  0.0  0.11554  0.109139  0.000348  0.97143  0.001
H  H13  1  0.46252678  0.39386527  0.82939688  1  0.113892  0.000387  0.924717  0.0  0.128258  0.000376  0.971873  0.0  0.131514  0.000277  0.971711  0.0  0.116713  0.125691  0.000419  0.972492  0.0
H  H14  1  0.53751541  0.60624069  0.17049899  1  0.113592  0.000191  0.925318  0.0  0.128053  0.0004  0.972444  0.0  0.131293  0.000288  0.972305  0.0  0.116661  0.125456  0.000461  0.973112  0.0
H  H15  1  0.58421628  0.25951844  0.66008324  1  0.092345  0.001411  0.991491  0.003  0.09659  0.001062  1.060771  0.002  0.099731  0.000698  1.056794  0.002  0.116972  0.094122  0.001383  1.063804  0.003
H  H16  1  0.41578041  0.74109932  0.33965752  1  0.092325  0.001417  0.992261  0.003  0.096842  0.001096  1.061221  0.002  0.100089  0.000732  1.057154  0.002  0.117039  0.094091  0.001391  1.064482  0.003
H  H17  1  0.08759667  0.88463205  0.02678036  1  0.100514  -0.000818  0.923511  -0.001  0.114833  -0.000509  0.9801  -0.001  0.116703  -0.000329  0.978992  -0.001  0.098341  0.113763  -0.000634  0.980616  -0.001
H  H18  1  0.91080625  0.11527438  0.97318458  1  0.100292  0.00079  0.923393  0.001  0.114483  0.000505  0.979976  0.001  0.116353  0.000325  0.978869  0.001  0.098084  0.113278  0.000645  0.980594  0.001
H  H19  1  0.83600659  0.88880197  0.00569618  1  0.099816  0.000314  0.918565  0.0  0.116485  6.9e-05  0.971799  0.0  0.118165  4.5e-05  0.971589  0.0  0.100658  0.115401  7.3e-05  0.971968  0.0
H  H20  1  0.16248568  0.11109620  0.99407307  1  0.099661  -0.000383  0.919053  0.0  0.116249  -9.6e-05  0.972314  0.0  0.117914  -7.3e-05  0.972113  0.0  0.100696  0.115094  -9.8e-05  0.972567  0.0
C  C21  1  0.68885660  0.51508204  0.57207599  1  0.585418  0.005106  3.953039  0.008  0.543376  -0.000745  4.258324  0.001  0.578707  -0.000746  4.256646  0.001  0.197024  0.519408  -0.000786  4.257677  0.002
C  C22  1  0.31089649  0.48573268  0.42825856  1  0.586907  -0.005806  3.949046  -0.008  0.544875  0.000604  4.254044  -0.001  0.580101  0.000573  4.252355  -0.001  0.197529  0.521013  0.000734  4.253806  -0.002
C  C23  1  0.78625583  0.55005407  0.48111978  1  0.120406  0.007147  3.735703  0.008  0.125359  0.001626  3.97403  0.003  0.131493  0.002219  3.992447  0.004  0.118188  0.121272  0.001356  3.96206  0.003
C  C24  1  0.21316379  0.45040392  0.51901723  1  0.121353  -0.004523  3.735547  -0.005  0.126165  -0.000745  3.974394  -0.001  0.132581  -0.001545  3.992523  -0.002  0.118311  0.12177  -6.8e-05  3.962858  -0.001
C  C25  1  0.77944893  0.46561519  0.37555751  1  -0.068174  -0.007981  3.620878  -0.007  -0.098581  -0.002986  3.880656  -0.003  -0.101349  -0.003181  3.895121  -0.003  -0.055909  -0.097332  -0.002863  3.87204  -0.002
C  C26  1  0.21977794  0.53463194  0.62463291  1  -0.069399  0.002925  3.621748  0.003  -0.099276  0.001952  3.880954  0.002  -0.102075  0.002037  3.895265  0.002  -0.056872  -0.098384  0.001963  3.873189  0.002
C  C27  1  0.89094342  0.51232532  0.30413484  1  0.006405  0.007832  3.655353  0.007  -0.013008  0.002293  3.91107  0.002  -0.009203  0.002658  3.925105  0.003  -0.054119  -0.015719  0.001965  3.902219  0.002
C  C28  1  0.10849535  0.48750360  0.69594013  1  0.006398  -0.005216  3.654459  -0.004  -0.013072  -0.002053  3.910023  -0.002  -0.00922  -0.002287  3.923955  -0.002  -0.054479  -0.016154  -0.001843  3.901935  -0.002
C  C29  1  0.00754557  0.63998852  0.33949133  1  -0.088593  -0.008583  3.663989  -0.008  -0.110874  -0.002935  3.911858  -0.003  -0.112247  -0.002973  3.927636  -0.003  -0.064648  -0.109774  -0.002711  3.901087  -0.003
C  C30  1  0.99243769  0.35961043  0.66043184  1  -0.087689  0.002722  3.663174  0.003  -0.109975  0.001919  3.910431  0.002  -0.111259  0.001756  3.926132  0.002  -0.064243  -0.109276  0.001979  3.900241  0.002
C  C31  1  0.00598106  0.71928196  0.44596446  1  0.13462  0.012541  3.744602  0.014  0.132408  0.005675  3.990255  0.008  0.135298  0.005149  4.010622  0.007  0.117619  0.130177  0.005671  3.977086  0.007
C  C32  1  0.99421633  0.28049262  0.55392400  1  0.134123  0.006457  3.743753  0.007  0.132958  0.00603  3.988271  0.006  0.13572  0.003629  4.008771  0.004  0.117132  0.131064  0.00768  3.974874  0.008
C  C33  1  0.13091720  0.85223183  0.49875981  1  0.507097  -0.004951  3.821959  -0.008  0.473201  -0.000239  4.10815  -0.003  0.50793  -0.000431  4.110071  -0.002  0.234853  0.450045  0.000499  4.105939  -0.002
C  C34  1  0.87004549  0.14732099  0.50115319  1  0.506015  -0.010967  3.822783  -0.014  0.47204  0.000363  4.10898  -0.002  0.506716  -0.000919  4.110898  -0.003  0.233368  0.449029  0.001892  4.10718  -0.001
C  C35  1  0.20501449  0.03521049  0.66166202  1  0.424173  -0.003834  3.759412  -0.003  0.414335  -0.00018  4.00833  0.001  0.435214  -0.000911  4.027271  0.0  0.22175  0.40079  0.000347  3.995351  0.001
C  C36  1  0.79598622  0.96447006  0.33818280  1  0.425897  -0.007441  3.76116  -0.009  0.414997  0.000878  4.011481  -0.001  0.436004  -0.000979  4.030112  -0.003  0.2224  0.401595  0.002417  3.998776  0.0
C  C37  1  0.12746338  0.10719016  0.75669557  1  -0.186974  0.011265  3.668378  0.012  -0.208505  0.004176  3.916639  0.005  -0.221217  0.003731  3.938678  0.004  -0.083256  -0.200866  0.004457  3.902664  0.005
C  C38  1  0.87373520  0.89230010  0.24328214  1  -0.18834  0.018972  3.671356  0.019  -0.209942  0.007231  3.919842  0.008  -0.22264  0.00619  3.941777  0.007  -0.084055  -0.202368  0.007899  3.906056  0.009
C  C39  1  0.21979084  0.23435987  0.81930629  1  0.002596  -0.008274  3.773094  -0.007  -0.014554  -0.002367  4.022775  -0.002  -0.00818  -0.002612  4.041505  -0.002  -0.063659  -0.018421  -0.002044  4.01042  -0.002
C  C40  1  0.78098067  0.76526928  0.18064930  1  0.002922  -0.012991  3.773659  -0.012  -0.013995  -0.00335  4.023398  -0.003  -0.007642  -0.003757  4.042125  -0.004  -0.06296  -0.018054  -0.002916  4.011324  -0.003
C  C41  1  0.38780052  0.29194150  0.78573579  1  -0.131881  0.009725  3.756599  0.01  -0.144223  0.003417  4.004282  0.004  -0.153986  0.003121  4.026366  0.004  -0.085261  -0.138352  0.003225  3.989953  0.004
C  C42  1  0.61257109  0.70805680  0.21417846  1  -0.130567  0.01663  3.756786  0.017  -0.143524  0.005795  4.004951  0.007  -0.153298  0.005106  4.027084  0.006  -0.085346  -0.137715  0.006458  3.990857  0.007
C  C43  1  0.45795288  0.21724233  0.69150139  1  0.149548  -0.007415  3.688667  -0.008  0.119329  -0.000748  3.942846  -0.002  0.130345  -0.001943  3.960798  -0.003  0.044644  0.112266  0.000151  3.931091  -0.001
C  C44  1  0.54235875  0.78303501  0.30831509  1  0.149195  -0.00951  3.689775  -0.01  0.118744  -0.000781  3.944022  -0.001  0.129664  -0.002334  3.961936  -0.003  0.044291  0.111725  0.000509  3.932669  0.0
C  C45  1  0.99339477  0.85424411  0.86511496  1  0.675914  0.004021  3.851302  0.007  0.641427  0.000604  4.153441  0.003  0.676889  0.000823  4.149989  0.003  0.194558  0.617489  0.000341  4.154561  0.003
C  C46  1  0.00557278  0.14577660  0.13480240  1  0.67442  -0.004539  3.853152  -0.007  0.640033  -0.000726  4.154941  -0.003  0.675513  -0.000948  4.151538  -0.003  0.193665  0.616097  -0.000449  4.156211  -0.003
C  C47  1  0.98093921  0.92100354  0.98419266  1  -0.227427  -0.006772  3.663632  -0.007  -0.265368  -0.003415  3.911966  -0.003  -0.269676  -0.00231  3.918737  -0.002  -0.161051  -0.262203  -0.004047  3.906534  -0.004
C  C48  1  0.01762256  0.07889968  0.01567718  1  -0.226452  0.006434  3.663561  0.007  -0.263852  0.003272  3.91136  0.003  -0.268185  0.002193  3.918252  0.002  -0.160528  -0.260696  0.003928  3.906116  0.004
N  N49  1  0.89466737  0.67345928  0.51226722  1  -0.34849  -0.076556  3.480182  -0.089  -0.307467  -0.055374  3.773459  -0.069  -0.339353  -0.048666  3.795773  -0.064  -0.366572  -0.288796  -0.056971  3.761414  -0.069
N  N50  1  0.10511461  0.32688243  0.48763272  1  -0.349262  0.071225  3.477805  0.088  -0.308678  0.053554  3.771371  0.07  -0.340694  0.046039  3.793745  0.063  -0.366425  -0.290351  0.056886  3.759614  0.072
N  N51  1  0.10517827  0.90897517  0.60220892  1  -0.543071  -0.0493  3.175039  -0.057  -0.513708  -0.047715  3.482601  -0.059  -0.555078  -0.041344  3.493965  -0.054  -0.357887  -0.487531  -0.049555  3.476331  -0.059
N  N52  1  0.89626035  0.09047966  0.39785305  1  -0.541909  0.070342  3.173244  0.087  -0.512961  0.054428  3.481435  0.072  -0.554362  0.04472  3.492821  0.063  -0.357379  -0.487571  0.059836  3.47578  0.075
N  N53  1  0.37241809  0.09126234  0.63098880  1  -0.386945  0.079255  3.230348  0.097  -0.339052  0.054125  3.51869  0.071  -0.373078  0.046188  3.535162  0.064  -0.350544  -0.318964  0.056458  3.509381  0.071
N  N54  1  0.62822417  0.90899510  0.36868477  1  -0.386698  0.086339  3.230596  0.106  -0.338616  0.059325  3.518989  0.078  -0.372597  0.050523  3.535325  0.07  -0.350206  -0.318714  0.062523  3.510122  0.078
O  O55  1  0.59731488  0.39831637  0.55677862  1  -0.554191  -0.032286  1.922174  -0.038  -0.528943  -0.016056  2.151693  -0.02  -0.560293  -0.007712  2.149508  -0.01  -0.300813  -0.503848  -0.025272  2.150663  -0.031
O  O56  1  0.40214807  0.60267607  0.44389754  1  -0.55538  0.031998  1.921159  0.04  -0.529955  0.015891  2.150634  0.021  -0.56139  0.007361  2.148447  0.01  -0.301763  -0.505366  0.025517  2.150024  0.032
O  O57  1  0.71493505  0.61261789  0.66299092  1  -0.564309  -0.125539  1.951958  -0.157  -0.545912  -0.0825  2.216693  -0.115  -0.593424  -0.063284  2.210123  -0.093  -0.322232  -0.514846  -0.092232  2.221326  -0.124
O  O58  1  0.28570971  0.38832678  0.33728794  1  -0.565704  0.118436  1.948336  0.156  -0.546398  0.079159  2.212304  0.115  -0.593895  0.060021  2.205714  0.093  -0.32258  -0.516175  0.089875  2.217628  0.124
O  O59  1  0.24905093  0.89760337  0.44070131  1  -0.539664  0.084727  2.114643  0.111  -0.509778  0.059177  2.399564  0.085  -0.551497  0.04651  2.389853  0.071  -0.301966  -0.480491  0.066985  2.405562  0.092
O  O60  1  0.75209236  0.10192174  0.55939312  1  -0.541574  0.092471  2.11191  0.12  -0.511497  0.065348  2.396984  0.092  -0.552777  0.050214  2.386992  0.075  -0.304075  -0.484316  0.074237  2.404217  0.1
O  O61  1  0.86425347  0.88056362  0.80428848  1  -0.600272  -0.101561  2.006389  -0.123  -0.571432  -0.057111  2.278833  -0.076  -0.616021  -0.044294  2.266986  -0.062  -0.352284  -0.5414  -0.063862  2.286458  -0.082
O  O62  1  0.13524646  0.11982371  0.19549700  1  -0.600103  0.096957  2.006867  0.124  -0.570697  0.055165  2.278846  0.076  -0.615401  0.042206  2.266992  0.062  -0.352076  -0.541198  0.06265  2.287051  0.083
O  O63  1  0.12048393  0.78163653  0.82907804  1  -0.624444  -0.00104  1.882663  -0.002  -0.593914  -5e-06  2.098809  -0.001  -0.620186  0.000796  2.089238  0.0  -0.335283  -0.574728  -0.00094  2.104584  -0.002
O  O64  1  0.87829041  0.21820422  0.17092234  1  -0.624397  0.001087  1.88313  0.003  -0.593725  4.9e-05  2.09902  0.001  -0.620031  -0.000795  2.089468  0.0  -0.335469  -0.574768  0.001055  2.104913  0.002
