# generated using pymatgen
data_CuH9(C5N)3
_symmetry_space_group_name_H-M   'P 1'
_cell_length_a   7.97138582
_cell_length_b   8.09684310
_cell_length_c   10.18744784
_cell_angle_alpha   110.67152613
_cell_angle_beta   96.51468532
_cell_angle_gamma   99.57628877
_symmetry_Int_Tables_number   1
_chemical_formula_structural   CuH9(C5N)3
_chemical_formula_sum   'Cu2 H18 C30 N6'
_cell_volume   595.96562169
_cell_formula_units_Z   2
loop_
 _symmetry_equiv_pos_site_id
 _symmetry_equiv_pos_as_xyz
  1  'x, y, z'
loop_
 _atom_site_type_symbol
 _atom_site_label
 _atom_site_symmetry_multiplicity
 _atom_site_fract_x
 _atom_site_fract_y
 _atom_site_fract_z
 _atom_site_occupancy
 _atom_site_pbe_bader_spin_density
 _atom_site_pbe_cm5_charge
 _atom_site_pbe_ddec_charge
 _atom_site_pbe_ddec_spin_density
 _atom_site_pbe_ddec_sum_bond_order
 _atom_site_pbe_magmom
Cu  Cu0  1  0.10899517  0.18866465  0.51228267  1  0  0.60667  0.465523  0  2.589201  0
Cu  Cu1  1  0.89101227  0.81134082  0.48771452  1  0  0.606676  0.465607  0  2.589026  0
H  H2  1  0.35993469  0.51503214  0.70389440  1  0  0.110104  0.080701  0  1.01023  0
H  H3  1  0.64006374  0.48497336  0.29611370  1  0  0.110111  0.080729  0  1.010224  0
H  H4  1  0.78784442  0.00565868  0.12413472  1  0  0.096726  0.099985  0  1.030856  0
H  H5  1  0.21217061  0.99434675  0.87586222  1  0  0.096726  0.099922  0  1.030868  0
H  H6  1  0.41482427  0.72801456  0.21739685  1  0  0.100344  0.104674  0  1.020251  0
H  H7  1  0.58516204  0.27197610  0.78260884  1  0  0.100363  0.104634  0  1.020333  0
H  H8  1  0.45208662  0.69267857  0.96423626  1  0  0.101704  0.110936  0  1.056006  0
H  H9  1  0.54790490  0.30732426  0.03577139  1  0  0.101709  0.110944  0  1.056027  0
H  H10  1  0.26860481  0.08606581  0.13654645  1  0  0.09407  0.096109  0  1.039361  0
H  H11  1  0.73140968  0.91393148  0.86345013  1  0  0.094159  0.096219  0  1.039321  0
H  H12  1  0.98307619  0.14308342  0.76523138  1  0  0.11092  0.075523  0  1.022993  0
H  H13  1  0.01691968  0.85691535  0.23476378  1  0  0.110902  0.075498  0  1.022923  0
H  H14  1  0.93860329  0.17060497  0.01067196  1  0  0.099297  0.097774  0  1.047305  0
H  H15  1  0.06138409  0.82938978  0.98932321  1  0  0.099178  0.097596  0  1.047401  0
H  H16  1  0.26525646  0.60647196  0.37575581  1  0  0.098792  0.09899  0  1.021456  0
H  H17  1  0.73472734  0.39351872  0.62424867  1  0  0.098797  0.09897  0  1.021517  0
H  H18  1  0.02821065  0.33007898  0.27400348  1  0  0.096668  0.09359  0  1.032708  0
H  H19  1  0.97177330  0.66991172  0.72599217  1  0  0.096647  0.093611  0  1.032597  0
C  C20  1  0.29716835  0.47457668  0.78085337  1  0  0.023817  0.062128  0  3.968516  0
C  C21  1  0.70282758  0.52542884  0.21915252  1  0  0.023791  0.062073  0  3.968467  0
C  C22  1  0.43229627  0.13909045  0.38261788  1  0  0.176023  0.294221  0  4.113605  0
C  C23  1  0.56771439  0.86091230  0.61737788  1  0  0.176027  0.294143  0  4.113671  0
C  C24  1  0.66106019  0.00408743  0.07030682  1  0  -0.102927  -0.147049  0  4.005226  0
C  C25  1  0.33895551  0.99591528  0.92968943  1  0  -0.102983  -0.147043  0  4.005104  0
C  C26  1  0.31203550  0.60535769  0.17256940  1  0  -0.084598  -0.125595  0  3.944583  0
C  C27  1  0.68794668  0.39463708  0.82743507  1  0  -0.084554  -0.125625  0  3.944809  0
C  C28  1  0.73355055  0.13259606  0.37914034  1  0  0.175601  0.292271  0  4.131079  0
C  C29  1  0.26646516  0.86740666  0.62085493  1  0  0.175459  0.292095  0  4.131122  0
C  C30  1  0.34745054  0.57243254  0.92498062  1  0  -0.083785  -0.160257  0  3.963023  0
C  C31  1  0.65254477  0.42757028  0.07502642  1  0  -0.083801  -0.160357  0  3.96303  0
C  C32  1  0.56684294  0.10765880  0.30789121  1  0  -0.059622  -0.220288  0  4.243013  0
C  C33  1  0.43317087  0.89234121  0.69210606  1  0  -0.059549  -0.220081  0  4.242678  0
C  C34  1  0.37029817  0.04599725  0.07710238  1  0  -0.103551  -0.148331  0  4.00225  0
C  C35  1  0.62971596  0.95400412  0.92289433  1  0  -0.103775  -0.148714  0  4.002489  0
C  C36  1  0.13023082  0.35442552  0.96374695  1  0  -0.005359  0.024346  0  4.003426  0
C  C37  1  0.86975993  0.64557327  0.03625262  1  0  -0.005243  0.024394  0  4.003175  0
C  C38  1  0.26559637  0.51456926  0.02219323  1  0  0.002898  0.095526  0  3.995121  0
C  C39  1  0.73439272  0.48542817  0.97781168  1  0  0.002835  0.095625  0  3.994901  0
C  C40  1  0.53241503  0.05154437  0.15139169  1  0  -0.017311  0.088091  0  4.071123  0
C  C41  1  0.46759828  0.94844751  0.84860326  1  0  -0.017227  0.088226  0  4.070968  0
C  C42  1  0.08690474  0.26502031  0.81366451  1  0  0.052693  0.059446  0  3.916264  0
C  C43  1  0.91309041  0.73498116  0.18633428  1  0  0.052743  0.059463  0  3.916189  0
C  C44  1  0.04461313  0.28992810  0.05651931  1  0  -0.085965  -0.120839  0  3.974144  0
C  C45  1  0.95537353  0.71006936  0.94347949  1  0  -0.086015  -0.120673  0  3.973954  0
C  C46  1  0.22879227  0.53732474  0.26024913  1  0  -0.082072  -0.059171  0  3.972809  0
C  C47  1  0.77119189  0.46266730  0.73975184  1  0  -0.082113  -0.059082  0  3.972795  0
C  C48  1  0.09371217  0.37940581  0.20226873  1  0  -0.087461  -0.073172  0  3.990829  0
C  C49  1  0.90627073  0.62059167  0.79772872  1  0  -0.08733  -0.073219  0  3.990541  0
N  N50  1  0.16786178  0.32073924  0.72450875  1  0  -0.365232  -0.232191  0  3.685536  0
N  N51  1  0.83213799  0.67926627  0.27549457  1  0  -0.365287  -0.232219  0  3.685577  0
N  N52  1  0.30760858  0.16054064  0.43313683  1  0  -0.429201  -0.460016  0  3.48867  0
N  N53  1  0.69240918  0.83947155  0.56686228  1  0  -0.429272  -0.460079  0  3.488775  0
N  N54  1  0.87989156  0.15036881  0.42897547  1  0  -0.439189  -0.492854  0  3.584823  0
N  N55  1  0.12013104  0.84963114  0.57102462  1  0  -0.43903  -0.492728  0  3.584689  0
