# generated using pymatgen
data_NaTbH12(CO)12
_symmetry_space_group_name_H-M   'P 1'
_cell_length_a   6.85277383
_cell_length_b   7.50110985
_cell_length_c   15.63912120
_cell_angle_alpha   90.00000171
_cell_angle_beta   102.65977714
_cell_angle_gamma   89.99994122
_symmetry_Int_Tables_number   1
_chemical_formula_structural   NaTbH12(CO)12
_chemical_formula_sum   'Na2 Tb2 H24 C24 O24'
_cell_volume   784.36014465
_cell_formula_units_Z   2
loop_
 _symmetry_equiv_pos_site_id
 _symmetry_equiv_pos_as_xyz
  1  'x, y, z'
loop_
 _atom_site_type_symbol
 _atom_site_label
 _atom_site_symmetry_multiplicity
 _atom_site_fract_x
 _atom_site_fract_y
 _atom_site_fract_z
 _atom_site_occupancy
 _atom_site_hle17_bader_spin_density
 _atom_site_hle17_ddec_charge
 _atom_site_hle17_ddec_spin_density
 _atom_site_hle17_ddec_sum_bond_order
 _atom_site_hle17_magmom
 _atom_site_hse06_10hf_bader_spin_density
 _atom_site_hse06_10hf_ddec_charge
 _atom_site_hse06_10hf_ddec_spin_density
 _atom_site_hse06_10hf_ddec_sum_bond_order
 _atom_site_hse06_10hf_magmom
 _atom_site_hse06_bader_spin_density
 _atom_site_hse06_ddec_charge
 _atom_site_hse06_ddec_spin_density
 _atom_site_hse06_ddec_sum_bond_order
 _atom_site_hse06_magmom
 _atom_site_pbe_bader_spin_density
 _atom_site_pbe_cm5_charge
 _atom_site_pbe_ddec_charge
 _atom_site_pbe_ddec_spin_density
 _atom_site_pbe_ddec_sum_bond_order
 _atom_site_pbe_magmom
Na  Na0  1  0.85933108  0.24988663  0.71864282  1  0  0.927125  0  0.356681  0  0  0.899033  0  0.489875  0  0  0.907278  0  0.46937  0  0  0.696414  0.892545  0  0.504986  0
Na  Na1  1  0.14066756  0.74988631  0.28135704  1  0  0.927139  0  0.356662  0  0  0.899038  0  0.489871  0  0  0.907294  0  0.469361  0  0  0.696417  0.892557  0  0.504966  0
Tb  Tb2  1  0.69544399  0.75011667  0.39094856  1  0  2.205815  0  1.745202  0  0  2.056553  0  2.231861  0  0  2.103692  0  2.188951  0  0  1.535657  2.019739  0  2.266967  0
Tb  Tb3  1  0.30456362  0.25011886  0.60905217  1  0  2.205816  0  1.745243  0  0  2.056485  0  2.232018  0  0  2.103618  0  2.189114  0  0  1.535685  2.019692  0  2.267079  0
H  H4  1  0.76293562  0.25510724  0.89782732  1  0  0.108232  0  0.953511  0  0  0.118348  0  1.014294  0  0  0.121681  0  1.012155  0  0  0.11367  0.115847  0  1.016102  0
H  H5  1  0.23706301  0.75510815  0.10217318  1  0  0.10823  0  0.95352  0  0  0.118343  0  1.01431  0  0  0.121675  0  1.012173  0  0  0.11367  0.115841  0  1.01612  0
H  H6  1  0.86472972  0.74472538  0.10214660  1  0  0.107422  0  0.953494  0  0  0.11735  0  1.014521  0  0  0.12068  0  1.012398  0  0  0.113036  0.114895  0  1.016248  0
H  H7  1  0.13526893  0.24472241  0.89785263  1  0  0.107439  0  0.95349  0  0  0.117396  0  1.014471  0  0  0.120725  0  1.012348  0  0  0.113036  0.11494  0  1.016203  0
H  H8  1  0.84482360  0.26030508  0.06134169  1  0  0.090925  0  0.962332  0  0  0.101048  0  1.0243  0  0  0.104517  0  1.021941  0  0  0.103964  0.09847  0  1.026217  0
H  H9  1  0.15517204  0.76030611  0.93865788  1  0  0.090922  0  0.962275  0  0  0.101046  0  1.024257  0  0  0.1045  0  1.021913  0  0  0.103964  0.098467  0  1.026176  0
H  H10  1  0.78303926  0.73952488  0.93863090  1  0  0.091472  0  0.964019  0  0  0.101839  0  1.025544  0  0  0.105209  0  1.023312  0  0  0.104342  0.099254  0  1.027475  0
H  H11  1  0.21695640  0.23952312  0.06136803  1  0  0.091515  0  0.963949  0  0  0.101867  0  1.025492  0  0  0.105238  0  1.023262  0  0  0.104353  0.099264  0  1.027449  0
H  H12  1  0.48691525  0.26810277  0.41769879  1  0  0.102264  0  0.922091  0  0  0.108852  0  0.98103  0  0  0.112219  0  0.978123  0  0  0.131013  0.106408  0  0.983257  0
H  H13  1  0.51309235  0.76810077  0.58230129  1  0  0.102242  0  0.922193  0  0  0.108815  0  0.981118  0  0  0.112184  0  0.978211  0  0  0.130993  0.106369  0  0.983351  0
H  H14  1  0.06927099  0.73211298  0.58236437  1  0  0.102167  0  0.922148  0  0  0.108622  0  0.981126  0  0  0.111853  0  0.978371  0  0  0.131209  0.106292  0  0.983184  0
H  H15  1  0.93073817  0.23210655  0.41763012  1  0  0.102074  0  0.922229  0  0  0.108528  0  0.981165  0  0  0.111759  0  0.978407  0  0  0.131135  0.106201  0  0.983232  0
H  H16  1  0.75767451  0.38316028  0.30064798  1  0  0.401141  0  0.891898  0  0  0.370697  0  0.968557  0  0  0.382893  0  0.955101  0  0  0.305657  0.362149  0  0.977816  0
H  H17  1  0.24232248  0.88315855  0.69935237  1  0  0.401121  0  0.891948  0  0  0.370662  0  0.968625  0  0  0.382858  0  0.955171  0  0  0.305641  0.362113  0  0.977886  0
H  H18  1  0.45708162  0.61701916  0.69935306  1  0  0.40149  0  0.891022  0  0  0.37087  0  0.968015  0  0  0.38304  0  0.954585  0  0  0.305596  0.362343  0  0.977237  0
H  H19  1  0.54291568  0.11701576  0.30064667  1  0  0.401478  0  0.891012  0  0  0.370869  0  0.96799  0  0  0.383038  0  0.954566  0  0  0.30557  0.362341  0  0.977214  0
H  H20  1  0.78102724  0.90078502  0.79000726  1  0  0.416674  0  0.871814  0  0  0.390448  0  0.929339  0  0  0.399249  0  0.916235  0  0  0.296513  0.384209  0  0.938631  0
H  H21  1  0.21896524  0.40078193  0.20999329  1  0  0.41669  0  0.871837  0  0  0.390448  0  0.929353  0  0  0.399252  0  0.916245  0  0  0.296506  0.38421  0  0.938644  0
H  H22  1  0.99099154  0.09905287  0.21003078  1  0  0.417213  0  0.872503  0  0  0.390857  0  0.929003  0  0  0.399677  0  0.915869  0  0  0.296837  0.384606  0  0.938318  0
H  H23  1  0.00900129  0.59905270  0.78996915  1  0  0.417215  0  0.872484  0  0  0.390847  0  0.929023  0  0  0.399667  0  0.915889  0  0  0.296827  0.384598  0  0.938336  0
H  H24  1  0.01532282  0.91238100  0.80218779  1  0  0.417432  0  0.886548  0  0  0.386676  0  0.951092  0  0  0.396727  0  0.936079  0  0  0.288315  0.379525  0  0.96178  0
H  H25  1  0.98467114  0.41237984  0.19781290  1  0  0.417391  0  0.886587  0  0  0.386654  0  0.951143  0  0  0.396712  0  0.936114  0  0  0.288298  0.379502  0  0.961832  0
H  H26  1  0.21306394  0.08737897  0.19782304  1  0  0.417423  0  0.886362  0  0  0.386332  0  0.951237  0  0  0.396372  0  0.93627  0  0  0.28794  0.379213  0  0.961844  0
H  H27  1  0.78692890  0.58738206  0.80217626  1  0  0.417454  0  0.886316  0  0  0.386396  0  0.951165  0  0  0.396436  0  0.936198  0  0  0.287922  0.379273  0  0.961778  0
C  C28  1  0.44431949  0.24991350  0.88835081  1  0  -0.055096  0  3.733575  0  0  -0.036319  0  3.969363  0  0  -0.043783  0  3.992258  0  0  -0.011621  -0.031489  0  3.953925  0
C  C29  1  0.55568215  0.74991543  0.11164742  1  0  -0.05514  0  3.733557  0  0  -0.036287  0  3.96925  0  0  -0.043749  0  3.992145  0  0  -0.011679  -0.031461  0  3.953816  0
C  C30  1  0.39544814  0.25005083  0.79102294  1  0  0.66994  0  3.884329  0  0  0.628227  0  4.168241  0  0  0.662056  0  4.159998  0  0  0.204278  0.6054  0  4.172815  0
C  C31  1  0.60454901  0.75005139  0.20897678  1  0  0.669969  0  3.884338  0  0  0.628232  0  4.168266  0  0  0.662062  0  4.160021  0  0  0.204294  0.605407  0  4.172839  0
C  C32  1  0.64864001  0.08723346  0.51382802  1  0  0.708058  0  3.830437  0  0  0.656182  0  4.135263  0  0  0.690576  0  4.124115  0  0  0.236377  0.632825  0  4.1419  0
C  C33  1  0.35136629  0.58723828  0.48617258  1  0  0.707935  0  3.830592  0  0  0.656065  0  4.135389  0  0  0.690459  0  4.124242  0  0  0.236347  0.632713  0  4.142021  0
C  C34  1  0.13478002  0.91293819  0.48619820  1  0  0.70878  0  3.831278  0  0  0.656912  0  4.135987  0  0  0.691468  0  4.124551  0  0  0.23692  0.633473  0  4.142787  0
C  C35  1  0.86522892  0.41293183  0.51380010  1  0  0.70849  0  3.831889  0  0  0.656636  0  4.136489  0  0  0.691191  0  4.125059  0  0  0.236791  0.633193  0  4.143285  0
C  C36  1  0.62379082  0.18692672  0.42726089  1  0  0.058195  0  3.598667  0  0  0.033707  0  3.846072  0  0  0.034854  0  3.851549  0  0  0.005395  0.032768  0  3.842409  0
C  C37  1  0.37621835  0.68692618  0.57274191  1  0  0.058029  0  3.598991  0  0  0.033668  0  3.846269  0  0  0.03481  0  3.851759  0  0  0.005365  0.032726  0  3.842604  0
C  C38  1  0.19658624  0.81326624  0.57276578  1  0  0.056773  0  3.600966  0  0  0.03286  0  3.848063  0  0  0.034048  0  3.853515  0  0  0.004468  0.031877  0  3.84445  0
C  C39  1  0.80342131  0.31325860  0.42723175  1  0  0.056772  0  3.601103  0  0  0.033019  0  3.847944  0  0  0.034213  0  3.85339  0  0  0.004487  0.032029  0  3.844339  0
C  C40  1  0.64456729  0.25343688  0.93423861  1  0  -0.057713  0  3.697778  0  0  -0.080875  0  3.94397  0  0  -0.081529  0  3.964727  0  0  -0.073385  -0.080238  0  3.929865  0
C  C41  1  0.35542986  0.75343900  0.06576046  1  0  -0.057732  0  3.697786  0  0  -0.080913  0  3.94397  0  0  -0.081569  0  3.964722  0  0  -0.073386  -0.080277  0  3.929869  0
C  C42  1  0.70992667  0.74634522  0.06572657  1  0  -0.055922  0  3.697159  0  0  -0.079051  0  3.943399  0  0  -0.079721  0  3.964174  0  0  -0.071825  -0.078435  0  3.929281  0
C  C43  1  0.29007198  0.24634610  0.93427137  1  0  -0.056002  0  3.697084  0  0  -0.079113  0  3.943296  0  0  -0.079784  0  3.964071  0  0  -0.071844  -0.078497  0  3.929169  0
C  C44  1  0.53607003  0.24990943  0.07164982  1  0  -0.066636  0  3.759873  0  0  -0.048389  0  4.001932  0  0  -0.055247  0  4.026156  0  0  -0.012931  -0.04383  0  3.985376  0
C  C45  1  0.46392562  0.74990883  0.92834976  1  0  -0.066504  0  3.759777  0  0  -0.048246  0  4.001827  0  0  -0.055104  0  4.026048  0  0  -0.012891  -0.043683  0  3.985269  0
C  C46  1  0.68972840  0.25560451  0.02532305  1  0  -0.062064  0  3.72549  0  0  -0.08354  0  3.972083  0  0  -0.085501  0  3.99377  0  0  -0.077025  -0.08207  0  3.957324  0
C  C47  1  0.31026873  0.75560406  0.97467730  1  0  -0.062075  0  3.725425  0  0  -0.083566  0  3.97203  0  0  -0.085518  0  3.993727  0  0  -0.077017  -0.082094  0  3.957264  0
C  C48  1  0.66397547  0.74421225  0.97464935  1  0  -0.063082  0  3.727948  0  0  -0.084585  0  3.974066  0  0  -0.08648  0  3.995791  0  0  -0.077082  -0.08313  0  3.959319  0
C  C49  1  0.33602018  0.24421037  0.02535022  1  0  -0.063028  0  3.727828  0  0  -0.084535  0  3.97397  0  0  -0.086428  0  3.995693  0  0  -0.077068  -0.083065  0  3.959233  0
C  C50  1  0.58499544  0.24996407  0.16957887  1  0  0.670371  0  3.833255  0  0  0.611223  0  4.136014  0  0  0.64511  0  4.128191  0  0  0.228363  0.588346  0  4.140423  0
C  C51  1  0.41499871  0.74996618  0.83041992  1  0  0.670283  0  3.833298  0  0  0.611055  0  4.136153  0  0  0.64494  0  4.128338  0  0  0.228314  0.588177  0  4.140559  0
O  O52  1  0.53567084  0.24446892  0.74863582  1  0  -0.739848  0  1.994184  0  0  -0.69278  0  2.242821  0  0  -0.716475  0  2.232092  0  0  -0.438783  -0.675909  0  2.249565  0
O  O53  1  0.46432780  0.74446828  0.25136404  1  0  -0.739877  0  1.994204  0  0  -0.692822  0  2.242866  0  0  -0.716519  0  2.232136  0  0  -0.438781  -0.675948  0  2.249612  0
O  O54  1  0.78717803  0.75576779  0.25130837  1  0  -0.738977  0  1.99402  0  0  -0.691964  0  2.242568  0  0  -0.715663  0  2.231862  0  0  -0.438553  -0.675099  0  2.249305  0
O  O55  1  0.21281910  0.25577007  0.74869134  1  0  -0.73899  0  1.993961  0  0  -0.691963  0  2.24249  0  0  -0.71566  0  2.231785  0  0  -0.438558  -0.675102  0  2.249228  0
O  O56  1  0.71098519  0.92863292  0.51650944  1  0  -0.664214  0  2.029092  0  0  -0.612675  0  2.278381  0  0  -0.636912  0  2.267646  0  0  -0.36511  -0.595651  0  2.285195  0
O  O57  1  0.28901921  0.42863378  0.48349418  1  0  -0.66413  0  2.029048  0  0  -0.612611  0  2.278381  0  0  -0.636849  0  2.267645  0  0  -0.365117  -0.595592  0  2.285192  0
O  O58  1  0.19453711  0.07152400  0.48352370  1  0  -0.664637  0  2.029479  0  0  -0.613019  0  2.278654  0  0  -0.637276  0  2.267813  0  0  -0.365348  -0.595998  0  2.285517  0
O  O59  1  0.80548267  0.57151772  0.51647821  1  0  -0.664499  0  2.029792  0  0  -0.612929  0  2.278961  0  0  -0.637185  0  2.268122  0  0  -0.365291  -0.595901  0  2.285819  0
O  O60  1  0.75302002  0.44273280  0.35890696  1  0  -0.663842  0  2.184386  0  0  -0.612586  0  2.434372  0  0  -0.629265  0  2.420671  0  0  -0.449743  -0.600289  0  2.443399  0
O  O61  1  0.24698587  0.94273506  0.64109360  1  0  -0.663828  0  2.184399  0  0  -0.612495  0  2.434418  0  0  -0.629173  0  2.420726  0  0  -0.449713  -0.6002  0  2.443438  0
O  O62  1  0.39432510  0.55746000  0.64106015  1  0  -0.66425  0  2.182399  0  0  -0.612847  0  2.433122  0  0  -0.629519  0  2.419447  0  0  -0.450113  -0.600557  0  2.442119  0
O  O63  1  0.60567824  0.05745788  0.35894080  1  0  -0.664351  0  2.182303  0  0  -0.61293  0  2.433054  0  0  -0.629607  0  2.419374  0  0  -0.450111  -0.600635  0  2.442057  0
O  O64  1  0.60626933  0.16894539  0.57893478  1  0  -0.775943  0  2.077608  0  0  -0.731496  0  2.352605  0  0  -0.755101  0  2.337831  0  0  -0.441326  -0.71453  0  2.361981  0
O  O65  1  0.39373388  0.66894083  0.42106808  1  0  -0.775865  0  2.077747  0  0  -0.731425  0  2.352711  0  0  -0.755029  0  2.337937  0  0  -0.441254  -0.714459  0  2.362093  0
O  O66  1  0.02717682  0.83127965  0.42110175  1  0  -0.775778  0  2.078164  0  0  -0.731437  0  2.353207  0  0  -0.755022  0  2.338191  0  0  -0.440805  -0.714491  0  2.362728  0
O  O67  1  0.97283070  0.33126519  0.57889834  1  0  -0.77556  0  2.078157  0  0  -0.731232  0  2.353202  0  0  -0.754811  0  2.338183  0  0  -0.440673  -0.714294  0  2.362728  0
O  O68  1  0.89328470  0.98406197  0.79816894  1  0  -0.871448  0  1.754116  0  0  -0.83579  0  1.912859  0  0  -0.849918  0  1.881991  0  0  -0.656731  -0.825698  0  1.934639  0
O  O69  1  0.10670918  0.48406032  0.20183174  1  0  -0.871429  0  1.754136  0  0  -0.835798  0  1.912754  0  0  -0.849933  0  1.881878  0  0  -0.656712  -0.825701  0  1.934521  0
O  O70  1  0.09509031  0.01573097  0.20191775  1  0  -0.87175  0  1.754921  0  0  -0.835492  0  1.9134  0  0  -0.849668  0  1.882474  0  0  -0.656702  -0.825398  0  1.935214  0
O  O71  1  0.90490111  0.51573260  0.79808333  1  0  -0.87177  0  1.754869  0  0  -0.835582  0  1.913302  0  0  -0.849755  0  1.882377  0  0  -0.656677  -0.825486  0  1.935122  0
O  O72  1  0.44778313  0.21010203  0.21040204  1  0  -0.643731  0  2.008437  0  0  -0.571865  0  2.221924  0  0  -0.597976  0  2.211379  0  0  -0.29923  -0.55369  0  2.228709  0
O  O73  1  0.55221256  0.71011201  0.78959753  1  0  -0.64369  0  2.00846  0  0  -0.571786  0  2.221972  0  0  -0.597891  0  2.211427  0  0  -0.299162  -0.553611  0  2.228754  0
O  O74  1  0.23699990  0.78984836  0.78954145  1  0  -0.643861  0  2.007422  0  0  -0.571851  0  2.220569  0  0  -0.598066  0  2.210102  0  0  -0.299678  -0.553615  0  2.227339  0
O  O75  1  0.76299121  0.28984475  0.21045896  1  0  -0.643854  0  2.007418  0  0  -0.571911  0  2.220593  0  0  -0.598136  0  2.210125  0  0  -0.299652  -0.553673  0  2.227362  0
