# generated using pymatgen
data_CaH12(C8O5)2
_symmetry_space_group_name_H-M   'P 1'
_cell_length_a   7.51049288
_cell_length_b   10.51003515
_cell_length_c   10.50999500
_cell_angle_alpha   65.58219777
_cell_angle_beta   78.57660233
_cell_angle_gamma   78.57645409
_symmetry_Int_Tables_number   1
_chemical_formula_structural   CaH12(C8O5)2
_chemical_formula_sum   'Ca2 H24 C32 O20'
_cell_volume   734.14274264
_cell_formula_units_Z   2
loop_
 _symmetry_equiv_pos_site_id
 _symmetry_equiv_pos_as_xyz
  1  'x, y, z'
loop_
 _atom_site_type_symbol
 _atom_site_label
 _atom_site_symmetry_multiplicity
 _atom_site_fract_x
 _atom_site_fract_y
 _atom_site_fract_z
 _atom_site_occupancy
 _atom_site_hle17_bader_spin_density
 _atom_site_hle17_ddec_charge
 _atom_site_hle17_ddec_spin_density
 _atom_site_hle17_ddec_sum_bond_order
 _atom_site_hle17_magmom
 _atom_site_hse06_10hf_bader_spin_density
 _atom_site_hse06_10hf_ddec_charge
 _atom_site_hse06_10hf_ddec_spin_density
 _atom_site_hse06_10hf_ddec_sum_bond_order
 _atom_site_hse06_10hf_magmom
 _atom_site_hse06_bader_spin_density
 _atom_site_hse06_ddec_charge
 _atom_site_hse06_ddec_spin_density
 _atom_site_hse06_ddec_sum_bond_order
 _atom_site_hse06_magmom
 _atom_site_pbe_bader_spin_density
 _atom_site_pbe_cm5_charge
 _atom_site_pbe_ddec_charge
 _atom_site_pbe_ddec_spin_density
 _atom_site_pbe_ddec_sum_bond_order
 _atom_site_pbe_magmom
Ca  Ca0  1  0.24999879  0.55705131  0.44295022  1  0  1.586046  0  1.029292  0  0  1.452116  0  1.373969  0  0  1.496195  0  1.328348  0  0  0.87312  1.41898  0  1.40611  0
Ca  Ca1  1  0.74999819  0.44294834  0.55704898  1  0  1.58606  0  1.029316  0  0  1.452134  0  1.374007  0  0  1.496214  0  1.328386  0  0  0.873141  1.418969  0  1.406194  0
H  H2  1  0.18635835  0.39785607  0.00051939  1  0  0.120826  0  0.943009  0  0  0.124091  0  1.01536  0  0  0.128519  0  1.011486  0  0  0.111429  0.122066  0  1.015299  0
H  H3  1  0.31364680  0.99947734  0.60214342  1  0  0.120775  0  0.943035  0  0  0.124039  0  1.01539  0  0  0.128472  0  1.011505  0  0  0.111406  0.122018  0  1.015318  0
H  H4  1  0.81364152  0.60214253  0.99947890  1  0  0.12079  0  0.943039  0  0  0.124059  0  1.015389  0  0  0.128494  0  1.011502  0  0  0.111421  0.122031  0  1.015323  0
H  H5  1  0.68636292  0.00051911  0.39785534  1  0  0.120809  0  0.943032  0  0  0.12408  0  1.015369  0  0  0.128508  0  1.011496  0  0  0.111421  0.12203  0  1.015336  0
H  H6  1  0.07755814  0.96904812  0.21812282  1  0  0.092748  0  1.00428  0  0  0.102335  0  1.07046  0  0  0.105735  0  1.067664  0  0  0.106743  0.099734  0  1.072711  0
H  H7  1  0.42244665  0.78187760  0.03095371  1  0  0.092708  0  1.004254  0  0  0.102286  0  1.070458  0  0  0.105686  0  1.067663  0  0  0.10671  0.099668  0  1.072726  0
H  H8  1  0.92244835  0.03095150  0.78187509  1  0  0.092712  0  1.004271  0  0  0.102303  0  1.070451  0  0  0.105703  0  1.067656  0  0  0.106716  0.099695  0  1.072709  0
H  H9  1  0.57755692  0.21812305  0.96904893  1  0  0.092717  0  1.004319  0  0  0.102306  0  1.070495  0  0  0.105706  0  1.067701  0  0  0.106734  0.099702  0  1.07275  0
H  H10  1  0.98294441  0.19855530  0.78450439  1  0  0.094176  0  0.99586  0  0  0.102476  0  1.06417  0  0  0.105951  0  1.061464  0  0  0.111128  0.099871  0  1.066148  0
H  H11  1  0.51704831  0.21549539  0.80144527  1  0  0.09415  0  0.995839  0  0  0.102471  0  1.064146  0  0  0.105957  0  1.06141  0  0  0.111104  0.099867  0  1.066123  0
H  H12  1  0.01704575  0.80144436  0.21549861  1  0  0.09418  0  0.995884  0  0  0.102471  0  1.064208  0  0  0.105945  0  1.061497  0  0  0.111115  0.099865  0  1.06619  0
H  H13  1  0.48294408  0.78450745  0.19855136  1  0  0.09422  0  0.995781  0  0  0.102519  0  1.064101  0  0  0.105999  0  1.061384  0  0  0.111146  0.099913  0  1.066082  0
H  H14  1  0.25573547  0.28175547  0.34226699  1  0  0.413863  0  0.876607  0  0  0.381352  0  0.958139  0  0  0.393366  0  0.940974  0  0  0.317053  0.37287  0  0.967684  0
H  H15  1  0.24427013  0.65773113  0.71824645  1  0  0.413863  0  0.876623  0  0  0.38134  0  0.958166  0  0  0.393355  0  0.940996  0  0  0.317069  0.372858  0  0.967716  0
H  H16  1  0.74426507  0.71824733  0.65772853  1  0  0.413847  0  0.876612  0  0  0.381323  0  0.958163  0  0  0.393337  0  0.94101  0  0  0.317033  0.372842  0  0.967706  0
H  H17  1  0.75573617  0.34226109  0.28175926  1  0  0.413892  0  0.87661  0  0  0.381369  0  0.958125  0  0  0.393383  0  0.940957  0  0  0.317064  0.372891  0  0.967685  0
H  H18  1  0.95379189  0.78243103  0.45637066  1  0  0.432981  0  0.864811  0  0  0.399478  0  0.933743  0  0  0.410529  0  0.917452  0  0  0.30396  0.391508  0  0.945507  0
H  H19  1  0.54620816  0.54362899  0.21757412  1  0  0.432937  0  0.864866  0  0  0.399438  0  0.933789  0  0  0.410488  0  0.917498  0  0  0.303938  0.391467  0  0.945554  0
H  H20  1  0.04620829  0.21757387  0.54362787  1  0  0.432953  0  0.864838  0  0  0.399456  0  0.93376  0  0  0.410507  0  0.917468  0  0  0.303934  0.391485  0  0.945524  0
H  H21  1  0.45378845  0.45637276  0.78242713  1  0  0.432904  0  0.864911  0  0  0.399411  0  0.933824  0  0  0.410462  0  0.917533  0  0  0.303955  0.39144  0  0.945589  0
H  H22  1  0.11690086  0.87089725  0.42939758  1  0  0.451996  0  0.825613  0  0  0.423541  0  0.884756  0  0  0.433636  0  0.869909  0  0  0.310949  0.416262  0  0.895487  0
H  H23  1  0.38309850  0.57060178  0.12910565  1  0  0.451987  0  0.825655  0  0  0.423542  0  0.884761  0  0  0.433635  0  0.869917  0  0  0.310975  0.416262  0  0.895491  0
H  H24  1  0.88310120  0.12910448  0.57060198  1  0  0.452008  0  0.82563  0  0  0.423557  0  0.884741  0  0  0.433651  0  0.869895  0  0  0.310959  0.416277  0  0.895471  0
H  H25  1  0.61689812  0.42939997  0.87089465  1  0  0.452008  0  0.825597  0  0  0.423539  0  0.884768  0  0  0.433637  0  0.869915  0  0  0.31095  0.41626  0  0.895498  0
C  C26  1  0.10665263  0.43133751  0.74337272  1  0  0.688553  0  3.863312  0  0  0.636801  0  4.15113  0  0  0.671577  0  4.142459  0  0  0.232668  0.612973  0  4.156665  0
C  C27  1  0.39334283  0.25662524  0.56866172  1  0  0.688702  0  3.863278  0  0  0.636961  0  4.151037  0  0  0.671736  0  4.142367  0  0  0.232766  0.613131  0  4.156576  0
C  C28  1  0.89334145  0.56866320  0.25662645  1  0  0.688649  0  3.863328  0  0  0.636906  0  4.151106  0  0  0.67168  0  4.142437  0  0  0.232724  0.613077  0  4.156643  0
C  C29  1  0.60665568  0.74337335  0.43133675  1  0  0.688648  0  3.863192  0  0  0.636888  0  4.151001  0  0  0.671664  0  4.142332  0  0  0.232697  0.613061  0  4.156539  0
C  C30  1  0.08411955  0.30885802  0.88045021  1  0  -0.069316  0  3.76253  0  0  -0.044927  0  4.002132  0  0  -0.053901  0  4.024485  0  0  -0.014058  -0.039408  0  3.986756  0
C  C31  1  0.41588095  0.11954791  0.69113978  1  0  -0.069406  0  3.762621  0  0  -0.044957  0  4.002148  0  0  -0.053936  0  4.024505  0  0  -0.014084  -0.039438  0  3.986773  0
C  C32  1  0.91587471  0.69114165  0.11954841  1  0  -0.069343  0  3.762547  0  0  -0.044945  0  4.00214  0  0  -0.053918  0  4.024495  0  0  -0.014101  -0.039425  0  3.986763  0
C  C33  1  0.58411993  0.88045278  0.30885751  1  0  -0.069357  0  3.76266  0  0  -0.044945  0  4.002226  0  0  -0.053918  0  4.024577  0  0  -0.014078  -0.039425  0  3.986846  0
C  C34  1  0.13823789  0.30602483  0.00163138  1  0  -0.045729  0  3.635937  0  0  -0.087185  0  3.89219  0  0  -0.083493  0  3.908852  0  0  -0.06788  -0.088317  0  3.877659  0
C  C35  1  0.36176203  0.99836763  0.69397373  1  0  -0.04561  0  3.635945  0  0  -0.087117  0  3.892175  0  0  -0.083426  0  3.908838  0  0  -0.067843  -0.088248  0  3.877647  0
C  C36  1  0.86176061  0.69397375  0.99836900  1  0  -0.045681  0  3.635946  0  0  -0.08717  0  3.892174  0  0  -0.083478  0  3.908829  0  0  -0.067855  -0.088294  0  3.877649  0
C  C37  1  0.63824191  0.00163094  0.30602686  1  0  -0.045667  0  3.635941  0  0  -0.087129  0  3.892169  0  0  -0.083437  0  3.908826  0  0  -0.06782  -0.088241  0  3.877656  0
C  C38  1  0.12858517  0.18280692  0.12405117  1  0  -0.080458  0  3.784971  0  0  -0.055231  0  4.022351  0  0  -0.064903  0  4.046341  0  0  -0.019502  -0.049499  0  4.006974  0
C  C39  1  0.37141799  0.87594551  0.81719333  1  0  -0.080533  0  3.784979  0  0  -0.055223  0  4.022262  0  0  -0.064891  0  4.046242  0  0  -0.019506  -0.049491  0  4.006883  0
C  C40  1  0.87141708  0.81719378  0.87594497  1  0  -0.080483  0  3.78495  0  0  -0.055189  0  4.022245  0  0  -0.064854  0  4.046223  0  0  -0.019503  -0.049457  0  4.006865  0
C  C41  1  0.62858222  0.12405097  0.18280672  1  0  -0.080492  0  3.784853  0  0  -0.055251  0  4.022272  0  0  -0.064915  0  4.046247  0  0  -0.019524  -0.049518  0  4.006887  0
C  C42  1  0.17772217  0.17200834  0.25893093  1  0  0.656034  0  3.810715  0  0  0.602645  0  4.112891  0  0  0.635493  0  4.10551  0  0  0.233091  0.580295  0  4.117853  0
C  C43  1  0.32227898  0.74106788  0.82799047  1  0  0.655995  0  3.810733  0  0  0.602574  0  4.112903  0  0  0.635421  0  4.105529  0  0  0.233094  0.580222  0  4.117866  0
C  C44  1  0.82227769  0.82799024  0.74106831  1  0  0.655953  0  3.810774  0  0  0.60254  0  4.112941  0  0  0.635386  0  4.105568  0  0  0.233074  0.580188  0  4.117908  0
C  C45  1  0.67772309  0.25893387  0.17200623  1  0  0.65612  0  3.810667  0  0  0.602652  0  4.112956  0  0  0.635495  0  4.105583  0  0  0.233107  0.580302  0  4.117919  0
C  C46  1  0.07639524  0.06356295  0.12191666  1  0  -0.084578  0  3.687651  0  0  -0.120456  0  3.932667  0  0  -0.119706  0  3.95272  0  0  -0.072015  -0.121243  0  3.919984  0
C  C47  1  0.42361014  0.87808218  0.93643704  1  0  -0.084482  0  3.68756  0  0  -0.120382  0  3.932561  0  0  -0.119635  0  3.952619  0  0  -0.071996  -0.121156  0  3.91989  0
C  C48  1  0.92361278  0.93643561  0.87808146  1  0  -0.084532  0  3.687615  0  0  -0.12042  0  3.932639  0  0  -0.119674  0  3.952697  0  0  -0.07199  -0.121201  0  3.919959  0
C  C49  1  0.57638937  0.12191850  0.06356330  1  0  -0.084527  0  3.687653  0  0  -0.120381  0  3.932657  0  0  -0.119635  0  3.952713  0  0  -0.071995  -0.121166  0  3.919977  0
C  C50  1  0.02503778  0.06426112  0.00073522  1  0  0.045369  0  3.776584  0  0  0.066314  0  4.004454  0  0  0.063954  0  4.029661  0  0  -0.004445  0.067428  0  3.987631  0
C  C51  1  0.47495974  0.99926688  0.93573868  1  0  0.045296  0  3.776655  0  0  0.06623  0  4.00455  0  0  0.063866  0  4.029764  0  0  -0.004479  0.067345  0  3.987724  0
C  C52  1  0.97496055  0.93573852  0.99926571  1  0  0.045392  0  3.77649  0  0  0.066283  0  4.004424  0  0  0.06392  0  4.029634  0  0  -0.00446  0.067397  0  3.9876  0
C  C53  1  0.52503518  0.00073698  0.06426004  1  0  0.045402  0  3.776614  0  0  0.066304  0  4.004526  0  0  0.063939  0  4.029744  0  0  -0.004442  0.067419  0  3.9877  0
C  C54  1  0.02337750  0.19094564  0.88152079  1  0  -0.082479  0  3.662084  0  0  -0.118648  0  3.910446  0  0  -0.117797  0  3.929942  0  0  -0.068052  -0.118349  0  3.896925  0
C  C55  1  0.47661821  0.11847871  0.80905363  1  0  -0.082334  0  3.662046  0  0  -0.118553  0  3.91038  0  0  -0.117694  0  3.929874  0  0  -0.067963  -0.118255  0  3.896862  0
C  C56  1  0.97661249  0.80905508  0.11848180  1  0  -0.082404  0  3.661938  0  0  -0.118562  0  3.910308  0  0  -0.117704  0  3.929797  0  0  -0.067971  -0.118266  0  3.89679  0
C  C57  1  0.52337705  0.88152304  0.19094781  1  0  -0.082504  0  3.662111  0  0  -0.118686  0  3.91048  0  0  -0.117833  0  3.929976  0  0  -0.068067  -0.118387  0  3.896961  0
O  O58  1  0.01187194  0.45208014  0.64683077  1  0  -0.739733  0  2.025  0  0  -0.675444  0  2.278421  0  0  -0.704569  0  2.26962  0  0  -0.383919  -0.654728  0  2.284067  0
O  O59  1  0.48812136  0.35316845  0.54791970  1  0  -0.739799  0  2.024999  0  0  -0.67551  0  2.27841  0  0  -0.704636  0  2.269607  0  0  -0.383945  -0.654792  0  2.284058  0
O  O60  1  0.98811942  0.54792058  0.35316972  1  0  -0.73982  0  2.025098  0  0  -0.675514  0  2.278482  0  0  -0.70464  0  2.269682  0  0  -0.383938  -0.654799  0  2.284126  0
O  O61  1  0.51187867  0.64682908  0.45208090  1  0  -0.739801  0  2.024955  0  0  -0.675492  0  2.278361  0  0  -0.704616  0  2.269561  0  0  -0.383913  -0.654777  0  2.284005  0
O  O62  1  0.23405535  0.50635331  0.71968761  1  0  -0.693456  0  2.059397  0  0  -0.627252  0  2.289951  0  0  -0.653684  0  2.278556  0  0  -0.309632  -0.608729  0  2.297149  0
O  O63  1  0.26593887  0.28031173  0.49364707  1  0  -0.693573  0  2.059472  0  0  -0.627393  0  2.290028  0  0  -0.653824  0  2.278631  0  0  -0.309715  -0.60887  0  2.297227  0
O  O64  1  0.76593753  0.49364635  0.28031406  1  0  -0.693573  0  2.059453  0  0  -0.627373  0  2.289996  0  0  -0.653806  0  2.278602  0  0  -0.309694  -0.608844  0  2.297185  0
O  O65  1  0.73406338  0.71968896  0.50634908  1  0  -0.69357  0  2.059502  0  0  -0.627357  0  2.290045  0  0  -0.653794  0  2.278658  0  0  -0.309668  -0.608815  0  2.297199  0
O  O66  1  0.22708213  0.29149894  0.24859624  1  0  -0.543245  0  2.088313  0  0  -0.489289  0  2.30668  0  0  -0.511539  0  2.29026  0  0  -0.32414  -0.474052  0  2.315654  0
O  O67  1  0.27292301  0.75140003  0.70850411  1  0  -0.543105  0  2.08841  0  0  -0.489146  0  2.306811  0  0  -0.511398  0  2.290392  0  0  -0.324066  -0.47391  0  2.315786  0
O  O68  1  0.77291705  0.70850386  0.75140138  1  0  -0.543132  0  2.088374  0  0  -0.489155  0  2.306737  0  0  -0.511409  0  2.29033  0  0  -0.324047  -0.47392  0  2.315705  0
O  O69  1  0.72708330  0.24859219  0.29150160  1  0  -0.543299  0  2.088309  0  0  -0.4893  0  2.306705  0  0  -0.511551  0  2.290281  0  0  -0.324157  -0.474063  0  2.31569  0
O  O70  1  0.17340415  0.06430563  0.36851499  1  0  -0.567954  0  1.935687  0  0  -0.519834  0  2.152872  0  0  -0.540792  0  2.144746  0  0  -0.285576  -0.505658  0  2.15802  0
O  O71  1  0.32660091  0.63148286  0.93570127  1  0  -0.568042  0  1.935497  0  0  -0.519934  0  2.152722  0  0  -0.540879  0  2.144572  0  0  -0.285669  -0.505756  0  2.157868  0
O  O72  1  0.82660435  0.93569818  0.63148283  1  0  -0.56799  0  1.935572  0  0  -0.519885  0  2.152795  0  0  -0.540823  0  2.144634  0  0  -0.285642  -0.505708  0  2.15794  0
O  O73  1  0.67340874  0.36851352  0.06431085  1  0  -0.567982  0  1.935726  0  0  -0.519843  0  2.152989  0  0  -0.540787  0  2.14484  0  0  -0.285596  -0.505667  0  2.158137  0
O  O74  1  0.08807650  0.78290544  0.43053857  1  0  -0.882601  0  1.800387  0  0  -0.82679  0  1.983355  0  0  -0.84645  0  1.9504  0  0  -0.614367  -0.812478  0  2.006574  0
O  O75  1  0.41192325  0.56946253  0.21709549  1  0  -0.882559  0  1.800466  0  0  -0.826749  0  1.983427  0  0  -0.846412  0  1.950471  0  0  -0.614376  -0.812432  0  2.006645  0
O  O76  1  0.91192284  0.21709630  0.56946135  1  0  -0.882585  0  1.800426  0  0  -0.826769  0  1.983372  0  0  -0.846433  0  1.950417  0  0  -0.614351  -0.812449  0  2.006592  0
O  O77  1  0.58807440  0.43054133  0.78290190  1  0  -0.882534  0  1.800405  0  0  -0.826746  0  1.983405  0  0  -0.846412  0  1.950449  0  0  -0.614354  -0.812431  0  2.006623  0
