# generated using pymatgen
data_Zn2H12C21N6O5
_symmetry_space_group_name_H-M   'P 1'
_cell_length_a   7.53219975
_cell_length_b   10.49012159
_cell_length_c   14.76488885
_cell_angle_alpha   90.12347131
_cell_angle_beta   93.98204687
_cell_angle_gamma   108.95322015
_symmetry_Int_Tables_number   1
_chemical_formula_structural   Zn2H12C21N6O5
_chemical_formula_sum   'Zn4 H24 C42 N12 O10'
_cell_volume   1100.33726311
_cell_formula_units_Z   2
loop_
 _symmetry_equiv_pos_site_id
 _symmetry_equiv_pos_as_xyz
  1  'x, y, z'
loop_
 _atom_site_type_symbol
 _atom_site_label
 _atom_site_symmetry_multiplicity
 _atom_site_fract_x
 _atom_site_fract_y
 _atom_site_fract_z
 _atom_site_occupancy
 _atom_site_hle17_bader_spin_density
 _atom_site_hle17_ddec_charge
 _atom_site_hle17_ddec_spin_density
 _atom_site_hle17_ddec_sum_bond_order
 _atom_site_hle17_magmom
 _atom_site_hse06_10hf_bader_spin_density
 _atom_site_hse06_10hf_ddec_charge
 _atom_site_hse06_10hf_ddec_spin_density
 _atom_site_hse06_10hf_ddec_sum_bond_order
 _atom_site_hse06_10hf_magmom
 _atom_site_hse06_bader_spin_density
 _atom_site_hse06_ddec_charge
 _atom_site_hse06_ddec_spin_density
 _atom_site_hse06_ddec_sum_bond_order
 _atom_site_hse06_magmom
 _atom_site_pbe_bader_spin_density
 _atom_site_pbe_cm5_charge
 _atom_site_pbe_ddec_charge
 _atom_site_pbe_ddec_spin_density
 _atom_site_pbe_ddec_sum_bond_order
 _atom_site_pbe_magmom
Zn  Zn0  1  0.31525412  0.31808203  0.61879421  1  0  1.084739  0  1.844951  0  0  0.911949  0  2.323168  0  0  0.958889  0  2.263234  0  0  0.678201  0.875028  0  2.368155  0
Zn  Zn1  1  0.68474835  0.68192051  0.38120668  1  0  1.084849  0  1.844821  0  0  0.912067  0  2.323024  0  0  0.959005  0  2.263091  0  0  0.678251  0.875144  0  2.368012  0
Zn  Zn2  1  0.56122724  0.23085243  0.77688295  1  0  0.996592  0  1.921785  0  0  0.798799  0  2.405836  0  0  0.844671  0  2.351977  0  0  0.686687  0.766915  0  2.442757  0
Zn  Zn3  1  0.43877475  0.76914613  0.22311649  1  0  0.996571  0  1.921778  0  0  0.798785  0  2.40579  0  0  0.844661  0  2.351935  0  0  0.686663  0.766902  0  2.442699  0
H  H4  1  0.53032425  0.45978479  0.72738293  1  0  0.398504  0  0.893899  0  0  0.37496  0  0.951304  0  0  0.384547  0  0.937406  0  0  0.278639  0.367891  0  0.961559  0
H  H5  1  0.46968798  0.54021887  0.27261688  1  0  0.3986  0  0.893753  0  0  0.374994  0  0.951289  0  0  0.384588  0  0.937375  0  0  0.278695  0.36792  0  0.961551  0
H  H6  1  0.17475086  0.57809992  0.42305622  1  0  0.119814  0  0.930081  0  0  0.128984  0  0.989803  0  0  0.133075  0  0.986249  0  0  0.111699  0.126048  0  0.992303  0
H  H7  1  0.82525163  0.42190258  0.57694602  1  0  0.11983  0  0.930125  0  0  0.128999  0  0.989846  0  0  0.133089  0  0.986293  0  0  0.111707  0.126066  0  0.992344  0
H  H8  1  0.18592389  0.99308382  0.42427115  1  0  0.112346  0  0.927862  0  0  0.122852  0  0.985913  0  0  0.126808  0  0.982692  0  0  0.110221  0.120053  0  0.988079  0
H  H9  1  0.81407546  0.00691468  0.57572957  1  0  0.112337  0  0.927821  0  0  0.122844  0  0.985874  0  0  0.1268  0  0.982651  0  0  0.110215  0.120052  0  0.988037  0
H  H10  1  0.38809910  0.83062498  0.66156358  1  0  0.10177  0  0.953405  0  0  0.109345  0  1.021378  0  0  0.113873  0  1.016766  0  0  0.10331  0.105989  0  1.024939  0
H  H11  1  0.61190204  0.16937755  0.33843727  1  0  0.101784  0  0.953399  0  0  0.109349  0  1.021385  0  0  0.113879  0  1.016771  0  0  0.103313  0.105995  0  1.024938  0
H  H12  1  0.83266571  0.52260895  0.87004283  1  0  0.080041  0  0.912275  0  0  0.093313  0  0.96584  0  0  0.095878  0  0.963777  0  0  0.121149  0.090941  0  0.968218  0
H  H13  1  0.16733762  0.47738357  0.12995721  1  0  0.080071  0  0.912176  0  0  0.093347  0  0.965741  0  0  0.095911  0  0.963678  0  0  0.121141  0.090966  0  0.96812  0
H  H14  1  0.88949239  0.63013924  0.02758725  1  0  0.106265  0  0.964726  0  0  0.11236  0  1.031297  0  0  0.115657  0  1.030298  0  0  0.106582  0.109801  0  1.03233  0
H  H15  1  0.11050065  0.36986034  0.97240926  1  0  0.106192  0  0.964791  0  0  0.112304  0  1.03134  0  0  0.115605  0  1.030336  0  0  0.10656  0.109722  0  1.032406  0
H  H16  1  0.71148706  0.50276858  0.15283506  1  0  0.117249  0  0.95008  0  0  0.122454  0  1.017704  0  0  0.125927  0  1.014733  0  0  0.11295  0.119728  0  1.020185  0
H  H17  1  0.28850333  0.49723398  0.84716211  1  0  0.117278  0  0.950029  0  0  0.122481  0  1.017664  0  0  0.125954  0  1.014692  0  0  0.112949  0.119755  0  1.020154  0
H  H18  1  0.47533077  0.28870541  0.20379669  1  0  0.130887  0  0.965283  0  0  0.139274  0  1.024913  0  0  0.143548  0  1.021803  0  0  0.109624  0.13597  0  1.02755  0
H  H19  1  0.52466233  0.71129409  0.79620252  1  0  0.130897  0  0.965311  0  0  0.139252  0  1.024979  0  0  0.143526  0  1.021869  0  0  0.109598  0.135947  0  1.027626  0
H  H20  1  0.24614732  0.06030941  0.16399764  1  0  0.107455  0  0.933579  0  0  0.120013  0  0.98754  0  0  0.122465  0  0.987673  0  0  0.109615  0.118257  0  0.987476  0
H  H21  1  0.75384666  0.93968909  0.83600159  1  0  0.107432  0  0.933576  0  0  0.119986  0  0.987556  0  0  0.12244  0  0.987687  0  0  0.10958  0.118229  0  0.98749  0
H  H22  1  0.09605732  0.87460462  0.04741265  1  0  0.098574  0  0.99142  0  0  0.098799  0  1.069686  0  0  0.10289  0  1.065821  0  0  0.104602  0.095778  0  1.072456  0
H  H23  1  0.90394067  0.12539090  0.95258663  1  0  0.098603  0  0.991467  0  0  0.098811  0  1.069744  0  0  0.102901  0  1.06588  0  0  0.104603  0.095789  0  1.072511  0
H  H24  1  0.06664882  0.79354860  0.88455561  1  0  0.10373  0  0.937284  0  0  0.118116  0  0.987829  0  0  0.12094  0  0.987876  0  0  0.110573  0.116177  0  0.987763  0
H  H25  1  0.93334735  0.20644897  0.11544162  1  0  0.103767  0  0.937239  0  0  0.11816  0  0.987775  0  0  0.120985  0  0.98782  0  0  0.110578  0.116221  0  0.987709  0
H  H26  1  0.26811027  0.94433673  0.77263534  1  0  0.095353  0  0.953857  0  0  0.104119  0  1.013275  0  0  0.106654  0  1.010877  0  0  0.123344  0.102131  0  1.015248  0
H  H27  1  0.73188860  0.05566384  0.22736337  1  0  0.095328  0  0.953948  0  0  0.104102  0  1.013315  0  0  0.106637  0  1.010921  0  0  0.12336  0.102115  0  1.015281  0
C  C28  1  0.31200134  0.57531416  0.59765849  1  0  0.647825  0  3.914318  0  0  0.602884  0  4.198934  0  0  0.636835  0  4.193338  0  0  0.205176  0.579511  0  4.201978  0
C  C29  1  0.68799983  0.42468831  0.40234439  1  0  0.647632  0  3.914469  0  0  0.60267  0  4.199147  0  0  0.636619  0  4.193557  0  0  0.205133  0.579287  0  4.202202  0
C  C30  1  0.27996059  0.69190719  0.54805347  1  0  -0.056876  0  3.737249  0  0  -0.029895  0  3.97011  0  0  -0.040311  0  3.99377  0  0  -0.013327  -0.023419  0  3.954943  0
C  C31  1  0.72003968  0.30809629  0.45194873  1  0  -0.056646  0  3.737006  0  0  -0.029713  0  3.96992  0  0  -0.040126  0  3.993578  0  0  -0.013267  -0.023233  0  3.954759  0
C  C32  1  0.20535656  0.67536978  0.45762763  1  0  -0.042779  0  3.637974  0  0  -0.083939  0  3.889841  0  0  -0.079349  0  3.905376  0  0  -0.061789  -0.086078  0  3.878912  0
C  C33  1  0.79464639  0.32463070  0.54237526  1  0  -0.042875  0  3.637972  0  0  -0.083998  0  3.889855  0  0  -0.079407  0  3.905391  0  0  -0.061805  -0.086144  0  3.878928  0
C  C34  1  0.17217010  0.78375751  0.41281040  1  0  -0.013733  0  3.787567  0  0  0.009854  0  4.031173  0  0  0.004688  0  4.052944  0  0  -0.005802  0.012993  0  4.016188  0
C  C35  1  0.82783147  0.21624304  0.58718974  1  0  -0.013705  0  3.787541  0  0  0.00984  0  4.031197  0  0  0.004673  0  4.052971  0  0  -0.00583  0.012991  0  4.016206  0
C  C36  1  0.21258244  0.90821058  0.45804148  1  0  -0.060769  0  3.672787  0  0  -0.100722  0  3.922761  0  0  -0.096777  0  3.939482  0  0  -0.068849  -0.102403  0  3.910943  0
C  C37  1  0.78741558  0.09179092  0.54195926  1  0  -0.060846  0  3.672828  0  0  -0.100798  0  3.922814  0  0  -0.096853  0  3.939536  0  0  -0.068876  -0.102491  0  3.911005  0
C  C38  1  0.29226702  0.92614571  0.54753906  1  0  -0.079114  0  3.776342  0  0  -0.051145  0  4.012516  0  0  -0.062883  0  4.038201  0  0  -0.020404  -0.043718  0  3.995811  0
C  C39  1  0.70773146  0.07385678  0.45246239  1  0  -0.079016  0  3.776411  0  0  -0.051036  0  4.012532  0  0  -0.062772  0  4.038218  0  0  -0.020375  -0.043612  0  3.995828  0
C  C40  1  0.32514776  0.81759782  0.59212210  1  0  -0.055054  0  3.690843  0  0  -0.094479  0  3.937515  0  0  -0.090156  0  3.955284  0  0  -0.072873  -0.097384  0  3.926408  0
C  C41  1  0.67485205  0.18240468  0.40787939  1  0  -0.05508  0  3.690649  0  0  -0.094478  0  3.93731  0  0  -0.090158  0  3.955077  0  0  -0.072855  -0.097378  0  3.926194  0
C  C42  1  0.34279590  0.06146147  0.59418800  1  0  0.663321  0  3.891449  0  0  0.61027  0  4.182218  0  0  0.645115  0  4.176543  0  0  0.216313  0.586272  0  4.185386  0
C  C43  1  0.65720657  0.93854107  0.40581289  1  0  0.663141  0  3.89164  0  0  0.610106  0  4.182401  0  0  0.644949  0  4.176729  0  0  0.21627  0.586117  0  4.185553  0
C  C44  1  0.08777175  0.76772029  0.31874035  1  0  0.324816  0  3.750595  0  0  0.295122  0  4.008225  0  0  0.308117  0  4.025597  0  0  0.237617  0.286257  0  3.996521  0
C  C45  1  0.91223070  0.23227926  0.68125979  1  0  0.324764  0  3.750486  0  0  0.295083  0  4.008132  0  0  0.308079  0  4.025506  0  0  0.23757  0.286211  0  3.996431  0
C  C46  1  0.75670270  0.47021585  0.92669345  1  0  0.145713  0  3.709279  0  0  0.11146  0  3.969744  0  0  0.119423  0  3.986279  0  0  0.057902  0.105611  0  3.959131  0
C  C47  1  0.24329931  0.52977967  0.07330660  1  0  0.145635  0  3.709144  0  0  0.111371  0  3.969612  0  0  0.119335  0  3.986149  0  0  0.057876  0.105537  0  3.958977  0
C  C48  1  0.78779610  0.52987413  0.01428943  1  0  -0.124176  0  3.744191  0  0  -0.139349  0  4.006622  0  0  -0.146641  0  4.029269  0  0  -0.085266  -0.134773  0  3.991541  0
C  C49  1  0.21220008  0.47012342  0.98570848  1  0  -0.124017  0  3.74413  0  0  -0.139194  0  4.006535  0  0  -0.14649  0  4.029179  0  0  -0.085222  -0.134604  0  3.991477  0
C  C50  1  0.68959040  0.45906262  0.08419712  1  0  -0.037772  0  3.646594  0  0  -0.064032  0  3.895894  0  0  -0.061711  0  3.913591  0  0  -0.058923  -0.065002  0  3.88357  0
C  C51  1  0.31040448  0.54093789  0.91580217  1  0  -0.037864  0  3.646667  0  0  -0.06411  0  3.895977  0  0  -0.061787  0  3.913674  0  0  -0.058946  -0.065083  0  3.883651  0
C  C52  1  0.55921553  0.32869750  0.06597735  1  0  0.028341  0  3.792465  0  0  0.046102  0  4.021551  0  0  0.04367  0  4.047067  0  0  -0.001008  0.047844  0  4.002723  0
C  C53  1  0.44078156  0.67130205  0.93402130  1  0  0.028373  0  3.79253  0  0  0.046065  0  4.021677  0  0  0.043632  0  4.047193  0  0  -0.000991  0.047811  0  4.002853  0
C  C54  1  0.45132347  0.24808848  0.13409444  1  0  -0.109756  0  3.713639  0  0  -0.13109  0  3.964829  0  0  -0.135062  0  3.98706  0  0  -0.083172  -0.127905  0  3.949083  0
C  C55  1  0.54867318  0.75191004  0.86590485  1  0  -0.109692  0  3.713718  0  0  -0.130963  0  3.96488  0  0  -0.134935  0  3.987114  0  0  -0.083132  -0.127779  0  3.94914  0
C  C56  1  0.32697253  0.12252484  0.11219705  1  0  -0.097499  0  3.735266  0  0  -0.119943  0  3.991206  0  0  -0.123414  0  4.015448  0  0  -0.083061  -0.116919  0  3.974156  0
C  C57  1  0.67302323  0.87747470  0.88780157  1  0  -0.097565  0  3.73538  0  0  -0.120006  0  3.991312  0  0  -0.123478  0  4.015554  0  0  -0.08303  -0.116983  0  3.974264  0
C  C58  1  0.17629726  0.93801147  0.99583121  1  0  -0.04075  0  3.678639  0  0  -0.066943  0  3.933615  0  0  -0.063824  0  3.950511  0  0  -0.064377  -0.068011  0  3.921475  0
C  C59  1  0.82370162  0.06198907  0.00416818  1  0  -0.040891  0  3.678688  0  0  -0.067073  0  3.933692  0  0  -0.063954  0  3.950589  0  0  -0.064441  -0.068133  0  3.921547  0
C  C60  1  0.16193585  0.89283490  0.90672175  1  0  -0.118131  0  3.740688  0  0  -0.130198  0  3.995228  0  0  -0.137801  0  4.016678  0  0  -0.082243  -0.125758  0  3.980398  0
C  C61  1  0.83806344  0.10716370  0.09327559  1  0  -0.118085  0  3.740696  0  0  -0.130192  0  3.995217  0  0  -0.137792  0  4.016659  0  0  -0.082189  -0.12576  0  3.980394  0
C  C62  1  0.27334229  0.97557087  0.84343783  1  0  0.15571  0  3.672399  0  0  0.120318  0  3.925741  0  0  0.129607  0  3.941545  0  0  0.060807  0.114053  0  3.915561  0
C  C63  1  0.72665522  0.02442672  0.15655944  1  0  0.155704  0  3.672566  0  0  0.120399  0  3.925802  0  0  0.129695  0  3.941606  0  0  0.060814  0.114138  0  3.915617  0
C  C64  1  0.30175691  0.06759232  0.02137078  1  0  0.025924  0  3.779206  0  0  0.042817  0  4.010434  0  0  0.039639  0  4.035572  0  0  -0.002301  0.044493  0  3.993478  0
C  C65  1  0.69823882  0.93240423  0.97862710  1  0  0.026042  0  3.779099  0  0  0.042929  0  4.010365  0  0  0.039749  0  4.035506  0  0  -0.002264  0.044602  0  3.993408  0
C  C66  1  0.40792663  0.14473435  0.95292993  1  0  0.132962  0  3.754377  0  0  0.123095  0  3.992172  0  0  0.127694  0  4.014276  0  0  0.118727  0.120377  0  3.977411  0
C  C67  1  0.59207360  0.85526317  0.04707012  1  0  0.133015  0  3.754371  0  0  0.123099  0  3.992251  0  0  0.127703  0  4.014358  0  0  0.118718  0.120383  0  3.977492  0
C  C68  1  0.53769150  0.27735201  0.97542269  1  0  0.124764  0  3.772712  0  0  0.118913  0  4.008293  0  0  0.122128  0  4.031197  0  0  0.115987  0.116615  0  3.992589  0
C  C69  1  0.46230917  0.72264652  0.02457739  1  0  0.124702  0  3.77275  0  0  0.118908  0  4.008299  0  0  0.122125  0  4.031202  0  0  0.115977  0.116604  0  3.992602  0
N  N70  1  0.90359672  0.74425218  0.29718196  1  0  -0.355053  0  3.202782  0  0  -0.29162  0  3.507686  0  0  -0.31005  0  3.51778  0  0  -0.232146  -0.278816  0  3.500484  0
N  N71  1  0.09640797  0.25574937  0.70281897  1  0  -0.355027  0  3.202714  0  0  -0.291585  0  3.507602  0  0  -0.310014  0  3.517694  0  0  -0.232082  -0.278782  0  3.500405  0
N  N72  1  0.87843712  0.73869726  0.20558014  1  0  -0.075456  0  2.984223  0  0  -0.071637  0  3.286534  0  0  -0.070101  0  3.297692  0  0  -0.09322  -0.072397  0  3.278708  0
N  N73  1  0.12156624  0.26130127  0.79442069  1  0  -0.075373  0  2.984105  0  0  -0.071552  0  3.286414  0  0  -0.070014  0  3.297568  0  0  -0.093233  -0.07231  0  3.278585  0
N  N74  1  0.04099183  0.75791820  0.17227623  1  0  -0.097891  0  3.002148  0  0  -0.085212  0  3.299249  0  0  -0.08538  0  3.310507  0  0  -0.095416  -0.084731  0  3.291509  0
N  N75  1  0.95901153  0.24208031  0.82772527  1  0  -0.097959  0  3.002074  0  0  -0.085275  0  3.299167  0  0  -0.085443  0  3.310423  0  0  -0.095393  -0.084788  0  3.291416  0
N  N76  1  0.17576293  0.77677938  0.24159194  1  0  -0.333129  0  3.178213  0  0  -0.265854  0  3.478659  0  0  -0.283628  0  3.48826  0  0  -0.236718  -0.253999  0  3.472325  0
N  N77  1  0.82424087  0.22322016  0.75840893  1  0  -0.333135  0  3.178176  0  0  -0.265873  0  3.478629  0  0  -0.283648  0  3.48823  0  0  -0.236745  -0.254014  0  3.472294  0
N  N78  1  0.39329831  0.09784070  0.86607097  1  0  -0.347025  0  3.310347  0  0  -0.271672  0  3.590166  0  0  -0.290448  0  3.604268  0  0  -0.31779  -0.259436  0  3.581261  0
N  N79  1  0.60670233  0.90216090  0.13392713  1  0  -0.347019  0  3.310476  0  0  -0.271714  0  3.59033  0  0  -0.290507  0  3.60445  0  0  -0.317811  -0.259475  0  3.581418  0
N  N80  1  0.63561404  0.34739354  0.90785782  1  0  -0.344979  0  3.263312  0  0  -0.279433  0  3.536924  0  0  -0.295982  0  3.552007  0  0  -0.312157  -0.268082  0  3.527172  0
N  N81  1  0.36439019  0.65260401  0.09214234  1  0  -0.344997  0  3.26333  0  0  -0.279446  0  3.536927  0  0  -0.295995  0  3.55201  0  0  -0.312154  -0.268093  0  3.527165  0
O  O82  1  0.27355298  0.46512477  0.54929307  1  0  -0.641407  0  2.021423  0  0  -0.569116  0  2.283199  0  0  -0.598667  0  2.268163  0  0  -0.329485  -0.546921  0  2.293932  0
O  O83  1  0.72644108  0.53487662  0.45071027  1  0  -0.641402  0  2.02146  0  0  -0.569105  0  2.283247  0  0  -0.598653  0  2.26821  0  0  -0.329485  -0.546905  0  2.293979  0
O  O84  1  0.36981406  0.58895903  0.68029471  1  0  -0.645446  0  1.925722  0  0  -0.597493  0  2.141879  0  0  -0.621341  0  2.13186  0  0  -0.332457  -0.579911  0  2.14787  0
O  O85  1  0.63019423  0.41104753  0.31970776  1  0  -0.645357  0  1.925679  0  0  -0.597371  0  2.141847  0  0  -0.621221  0  2.131834  0  0  -0.332443  -0.579783  0  2.147837  0
O  O86  1  0.42597197  0.07667598  0.67318808  1  0  -0.652381  0  2.088223  0  0  -0.585561  0  2.3552  0  0  -0.612816  0  2.343  0  0  -0.316699  -0.565882  0  2.362508  0
O  O87  1  0.57403182  0.92332660  0.32681216  1  0  -0.65237  0  2.088342  0  0  -0.585571  0  2.355316  0  0  -0.612824  0  2.343116  0  0  -0.316725  -0.565901  0  2.362618  0
O  O88  1  0.29595055  0.15254252  0.55036575  1  0  -0.627797  0  2.046406  0  0  -0.557315  0  2.313539  0  0  -0.586019  0  2.299123  0  0  -0.31761  -0.536007  0  2.324037  0
O  O89  1  0.70404925  0.84746000  0.44963507  1  0  -0.627736  0  2.046417  0  0  -0.557264  0  2.313547  0  0  -0.585966  0  2.299131  0  0  -0.317598  -0.535961  0  2.324041  0
O  O90  1  0.54389747  0.37839640  0.70088950  1  0  -0.945737  0  1.897279  0  0  -0.849531  0  2.183611  0  0  -0.880394  0  2.145857  0  0  -0.592624  -0.82719  0  2.209806  0
O  O91  1  0.45610853  0.62160219  0.29911005  1  0  -0.945877  0  1.897139  0  0  -0.849622  0  2.183444  0  0  -0.880489  0  2.145684  0  0  -0.59269  -0.82728  0  2.20964  0
