# generated using pymatgen
data_CdH10C11N2O5
_symmetry_space_group_name_H-M   'P 1'
_cell_length_a   8.12312618
_cell_length_b   8.25313620
_cell_length_c   10.31820939
_cell_angle_alpha   65.27615007
_cell_angle_beta   68.10535266
_cell_angle_gamma   79.27306265
_symmetry_Int_Tables_number   1
_chemical_formula_structural   CdH10C11N2O5
_chemical_formula_sum   'Cd2 H20 C22 N4 O10'
_cell_volume   582.64162961
_cell_formula_units_Z   2
loop_
 _symmetry_equiv_pos_site_id
 _symmetry_equiv_pos_as_xyz
  1  'x, y, z'
loop_
 _atom_site_type_symbol
 _atom_site_label
 _atom_site_symmetry_multiplicity
 _atom_site_fract_x
 _atom_site_fract_y
 _atom_site_fract_z
 _atom_site_occupancy
 _atom_site_hle17_bader_spin_density
 _atom_site_hle17_ddec_charge
 _atom_site_hle17_ddec_spin_density
 _atom_site_hle17_ddec_sum_bond_order
 _atom_site_hle17_magmom
 _atom_site_hse06_10hf_bader_spin_density
 _atom_site_hse06_10hf_ddec_charge
 _atom_site_hse06_10hf_ddec_spin_density
 _atom_site_hse06_10hf_ddec_sum_bond_order
 _atom_site_hse06_10hf_magmom
 _atom_site_hse06_bader_spin_density
 _atom_site_hse06_ddec_charge
 _atom_site_hse06_ddec_spin_density
 _atom_site_hse06_ddec_sum_bond_order
 _atom_site_hse06_magmom
 _atom_site_pbe_bader_spin_density
 _atom_site_pbe_cm5_charge
 _atom_site_pbe_ddec_charge
 _atom_site_pbe_ddec_spin_density
 _atom_site_pbe_ddec_sum_bond_order
 _atom_site_pbe_magmom
Cd  Cd0  1  0.09347633  0.31539928  0.90388796  1  0  1.185736  0  1.602191  0  0  1.004396  0  2.034558  0  0  1.062325  0  1.980868  0  0  0.775009  0.960163  0  2.073387  0
Cd  Cd1  1  0.90652115  0.68460525  0.09611142  1  0  1.185718  0  1.602204  0  0  1.004373  0  2.034577  0  0  1.062302  0  1.980889  0  0  0.774997  0.960139  0  2.073407  0
H  H2  1  0.19773233  0.99268155  0.85089369  1  0  0.427949  0  0.869589  0  0  0.39821  0  0.931833  0  0  0.408847  0  0.916334  0  0  0.293103  0.390533  0  0.943048  0
H  H3  1  0.80226376  0.00732568  0.14910425  1  0  0.428017  0  0.869494  0  0  0.398286  0  0.931722  0  0  0.408922  0  0.916225  0  0  0.293148  0.390609  0  0.942937  0
H  H4  1  0.21082895  0.94402043  0.00763538  1  0  0.421973  0  0.881578  0  0  0.39037  0  0.946856  0  0  0.401488  0  0.930663  0  0  0.28634  0.382422  0  0.958451  0
H  H5  1  0.78916588  0.05598414  0.99236478  1  0  0.421952  0  0.881605  0  0  0.390349  0  0.946887  0  0  0.401465  0  0.930696  0  0  0.28633  0.382401  0  0.958482  0
H  H6  1  0.71858019  0.59706057  0.55018941  1  0  0.311711  0  0.930851  0  0  0.29182  0  0.993749  0  0  0.3008  0  0.986439  0  0  0.306977  0.285336  0  0.999179  0
H  H7  1  0.28142006  0.40293990  0.44981242  1  0  0.311712  0  0.93089  0  0  0.291836  0  0.99379  0  0  0.300798  0  0.986485  0  0  0.306983  0.285353  0  0.999218  0
H  H8  1  0.33449205  0.94756784  0.58799641  1  0  0.094711  0  0.951646  0  0  0.105475  0  1.015384  0  0  0.108502  0  1.01332  0  0  0.103042  0.103297  0  1.016922  0
H  H9  1  0.66550946  0.05243403  0.41199973  1  0  0.094684  0  0.95168  0  0  0.105452  0  1.015422  0  0  0.108478  0  1.013359  0  0  0.103027  0.103272  0  1.016964  0
H  H10  1  0.47481136  0.01600040  0.30949294  1  0  0.090146  0  0.978271  0  0  0.098821  0  1.042566  0  0  0.102131  0  1.041074  0  0  0.098038  0.096408  0  1.043879  0
H  H11  1  0.52518885  0.98400015  0.69050402  1  0  0.09007  0  0.978312  0  0  0.098733  0  1.042628  0  0  0.102042  0  1.041136  0  0  0.098007  0.096319  0  1.043941  0
H  H12  1  0.33435397  0.92227748  0.17924269  1  0  0.105542  0  0.934327  0  0  0.120299  0  0.986931  0  0  0.123603  0  0.984498  0  0  0.11054  0.117968  0  0.988747  0
H  H13  1  0.66564634  0.07771905  0.82075652  1  0  0.105574  0  0.934305  0  0  0.120329  0  0.98691  0  0  0.123632  0  0.984478  0  0  0.110541  0.117997  0  0.988728  0
H  H14  1  0.92982080  0.66615502  0.60321358  1  0  0.0992  0  0.968757  0  0  0.107113  0  1.036881  0  0  0.110737  0  1.033678  0  0  0.106016  0.104438  0  1.039378  0
H  H15  1  0.07018083  0.33384279  0.39678676  1  0  0.099132  0  0.968834  0  0  0.107082  0  1.036905  0  0  0.110707  0  1.033701  0  0  0.106004  0.104407  0  1.039402  0
H  H16  1  0.47210348  0.39374372  0.60973533  1  0  0.080663  0  0.967755  0  0  0.091399  0  1.031625  0  0  0.093014  0  1.030008  0  0  0.13201  0.090658  0  1.031839  0
H  H17  1  0.52789680  0.60625542  0.39026692  1  0  0.080754  0  0.967681  0  0  0.091414  0  1.03163  0  0  0.093024  0  1.030021  0  0  0.132043  0.090677  0  1.031845  0
H  H18  1  0.33082001  0.55788620  0.97383033  1  0  0.113275  0  0.966137  0  0  0.121125  0  1.028862  0  0  0.123638  0  1.027803  0  0  0.11702  0.119482  0  1.029251  0
H  H19  1  0.66918166  0.44211025  0.02617238  1  0  0.113251  0  0.966137  0  0  0.121076  0  1.028908  0  0  0.123588  0  1.027848  0  0  0.116996  0.119436  0  1.029288  0
H  H20  1  0.65907904  0.69290812  0.77075899  1  0  0.111304  0  0.970594  0  0  0.12191  0  1.029264  0  0  0.124061  0  1.02891  0  0  0.121426  0.120242  0  1.029672  0
H  H21  1  0.34092260  0.30708965  0.22924427  1  0  0.111318  0  0.970587  0  0  0.121917  0  1.029265  0  0  0.124073  0  1.028904  0  0  0.121435  0.12024  0  1.029683  0
C  C22  1  0.04137251  0.75075680  0.77934848  1  0  0.650625  0  3.914753  0  0  0.595649  0  4.207657  0  0  0.630637  0  4.201972  0  0  0.202413  0.571755  0  4.210716  0
C  C23  1  0.95863038  0.24924367  0.22065062  1  0  0.650523  0  3.914862  0  0  0.595555  0  4.207765  0  0  0.630543  0  4.202082  0  0  0.202348  0.571662  0  4.210826  0
C  C24  1  0.12267613  0.80294259  0.61221582  1  0  -0.075844  0  3.7675  0  0  -0.048416  0  4.002724  0  0  -0.059261  0  4.027786  0  0  -0.019699  -0.041382  0  3.985902  0
C  C25  1  0.87732818  0.19705386  0.38778417  1  0  -0.075795  0  3.767601  0  0  -0.048374  0  4.002837  0  0  -0.05922  0  4.027904  0  0  -0.019709  -0.041341  0  3.986016  0
C  C26  1  0.27557424  0.90390622  0.52943222  1  0  -0.042302  0  3.702023  0  0  -0.073283  0  3.955489  0  0  -0.070135  0  3.974578  0  0  -0.077611  -0.074927  0  3.94216  0
C  C27  1  0.72442999  0.09609294  0.47056400  1  0  -0.04237  0  3.702173  0  0  -0.073373  0  3.95566  0  0  -0.070224  0  3.974749  0  0  -0.077637  -0.075016  0  3.942329  0
C  C28  1  0.35209779  0.94396272  0.37449652  1  0  -0.092984  0  3.77706  0  0  -0.102095  0  4.033313  0  0  -0.107633  0  4.054476  0  0  -0.09413  -0.098429  0  4.018726  0
C  C29  1  0.64790379  0.05603648  0.62550048  1  0  -0.092852  0  3.776985  0  0  -0.101948  0  4.033231  0  0  -0.107488  0  4.054398  0  0  -0.094087  -0.098281  0  4.018638  0
C  C30  1  0.27308480  0.89072701  0.30020567  1  0  -0.042234  0  3.701707  0  0  -0.072231  0  3.951814  0  0  -0.069124  0  3.969632  0  0  -0.076168  -0.073894  0  3.939569  0
C  C31  1  0.72691682  0.10927084  0.69979273  1  0  -0.042312  0  3.701758  0  0  -0.072301  0  3.95185  0  0  -0.069194  0  3.969668  0  0  -0.076188  -0.073963  0  3.9396  0
C  C32  1  0.02961023  0.73756318  0.30290185  1  0  0.657826  0  3.888413  0  0  0.601708  0  4.186014  0  0  0.636819  0  4.178734  0  0  0.205815  0.577848  0  4.190094  0
C  C33  1  0.97038867  0.26243736  0.69709744  1  0  0.657801  0  3.888378  0  0  0.601662  0  4.185996  0  0  0.636772  0  4.178716  0  0  0.205827  0.577801  0  4.190075  0
C  C34  1  0.04591432  0.74752471  0.53744079  1  0  -0.055783  0  3.693639  0  0  -0.093421  0  3.94222  0  0  -0.089912  0  3.961206  0  0  -0.076381  -0.095359  0  3.92979  0
C  C35  1  0.95408866  0.25247176  0.46255959  1  0  -0.055678  0  3.693612  0  0  -0.093336  0  3.942181  0  0  -0.089827  0  3.961168  0  0  -0.076341  -0.095275  0  3.929752  0
C  C36  1  0.47491983  0.46029633  0.67944180  1  0  0.214853  0  3.701183  0  0  0.154816  0  3.970769  0  0  0.168921  0  3.985721  0  0  0.136609  0.145514  0  3.959527  0
C  C37  1  0.52507905  0.53970550  0.32055902  1  0  0.214768  0  3.701097  0  0  0.154819  0  3.970713  0  0  0.168898  0  3.985652  0  0  0.136582  0.145512  0  3.959478  0
C  C38  1  0.40753616  0.54636202  0.86674383  1  0  0.00086  0  3.728604  0  0  -0.031617  0  3.989491  0  0  -0.029483  0  4.010293  0  0  -0.005848  -0.033256  0  3.974831  0
C  C39  1  0.59246544  0.45363710  0.13325803  1  0  0.000927  0  3.728482  0  0  -0.031522  0  3.98937  0  0  -0.029389  0  4.010181  0  0  -0.005803  -0.033159  0  3.974709  0
C  C40  1  0.56875533  0.61577904  0.76624595  1  0  -0.00942  0  3.680386  0  0  -0.045241  0  3.941414  0  0  -0.043621  0  3.959712  0  0  0.002355  -0.046433  0  3.929199  0
C  C41  1  0.43124495  0.38422009  0.23375630  1  0  -0.009472  0  3.680347  0  0  -0.045266  0  3.941405  0  0  -0.043679  0  3.959685  0  0  0.002348  -0.046448  0  3.929196  0
C  C42  1  0.11752839  0.79356017  0.38116739  1  0  -0.077486  0  3.755455  0  0  -0.052779  0  3.995456  0  0  -0.062478  0  4.018373  0  0  -0.020475  -0.046663  0  3.980396  0
C  C43  1  0.88247323  0.20643767  0.61883198  1  0  -0.077466  0  3.755507  0  0  -0.052743  0  3.995493  0  0  -0.062443  0  4.018412  0  0  -0.02044  -0.046627  0  3.98043  0
N  N44  1  0.35068715  0.44926000  0.81085339  1  0  -0.41561  0  3.288942  0  0  -0.331196  0  3.567626  0  0  -0.355516  0  3.586866  0  0  -0.367544  -0.314183  0  3.553787  0
N  N45  1  0.64931446  0.55073912  0.18914847  1  0  -0.415625  0  3.288875  0  0  -0.331203  0  3.56752  0  0  -0.355527  0  3.586766  0  0  -0.367543  -0.31419  0  3.553683  0
N  N46  1  0.60847857  0.56105387  0.64841357  1  0  -0.288099  0  3.458313  0  0  -0.22043  0  3.694291  0  0  -0.237113  0  3.709574  0  0  -0.380023  -0.20934  0  3.684041  0
N  N47  1  0.39152301  0.43894658  0.35158787  1  0  -0.288042  0  3.458328  0  0  -0.220462  0  3.69438  0  0  -0.237064  0  3.7096  0  0  -0.380034  -0.209371  0  3.684128  0
O  O48  1  0.94500453  0.61413712  0.85727525  1  0  -0.67559  0  2.01163  0  0  -0.60808  0  2.269964  0  0  -0.637026  0  2.258306  0  0  -0.329448  -0.587085  0  2.277183  0
O  O49  1  0.05499703  0.38586336  0.14272424  1  0  -0.675506  0  2.011698  0  0  -0.608022  0  2.270062  0  0  -0.636967  0  2.258404  0  0  -0.329416  -0.587027  0  2.277282  0
O  O50  1  0.06903552  0.84431218  0.84112229  1  0  -0.656087  0  2.043116  0  0  -0.582715  0  2.286464  0  0  -0.612939  0  2.276993  0  0  -0.315452  -0.56083  0  2.293225  0
O  O51  1  0.93096331  0.15569104  0.15887518  1  0  -0.65608  0  2.043058  0  0  -0.582701  0  2.286386  0  0  -0.612926  0  2.276917  0  0  -0.315419  -0.560819  0  2.293148  0
O  O52  1  0.11388076  0.75880151  0.16384854  1  0  -0.665084  0  2.039137  0  0  -0.587364  0  2.280369  0  0  -0.617965  0  2.269178  0  0  -0.323918  -0.565017  0  2.28793  0
O  O53  1  0.88611678  0.24120037  0.83615072  1  0  -0.665081  0  2.039132  0  0  -0.587366  0  2.280406  0  0  -0.61796  0  2.269202  0  0  -0.323932  -0.565017  0  2.287966  0
O  O54  1  0.87698449  0.67169459  0.37200180  1  0  -0.637459  0  1.963  0  0  -0.579803  0  2.197393  0  0  -0.60661  0  2.189414  0  0  -0.318015  -0.560493  0  2.201779  0
O  O55  1  0.12301439  0.32830725  0.62799901  1  0  -0.637433  0  1.962945  0  0  -0.579779  0  2.197364  0  0  -0.606592  0  2.189402  0  0  -0.318028  -0.56047  0  2.201749  0
O  O56  1  0.24615191  0.03797609  0.90373861  1  0  -0.832411  0  1.82214  0  0  -0.774429  0  2.003843  0  0  -0.796694  0  1.970942  0  0  -0.591999  -0.758764  0  2.027171  0
O  O57  1  0.75384156  0.96202982  0.09626151  1  0  -0.832474  0  1.822101  0  0  -0.774499  0  2.003816  0  0  -0.796758  0  1.970906  0  0  -0.592044  -0.758833  0  2.027146  0
