# generated using pymatgen
data_CdH14C21(NO3)2
_symmetry_space_group_name_H-M   'P 1'
_cell_length_a   8.92550670
_cell_length_b   9.86922521
_cell_length_c   12.28154357
_cell_angle_alpha   91.66272510
_cell_angle_beta   103.88658218
_cell_angle_gamma   115.42750689
_symmetry_Int_Tables_number   1
_chemical_formula_structural   CdH14C21(NO3)2
_chemical_formula_sum   'Cd2 H28 C42 N4 O12'
_cell_volume   937.67532350
_cell_formula_units_Z   2
loop_
 _symmetry_equiv_pos_site_id
 _symmetry_equiv_pos_as_xyz
  1  'x, y, z'
loop_
 _atom_site_type_symbol
 _atom_site_label
 _atom_site_symmetry_multiplicity
 _atom_site_fract_x
 _atom_site_fract_y
 _atom_site_fract_z
 _atom_site_occupancy
 _atom_site_hle17_bader_spin_density
 _atom_site_hle17_ddec_charge
 _atom_site_hle17_ddec_spin_density
 _atom_site_hle17_ddec_sum_bond_order
 _atom_site_hle17_magmom
 _atom_site_hse06_10hf_bader_spin_density
 _atom_site_hse06_10hf_ddec_charge
 _atom_site_hse06_10hf_ddec_spin_density
 _atom_site_hse06_10hf_ddec_sum_bond_order
 _atom_site_hse06_10hf_magmom
 _atom_site_hse06_bader_spin_density
 _atom_site_hse06_ddec_charge
 _atom_site_hse06_ddec_spin_density
 _atom_site_hse06_ddec_sum_bond_order
 _atom_site_hse06_magmom
 _atom_site_pbe_bader_spin_density
 _atom_site_pbe_cm5_charge
 _atom_site_pbe_ddec_charge
 _atom_site_pbe_ddec_spin_density
 _atom_site_pbe_ddec_sum_bond_order
 _atom_site_pbe_magmom
Cd  Cd0  1  0.18710325  0.47281678  0.02621700  1  0  1.097358  0  1.705119  0  0  0.904333  0  2.144486  0  0  0.962563  0  2.093677  0  0  0.776853  0.863209  0  2.178759  0
Cd  Cd1  1  0.81289478  0.52718285  0.97378355  1  0  1.097377  0  1.705118  0  0  0.904377  0  2.144443  0  0  0.962589  0  2.093671  0  0  0.776875  0.863259  0  2.178719  0
H  H2  1  0.11203872  0.62485881  0.43635789  1  0  0.411461  0  0.786062  0  0  0.396155  0  0.839368  0  0  0.405702  0  0.829103  0  0  0.344939  0.389335  0  0.846796  0
H  H3  1  0.88796568  0.37514649  0.56364144  1  0  0.411435  0  0.7861  0  0  0.396118  0  0.839419  0  0  0.405663  0  0.829159  0  0  0.344941  0.389302  0  0.846844  0
H  H4  1  0.27867178  0.18206588  0.04142635  1  0  0.082435  0  0.948275  0  0  0.088975  0  1.018095  0  0  0.091821  0  1.0146  0  0  0.11757  0.086834  0  1.020715  0
H  H5  1  0.72132395  0.81793601  0.95857138  1  0  0.082429  0  0.948296  0  0  0.088954  0  1.018152  0  0  0.091798  0  1.014652  0  0  0.117557  0.086811  0  1.020769  0
H  H6  1  0.29249423  0.00260400  0.17833739  1  0  0.122351  0  0.953895  0  0  0.131593  0  1.011671  0  0  0.134491  0  1.011638  0  0  0.112361  0.129551  0  1.011794  0
H  H7  1  0.70750553  0.99739445  0.82165611  1  0  0.122307  0  0.954027  0  0  0.13159  0  1.011762  0  0  0.134487  0  1.011727  0  0  0.112342  0.12955  0  1.011885  0
H  H8  1  0.29780818  0.06552898  0.37830252  1  0  0.118135  0  0.96988  0  0  0.128804  0  1.029915  0  0  0.132115  0  1.02718  0  0  0.109863  0.126321  0  1.031996  0
H  H9  1  0.70219330  0.93446382  0.62169442  1  0  0.118084  0  0.96999  0  0  0.128769  0  1.030004  0  0  0.132079  0  1.027272  0  0  0.109848  0.126285  0  1.032085  0
H  H10  1  0.26933033  0.47593919  0.28314213  1  0  0.095349  0  0.947222  0  0  0.103351  0  1.012599  0  0  0.10679  0  1.009112  0  0  0.11645  0.100895  0  1.014975  0
H  H11  1  0.73066770  0.52405593  0.71686320  1  0  0.095338  0  0.947237  0  0  0.103307  0  1.01265  0  0  0.106751  0  1.009153  0  0  0.116417  0.100852  0  1.015025  0
H  H12  1  0.28928600  0.43695919  0.47477275  1  0  0.087257  0  0.953389  0  0  0.100337  0  1.013614  0  0  0.103198  0  1.011912  0  0  0.102111  0.098189  0  1.014968  0
H  H13  1  0.71071144  0.56303474  0.52522269  1  0  0.087202  0  0.953362  0  0  0.100313  0  1.013567  0  0  0.103148  0  1.011891  0  0  0.102098  0.098166  0  1.014922  0
H  H14  1  0.19828329  0.10975513  0.52174961  1  0  0.097378  0  0.955696  0  0  0.108489  0  1.019008  0  0  0.111057  0  1.018488  0  0  0.103928  0.106432  0  1.019806  0
H  H15  1  0.80171877  0.89024111  0.47825320  1  0  0.097373  0  0.955746  0  0  0.108512  0  1.019029  0  0  0.11108  0  1.018512  0  0  0.103927  0.106443  0  1.019826  0
H  H16  1  0.06667367  0.05347158  0.68127681  1  0  0.103571  0  0.953375  0  0  0.114538  0  1.013984  0  0  0.116672  0  1.015575  0  0  0.105417  0.113342  0  1.012616  0
H  H17  1  0.93333072  0.94653147  0.31872654  1  0  0.103614  0  0.953391  0  0  0.114633  0  1.013935  0  0  0.116761  0  1.015545  0  0  0.105451  0.113436  0  1.012566  0
H  H18  1  0.04603038  0.14697558  0.86607994  1  0  0.091186  0  0.948728  0  0  0.099719  0  1.012785  0  0  0.102176  0  1.010572  0  0  0.119389  0.097934  0  1.014249  0
H  H19  1  0.95397228  0.85302632  0.13392064  1  0  0.091172  0  0.948719  0  0  0.099706  0  1.012783  0  0  0.102162  0  1.010568  0  0  0.119387  0.097922  0  1.014246  0
H  H20  1  0.34550819  0.59410022  0.83878734  1  0  0.087943  0  0.947789  0  0  0.09652  0  1.012485  0  0  0.098551  0  1.011151  0  0  0.116548  0.094761  0  1.01409  0
H  H21  1  0.65449043  0.40590054  0.16121169  1  0  0.087935  0  0.947839  0  0  0.096512  0  1.012518  0  0  0.098543  0  1.011187  0  0  0.116556  0.094753  0  1.014121  0
H  H22  1  0.36810255  0.52293723  0.65027811  1  0  0.099325  0  0.969523  0  0  0.109043  0  1.031594  0  0  0.111301  0  1.032581  0  0  0.102714  0.107343  0  1.03132  0
H  H23  1  0.63189260  0.47706353  0.34972032  1  0  0.099277  0  0.969505  0  0  0.108991  0  1.031593  0  0  0.111248  0  1.03258  0  0  0.102675  0.10729  0  1.031317  0
H  H24  1  0.09254470  0.65971829  0.70728502  1  0  0.105772  0  0.947761  0  0  0.112684  0  1.015652  0  0  0.116513  0  1.012317  0  0  0.105105  0.109642  0  1.018711  0
H  H25  1  0.90745508  0.34028473  0.29271263  1  0  0.10577  0  0.947715  0  0  0.112694  0  1.015599  0  0  0.116519  0  1.012268  0  0  0.105115  0.109648  0  1.018656  0
H  H26  1  0.47661485  0.08214942  0.64888728  1  0  0.119241  0  0.939779  0  0  0.125504  0  1.006724  0  0  0.130007  0  1.002329  0  0  0.110737  0.122249  0  1.009883  0
H  H27  1  0.52338896  0.91785022  0.35111590  1  0  0.119262  0  0.939711  0  0  0.125505  0  1.006694  0  0  0.130008  0  1.002298  0  0  0.110734  0.122259  0  1.009843  0
H  H28  1  0.36934742  0.04258649  0.97229402  1  0  0.10537  0  0.9615  0  0  0.111932  0  1.03151  0  0  0.11551  0  1.028282  0  0  0.107793  0.109365  0  1.033804  0
H  H29  1  0.63064485  0.95741541  0.02770555  1  0  0.105404  0  0.96157  0  0  0.111969  0  1.031548  0  0  0.11553  0  1.028362  0  0  0.107832  0.109402  0  1.033839  0
C  C30  1  0.27998199  0.20544100  0.12894136  1  0  0.143417  0  3.67381  0  0  0.110148  0  3.928307  0  0  0.118622  0  3.944687  0  0  0.055076  0.104612  0  3.917121  0
C  C31  1  0.72001721  0.79456088  0.87105699  1  0  0.1434  0  3.673941  0  0  0.110126  0  3.928476  0  0  0.118609  0  3.944841  0  0  0.055068  0.104598  0  3.917284  0
C  C32  1  0.28887183  0.10651020  0.20625016  1  0  -0.1081  0  3.712696  0  0  -0.117499  0  3.960828  0  0  -0.125108  0  3.983111  0  0  -0.079191  -0.112687  0  3.945785  0
C  C33  1  0.71113024  0.89348602  0.79374939  1  0  -0.108115  0  3.712947  0  0  -0.117564  0  3.961095  0  0  -0.125172  0  3.983373  0  0  -0.079221  -0.112752  0  3.946051  0
C  C34  1  0.28925218  0.14135885  0.31684684  1  0  -0.057648  0  3.655044  0  0  -0.080223  0  3.893115  0  0  -0.077955  0  3.911856  0  0  -0.064695  -0.081217  0  3.880233  0
C  C35  1  0.71075163  0.85864075  0.68315065  1  0  -0.05749  0  3.655035  0  0  -0.080067  0  3.893108  0  0  -0.077797  0  3.911849  0  0  -0.064597  -0.081061  0  3.880226  0
C  C36  1  0.27885710  0.27499511  0.34785197  1  0  0.024862  0  3.836313  0  0  0.046936  0  4.073101  0  0  0.042079  0  4.099125  0  0  -0.013577  0.049972  0  4.055223  0
C  C37  1  0.72114439  0.72499997  0.65214746  1  0  0.024765  0  3.836373  0  0  0.046812  0  4.073195  0  0  0.04196  0  4.099207  0  0  -0.013646  0.04985  0  4.055317  0
C  C38  1  0.27411198  0.36908966  0.26478787  1  0  0.076934  0  3.676252  0  0  0.039252  0  3.926889  0  0  0.045077  0  3.945512  0  0  0.047041  0.035479  0  3.914267  0
C  C39  1  0.72589182  0.63090770  0.73521364  1  0  0.076987  0  3.676264  0  0  0.039378  0  3.926795  0  0  0.045176  0  3.945469  0  0  0.047117  0.035605  0  3.914174  0
C  C40  1  0.26889278  0.31978054  0.45877611  1  0  -0.08882  0  3.754302  0  0  -0.11107  0  4.005114  0  0  -0.111542  0  4.027413  0  0  -0.082236  -0.110385  0  3.989707  0
C  C41  1  0.73110928  0.68021567  0.54122263  1  0  -0.0887  0  3.754101  0  0  -0.110974  0  4.004929  0  0  -0.111421  0  4.027234  0  0  -0.082207  -0.110291  0  3.989516  0
C  C42  1  0.22814302  0.22936078  0.53845767  1  0  -0.114919  0  3.71539  0  0  -0.132817  0  3.964824  0  0  -0.13816  0  3.986664  0  0  -0.086222  -0.129181  0  3.950039  0
C  C43  1  0.77185906  0.77063998  0.46154198  1  0  -0.11497  0  3.715381  0  0  -0.132891  0  3.964818  0  0  -0.138235  0  3.986649  0  0  -0.086227  -0.129235  0  3.95004  0
C  C44  1  0.21691007  0.28027563  0.64747819  1  0  0.139322  0  3.797513  0  0  0.152622  0  4.029454  0  0  0.15881  0  4.052014  0  0  0.0071  0.148407  0  4.014452  0
C  C45  1  0.78308912  0.71972400  0.35252337  1  0  0.139365  0  3.79771  0  0  0.15264  0  4.029682  0  0  0.158828  0  4.052244  0  0  0.007093  0.148423  0  4.014681  0
C  C46  1  0.12809116  0.17486789  0.71195092  1  0  -0.160911  0  3.698898  0  0  -0.176765  0  3.944791  0  0  -0.185937  0  3.967527  0  0  -0.081584  -0.171064  0  3.929861  0
C  C47  1  0.87191035  0.82513402  0.28805191  1  0  -0.160952  0  3.699065  0  0  -0.176842  0  3.944943  0  0  -0.186017  0  3.967676  0  0  -0.081598  -0.17114  0  3.930014  0
C  C48  1  0.11820827  0.22524211  0.81560284  1  0  0.138301  0  3.695925  0  0  0.106135  0  3.946028  0  0  0.114652  0  3.963588  0  0  0.051219  0.100989  0  3.933909  0
C  C49  1  0.88179555  0.77475980  0.18439958  1  0  0.138315  0  3.695963  0  0  0.106143  0  3.946076  0  0  0.114663  0  3.963631  0  0  0.051222  0.100995  0  3.933958  0
C  C50  1  0.28289661  0.47586888  0.79916114  1  0  0.130148  0  3.714384  0  0  0.098244  0  3.965766  0  0  0.106167  0  3.984189  0  0  0.042351  0.092932  0  3.95401  0
C  C51  1  0.71710374  0.52413301  0.20083823  1  0  0.130121  0  3.714418  0  0  0.098231  0  3.965793  0  0  0.106157  0  3.984213  0  0  0.042318  0.09292  0  3.954034  0
C  C52  1  0.29455624  0.43473285  0.69400829  1  0  -0.159551  0  3.695684  0  0  -0.176674  0  3.941934  0  0  -0.18514  0  3.963873  0  0  -0.08583  -0.17159  0  3.928095  0
C  C53  1  0.70544180  0.56526905  0.30599148  1  0  -0.159537  0  3.695742  0  0  -0.176657  0  3.941991  0  0  -0.185123  0  3.963932  0  0  -0.085796  -0.171569  0  3.92815  0
C  C54  1  0.22169053  0.84081125  0.84819909  1  0  -0.056476  0  3.736048  0  0  -0.029056  0  3.972848  0  0  -0.038817  0  3.995086  0  0  -0.015058  -0.023184  0  3.958226  0
C  C55  1  0.77830289  0.15918838  0.15180064  1  0  -0.056446  0  3.736143  0  0  -0.029037  0  3.972938  0  0  -0.038795  0  3.995171  0  0  -0.015068  -0.023165  0  3.958314  0
C  C56  1  0.18937034  0.77683528  0.73697310  1  0  -0.059044  0  3.685373  0  0  -0.100272  0  3.940119  0  0  -0.095528  0  3.958212  0  0  -0.074726  -0.10315  0  3.928398  0
C  C57  1  0.81062711  0.22316319  0.26302324  1  0  -0.059072  0  3.685526  0  0  -0.100304  0  3.940264  0  0  -0.095565  0  3.958368  0  0  -0.074753  -0.103176  0  3.928536  0
C  C58  1  0.27839022  0.86458462  0.66435048  1  0  -0.100447  0  3.80346  0  0  -0.07391  0  4.041736  0  0  -0.086055  0  4.067527  0  0  -0.024642  -0.066054  0  4.024246  0
C  C59  1  0.72161474  0.13541500  0.33564965  1  0  -0.100472  0  3.803292  0  0  -0.073906  0  4.041596  0  0  -0.086053  0  4.067381  0  0  -0.024638  -0.066052  0  4.024107  0
C  C60  1  0.40441908  0.01494413  0.70432278  1  0  -0.054688  0  3.677949  0  0  -0.095398  0  3.930562  0  0  -0.090536  0  3.947466  0  0  -0.066083  -0.098246  0  3.918856  0
C  C61  1  0.59558299  0.98505436  0.29567763  1  0  -0.05474  0  3.678001  0  0  -0.095444  0  3.930627  0  0  -0.090583  0  3.947537  0  0  -0.066127  -0.098299  0  3.918917  0
C  C62  1  0.43801168  0.07866889  0.81582133  1  0  -0.062699  0  3.747844  0  0  -0.03569  0  3.983905  0  0  -0.045809  0  4.006513  0  0  -0.013967  -0.028655  0  3.968489  0
C  C63  1  0.56198752  0.92133530  0.18418277  1  0  -0.062764  0  3.748036  0  0  -0.035733  0  3.984072  0  0  -0.045854  0  4.006682  0  0  -0.013983  -0.028697  0  3.968655  0
C  C64  1  0.34475335  0.99171462  0.88621813  1  0  -0.042099  0  3.665213  0  0  -0.081523  0  3.914988  0  0  -0.076564  0  3.931389  0  0  -0.063855  -0.084777  0  3.904175  0
C  C65  1  0.65523949  0.00828386  0.11377822  1  0  -0.042023  0  3.665212  0  0  -0.081453  0  3.915007  0  0  -0.076495  0  3.931401  0  0  -0.063829  -0.084704  0  3.904192  0
C  C66  1  0.11908097  0.75358329  0.92514881  1  0  0.639763  0  3.930227  0  0  0.587265  0  4.222116  0  0  0.621392  0  4.217033  0  0  0.194623  0.564286  0  4.224688  0
C  C67  1  0.88091591  0.24641407  0.07485067  1  0  0.639721  0  3.930359  0  0  0.587264  0  4.222184  0  0  0.621393  0  4.217098  0  0  0.194641  0.564285  0  4.224757  0
C  C68  1  0.56979919  0.24049697  0.86005624  1  0  0.626075  0  3.944377  0  0  0.579099  0  4.232617  0  0  0.612818  0  4.229036  0  0  0.186409  0.556283  0  4.233946  0
C  C69  1  0.43019596  0.75950380  0.13994545  1  0  0.626013  0  3.944496  0  0  0.579032  0  4.232738  0  0  0.612753  0  4.229162  0  0  0.186371  0.556214  0  4.234066  0
C  C70  1  0.23911924  0.80435166  0.54369186  1  0  0.632929  0  3.829283  0  0  0.587229  0  4.125522  0  0  0.619701  0  4.117759  0  0  0.228346  0.565052  0  4.130285  0
C  C71  1  0.76088052  0.19564234  0.45631620  1  0  0.632859  0  3.829399  0  0  0.587087  0  4.125736  0  0  0.619566  0  4.11796  0  0  0.228239  0.564912  0  4.1305  0
N  N72  1  0.27418450  0.33494778  0.15842004  1  0  -0.335866  0  3.297443  0  0  -0.256698  0  3.560497  0  0  -0.277178  0  3.580967  0  0  -0.331688  -0.242636  0  3.54615  0
N  N73  1  0.72581239  0.66505185  0.84158112  1  0  -0.335857  0  3.297401  0  0  -0.256702  0  3.560453  0  0  -0.277174  0  3.58091  0  0  -0.33167  -0.242639  0  3.546105  0
N  N74  1  0.19571681  0.37330483  0.85919596  1  0  -0.326768  0  3.262578  0  0  -0.243346  0  3.526046  0  0  -0.26456  0  3.543498  0  0  -0.331533  -0.228946  0  3.513667  0
N  N75  1  0.80428643  0.62669820  0.14080312  1  0  -0.326724  0  3.26255  0  0  -0.243308  0  3.526014  0  0  -0.264519  0  3.543465  0  0  -0.331513  -0.228907  0  3.513637  0
O  O76  1  0.04702973  0.60601933  0.90145501  1  0  -0.693054  0  2.058936  0  0  -0.611417  0  2.320147  0  0  -0.643465  0  2.308148  0  0  -0.346101  -0.588921  0  2.327362  0
O  O77  1  0.95296715  0.39398029  0.09854288  1  0  -0.693066  0  2.058954  0  0  -0.611463  0  2.320194  0  0  -0.643503  0  2.308177  0  0  -0.346104  -0.588961  0  2.327398  0
O  O78  1  0.10110430  0.82453050  0.00304565  1  0  -0.603416  0  1.922899  0  0  -0.557668  0  2.152319  0  0  -0.582041  0  2.146013  0  0  -0.313339  -0.540623  0  2.155822  0
O  O79  1  0.89889315  0.17546801  0.99695558  1  0  -0.603387  0  1.923002  0  0  -0.55765  0  2.152396  0  0  -0.582026  0  2.146097  0  0  -0.313345  -0.540607  0  2.155901  0
O  O80  1  0.57232650  0.29743518  0.95650036  1  0  -0.651503  0  1.959544  0  0  -0.588664  0  2.204326  0  0  -0.619368  0  2.197433  0  0  -0.340474  -0.566922  0  2.208079  0
O  O81  1  0.42766807  0.70256445  0.04349957  1  0  -0.651527  0  1.959523  0  0  -0.588681  0  2.204307  0  0  -0.619367  0  2.197373  0  0  -0.340472  -0.566937  0  2.208058  0
O  O82  1  0.67091332  0.31234400  0.80278243  1  0  -0.619312  0  1.89942  0  0  -0.568626  0  2.123076  0  0  -0.593898  0  2.113452  0  0  -0.334763  -0.550575  0  2.128894  0
O  O83  1  0.32907954  0.68766130  0.19721731  1  0  -0.619236  0  1.899559  0  0  -0.568549  0  2.123211  0  0  -0.593827  0  2.113591  0  0  -0.334746  -0.550499  0  2.129026  0
O  O84  1  0.28681522  0.88135037  0.47086953  1  0  -0.531758  0  1.946879  0  0  -0.495667  0  2.162477  0  0  -0.514829  0  2.153575  0  0  -0.278846  -0.482433  0  2.168309  0
O  O85  1  0.71319841  0.11865490  0.52912735  1  0  -0.531501  0  1.947341  0  0  -0.495382  0  2.16298  0  0  -0.514542  0  2.154076  0  0  -0.278653  -0.482157  0  2.16882  0
O  O86  1  0.13987776  0.65096025  0.51877392  1  0  -0.548836  0  2.068039  0  0  -0.505964  0  2.282657  0  0  -0.525319  0  2.267917  0  0  -0.335555  -0.492224  0  2.292523  0
O  O87  1  0.86012605  0.34904163  0.48122442  1  0  -0.548912  0  2.067944  0  0  -0.506015  0  2.282608  0  0  -0.525373  0  2.267865  0  0  -0.335611  -0.492274  0  2.292472  0
