# generated using pymatgen
data_HgH8C10(NCl)2
_symmetry_space_group_name_H-M   'P 1'
_cell_length_a   7.40177981
_cell_length_b   9.32777994
_cell_length_c   9.47212307
_cell_angle_alpha   119.41896112
_cell_angle_beta   106.06872992
_cell_angle_gamma   90.16330992
_symmetry_Int_Tables_number   1
_chemical_formula_structural   HgH8C10(NCl)2
_chemical_formula_sum   'Hg2 H16 C20 N4 Cl4'
_cell_volume   539.81125562
_cell_formula_units_Z   2
loop_
 _symmetry_equiv_pos_site_id
 _symmetry_equiv_pos_as_xyz
  1  'x, y, z'
loop_
 _atom_site_type_symbol
 _atom_site_label
 _atom_site_symmetry_multiplicity
 _atom_site_fract_x
 _atom_site_fract_y
 _atom_site_fract_z
 _atom_site_occupancy
 _atom_site_pbe_bader_spin_density
 _atom_site_pbe_cm5_charge
 _atom_site_pbe_ddec_charge
 _atom_site_pbe_ddec_spin_density
 _atom_site_pbe_ddec_sum_bond_order
 _atom_site_pbe_magmom
Hg  Hg0  1  0.25027273  0.08096372  0.99995012  1  0  0.504415  0.569795  0  2.59345  0
Hg  Hg1  1  0.74972893  0.91903776  0.00005209  1  0  0.504412  0.569804  0  2.593411  0
H  H2  1  0.58214702  0.35434950  0.34800857  1  0  0.103886  0.080474  0  1.032842  0
H  H3  1  0.91849410  0.00547892  0.65204625  1  0  0.103778  0.080668  0  1.033498  0
H  H4  1  0.41785414  0.64564940  0.65198916  1  0  0.103875  0.080455  0  1.032863  0
H  H5  1  0.08149723  0.99452018  0.34795364  1  0  0.103766  0.080659  0  1.033537  0
H  H6  1  0.71106917  0.66488780  0.52714471  1  0  0.092422  0.110303  0  1.051923  0
H  H7  1  0.78886397  0.13674786  0.47301797  1  0  0.092749  0.110948  0  1.050948  0
H  H8  1  0.28893058  0.33511117  0.47285487  1  0  0.092417  0.11029  0  1.051951  0
H  H9  1  0.21113373  0.86325482  0.52698075  1  0  0.092776  0.110922  0  1.050983  0
H  H10  1  0.58007363  0.84435458  0.40572447  1  0  0.103876  0.108651  0  0.991927  0
H  H11  1  0.91933167  0.43805593  0.59450132  1  0  0.10425  0.109507  0  0.99125  0
H  H12  1  0.41992191  0.15564451  0.59427740  1  0  0.103853  0.108637  0  0.991899  0
H  H13  1  0.08067280  0.56194547  0.40549936  1  0  0.104254  0.109503  0  0.991263  0
H  H14  1  0.33865844  0.71505709  0.12179347  1  0  0.098367  0.117354  0  1.040462  0
H  H15  1  0.16091421  0.59318881  0.87829642  1  0  0.098033  0.116869  0  1.040988  0
H  H16  1  0.66134463  0.28494433  0.87820691  1  0  0.098359  0.11734  0  1.040444  0
H  H17  1  0.83909256  0.40681002  0.12170146  1  0  0.098004  0.11687  0  1.040999  0
C  C18  1  0.53108316  0.44058679  0.30515257  1  0  0.04522  0.090932  0  3.94598  0
C  C19  1  0.96933453  0.13471337  0.69487036  1  0  0.045781  0.09146  0  3.94687  0
C  C20  1  0.46891659  0.55941215  0.69484593  1  0  0.045233  0.090924  0  3.946025  0
C  C21  1  0.03066407  0.86528689  0.30513061  1  0  0.045737  0.091421  0  3.947  0
C  C22  1  0.60143542  0.61121807  0.40254476  1  0  -0.083234  -0.122314  0  3.95845  0
C  C23  1  0.89855399  0.20789049  0.59755903  1  0  -0.083436  -0.123327  0  3.959598  0
C  C24  1  0.39856153  0.38878092  0.59745421  1  0  -0.08322  -0.122278  0  3.95844  0
C  C25  1  0.10144371  0.79211222  0.40244077  1  0  -0.083421  -0.123293  0  3.959669  0
C  C26  1  0.52999126  0.71022817  0.33480572  1  0  -0.067121  -0.01513  0  3.95096  0
C  C27  1  0.96974033  0.37488107  0.66533588  1  0  -0.067426  -0.015771  0  3.951589  0
C  C28  1  0.47000569  0.28977086  0.66519432  1  0  -0.067073  -0.015071  0  3.950946  0
C  C29  1  0.03025893  0.62511544  0.33466350  1  0  -0.067426  -0.015716  0  3.951412  0
C  C30  1  0.39248852  0.63690133  0.17417342  1  0  -0.081381  -0.153917  0  3.93475  0
C  C31  1  0.10733631  0.46245985  0.82588912  1  0  -0.081278  -0.153758  0  3.935085  0
C  C32  1  0.60751008  0.36309887  0.82582542  1  0  -0.081414  -0.15398  0  3.934806  0
C  C33  1  0.89266485  0.53753902  0.17410755  1  0  -0.081265  -0.153773  0  3.934997  0
C  C34  1  0.32541714  0.46504873  0.08497596  1  0  0.118352  0.164942  0  3.980712  0
C  C35  1  0.17481666  0.37990097  0.91501681  1  0  0.118386  0.164402  0  3.980165  0
C  C36  1  0.67458287  0.53495144  0.91502211  1  0  0.118374  0.164981  0  3.980762  0
C  C37  1  0.82518169  0.62009796  0.08498032  1  0  0.118392  0.164413  0  3.980125  0
N  N38  1  0.39608101  0.37103947  0.15208068  1  0  -0.303087  -0.223466  0  3.496074  0
N  N39  1  0.10446709  0.21854250  0.84784613  1  0  -0.303181  -0.223199  0  3.496429  0
N  N40  1  0.60391990  0.62895819  0.84791642  1  0  -0.303111  -0.223492  0  3.496195  0
N  N41  1  0.89553151  0.78145767  0.15215163  1  0  -0.303155  -0.223217  0  3.496477  0
Cl  Cl42  1  0.48916374  0.01809331  0.20806733  1  0  -0.279506  -0.442714  0  1.281205  0
Cl  Cl43  1  0.01067238  0.80968892  0.79233068  1  0  -0.279871  -0.44271  0  1.280051  0
Cl  Cl44  1  0.51084022  0.98190565  0.79193422  1  0  -0.279501  -0.4427  0  1.281207  0
Cl  Cl45  1  0.98933349  0.19031250  0.20767137  1  0  -0.279857  -0.442696  0  1.280029  0
