# generated using pymatgen
data_CuH11C18N5O6
_symmetry_space_group_name_H-M   'P 1'
_cell_length_a   8.64950320
_cell_length_b   10.87564851
_cell_length_c   25.00156537
_cell_angle_alpha   98.13454643
_cell_angle_beta   89.99985254
_cell_angle_gamma   90.00032568
_symmetry_Int_Tables_number   1
_chemical_formula_structural   CuH11C18N5O6
_chemical_formula_sum   'Cu4 H44 C72 N20 O24'
_cell_volume   2328.20786663
_cell_formula_units_Z   4
loop_
 _symmetry_equiv_pos_site_id
 _symmetry_equiv_pos_as_xyz
  1  'x, y, z'
loop_
 _atom_site_type_symbol
 _atom_site_label
 _atom_site_symmetry_multiplicity
 _atom_site_fract_x
 _atom_site_fract_y
 _atom_site_fract_z
 _atom_site_occupancy
 _atom_site_pbe_bader_charge
 _atom_site_pbe_bader_spin_density
 _atom_site_pbe_cm5_charge
 _atom_site_pbe_ddec_charge
 _atom_site_pbe_ddec_spin_density
 _atom_site_pbe_ddec_sum_bond_order
 _atom_site_pbe_magmom
Cu  Cu0  1  0.77906338  0.16163654  0.73652978  1  1.090796  -0.567492  0.753341  0.802914  -0.757545  2.20812  -0.566
Cu  Cu1  1  0.27906178  0.33836423  0.76346933  1  1.090683  -0.567489  0.753339  0.802879  -0.757546  2.208192  -0.566
Cu  Cu2  1  0.22093838  0.83836301  0.26347053  1  1.090738  0.567485  0.753335  0.802964  0.757539  2.208127  0.566
Cu  Cu3  1  0.72093767  0.66163718  0.23653149  1  1.090619  0.567484  0.753344  0.802914  0.757543  2.208149  0.566
H  H4  1  0.67263340  0.45569379  0.90453385  1  0.11193  -0.000968  0.114661  0.12682  -0.000511  1.014101  -0.001
H  H5  1  0.17263559  0.04431210  0.59546488  1  0.111996  -0.000967  0.114674  0.126829  -0.000511  1.014164  -0.001
H  H6  1  0.32736489  0.54430760  0.09546897  1  0.11219  0.000967  0.114676  0.12678  0.000511  1.014208  0.001
H  H7  1  0.82735923  0.95569304  0.40453458  1  0.11199  0.000967  0.114694  0.126865  0.000511  1.014138  0.001
H  H8  1  0.64918699  0.36073746  0.80882555  1  0.178899  -0.002022  0.119941  0.10212  -0.000952  1.047195  -0.002
H  H9  1  0.14918451  0.13926460  0.69117336  1  0.178957  -0.002022  0.119948  0.1021  -0.000952  1.04718  -0.002
H  H10  1  0.35081708  0.63926857  0.19117677  1  0.178826  0.002022  0.119957  0.102074  0.000952  1.047156  0.002
H  H11  1  0.85081377  0.86073589  0.30882620  1  0.178921  0.002022  0.119956  0.102117  0.000952  1.047208  0.002
H  H12  1  0.02579175  0.18439422  0.92429928  1  0.112395  -0.001163  0.119037  0.13156  -0.000619  0.975518  -0.001
H  H13  1  0.52579333  0.31561382  0.57570011  1  0.112315  -0.001163  0.119049  0.131598  -0.000619  0.97539  -0.001
H  H14  1  0.97420308  0.81560623  0.07570388  1  0.112445  0.001163  0.119048  0.131605  0.000619  0.975415  0.001
H  H15  1  0.47420612  0.68438761  0.42429911  1  0.112329  0.001163  0.119051  0.131605  0.000619  0.975429  0.001
H  H16  1  0.78423799  0.80110307  0.79311297  1  0.128384  -0.000426  0.103333  0.107676  -0.000352  1.039416  0.0
H  H17  1  0.28423582  0.69889579  0.70688745  1  0.128354  -0.000426  0.10335  0.107769  -0.000352  1.039447  0.0
H  H18  1  0.21576955  0.19889928  0.20688671  1  0.128325  0.000426  0.103352  0.107715  0.000352  1.039449  0.0
H  H19  1  0.71576247  0.30110560  0.29311537  1  0.157225  0.00042  0.103341  0.107715  0.000352  1.039473  0.0
H  H20  1  0.76674369  0.57225784  0.79250472  1  0.100655  -0.000104  0.106889  0.121118  -4.6e-05  1.020281  0.0
H  H21  1  0.26673967  0.92773817  0.70749393  1  0.100535  -0.000104  0.106908  0.121173  -4.6e-05  1.020258  0.0
H  H22  1  0.23326038  0.42774543  0.20749542  1  0.1006  0.000104  0.10687  0.121089  4.6e-05  1.020281  0.0
H  H23  1  0.73326093  0.07226231  0.29250683  1  0.100489  0.000104  0.106886  0.121133  4.6e-05  1.020331  0.0
H  H24  1  0.05855618  0.74454110  0.64890350  1  0.131814  -0.000225  0.117042  0.1287  -9.1e-05  0.998853  0.0
H  H25  1  0.55855181  0.75545958  0.85109604  1  0.131929  -0.000225  0.117031  0.128718  -9.1e-05  0.998856  0.0
H  H26  1  0.94144673  0.25545476  0.35109497  1  0.131919  0.000225  0.117053  0.128705  9.1e-05  0.998944  0.0
H  H27  1  0.44145226  0.24453904  0.14890461  1  0.131975  0.000225  0.117038  0.12877  9.1e-05  0.998886  0.0
H  H28  1  0.99257914  0.10152295  0.82537602  1  0.145959  -0.00231  0.127147  0.109367  -0.001167  0.975164  -0.002
H  H29  1  0.49257632  0.39848338  0.67462405  1  0.14589  -0.00231  0.127132  0.109318  -0.001167  0.975189  -0.002
H  H30  1  0.00742031  0.89847936  0.17462646  1  0.145493  0.00231  0.127154  0.109305  0.001167  0.975238  0.002
H  H31  1  0.50742428  0.60151526  0.32537499  1  0.145918  0.002309  0.127118  0.109338  0.001167  0.975159  0.002
H  H32  1  0.94670395  0.37075150  0.07810187  1  0.129455  0.001053  0.118863  0.132017  0.000554  0.986022  0.001
H  H33  1  0.44670199  0.12925067  0.42189864  1  0.129446  0.001053  0.118869  0.132023  0.000554  0.985994  0.001
H  H34  1  0.05329318  0.62924896  0.92189969  1  0.129413  -0.001053  0.11885  0.13203  -0.000555  0.985948  -0.001
H  H35  1  0.55328820  0.87075263  0.57809870  1  0.129394  -0.001053  0.118828  0.131948  -0.000555  0.98605  -0.001
H  H36  1  0.92206669  0.46905988  0.17535059  1  0.133769  0.001852  0.119652  0.092075  0.000862  1.007047  0.001
H  H37  1  0.42206360  0.03093847  0.32464970  1  0.133807  0.001852  0.119653  0.092049  0.000862  1.007071  0.001
H  H38  1  0.07793507  0.53094152  0.82465103  1  0.133818  -0.001852  0.11967  0.092092  -0.000862  1.007068  -0.001
H  H39  1  0.57793353  0.96905831  0.67534843  1  0.133831  -0.001852  0.119667  0.092054  -0.000862  1.007079  -0.001
H  H40  1  0.60867866  0.72978899  0.13571765  1  0.172045  0.001919  0.12218  0.099412  0.000856  1.045234  0.001
H  H41  1  0.10867929  0.77020606  0.36428454  1  0.171985  0.001918  0.122172  0.09941  0.000856  1.045147  0.001
H  H42  1  0.39131847  0.27020961  0.86428499  1  0.172036  -0.001918  0.122179  0.099404  -0.000856  1.045236  -0.001
H  H43  1  0.89132131  0.22979165  0.63571445  1  0.172043  -0.001919  0.122183  0.099403  -0.000856  1.045151  -0.001
H  H44  1  0.61378651  0.63894214  0.03774732  1  0.126104  0.000995  0.120962  0.133479  0.000533  0.975786  0.001
H  H45  1  0.11378706  0.86105572  0.46225505  1  0.126045  0.000996  0.120964  0.133484  0.000533  0.975752  0.001
H  H46  1  0.38621178  0.36105832  0.96225545  1  0.125946  -0.000996  0.120954  0.133489  -0.000533  0.975745  -0.001
H  H47  1  0.88620661  0.13894478  0.53774331  1  0.125849  -0.000996  0.120958  0.133498  -0.000533  0.975737  -0.001
C  C48  1  0.99104834  0.57948981  0.68184200  1  0.219615  -0.002958  0.079659  0.038071  -0.001984  3.922163  -0.002
C  C49  1  0.49104229  0.92050903  0.81815703  1  0.224609  -0.002959  0.079767  0.038297  -0.001984  3.922088  -0.002
C  C50  1  0.00895226  0.42050696  0.31815732  1  0.224611  0.002959  0.079727  0.038264  0.001984  3.922063  0.002
C  C51  1  0.50896063  0.07949052  0.18184407  1  0.224601  0.002959  0.079729  0.038312  0.001985  3.921948  0.002
C  C52  1  0.91955581  0.78735700  0.72050802  1  0.010734  -0.012343  -0.013706  -0.016602  -0.008704  3.953384  -0.009
C  C53  1  0.41954741  0.71264431  0.77949243  1  0.010775  -0.012342  -0.013643  -0.0165  -0.008703  3.953205  -0.009
C  C54  1  0.08044826  0.21264257  0.27949148  1  0.010745  0.012341  -0.013675  -0.016558  0.008703  3.95328  0.009
C  C55  1  0.58044741  0.28735801  0.22051005  1  0.008094  0.012344  -0.013661  -0.016542  0.008704  3.953217  0.009
C  C56  1  0.90783513  0.52741727  0.72136811  1  0.030842  -0.0068  0.00525  -0.031888  -0.004988  3.903383  -0.006
C  C57  1  0.40782859  0.97258121  0.77863098  1  0.025739  -0.006799  0.005246  -0.031885  -0.004988  3.903393  -0.006
C  C58  1  0.09216778  0.47258042  0.27863208  1  0.025831  0.0068  0.005211  -0.031958  0.004988  3.903433  0.006
C  C59  1  0.59217317  0.02741834  0.22137013  1  0.025747  0.006798  0.005206  -0.031976  0.004987  3.903383  0.006
C  C60  1  0.74455523  0.37676922  0.88887184  1  -0.023936  -0.006971  -0.075809  -0.180841  -0.004752  3.911585  -0.005
C  C61  1  0.24455440  0.12323605  0.61112759  1  -0.023907  -0.006971  -0.075834  -0.180924  -0.004752  3.911833  -0.005
C  C62  1  0.25544422  0.62323217  0.11113058  1  -0.023891  0.006971  -0.075862  -0.180961  0.004753  3.911488  0.005
C  C63  1  0.75544274  0.87676629  0.38887289  1  -0.023929  0.006972  -0.075838  -0.180949  0.004753  3.911843  0.005
C  C64  1  0.73182388  0.32429768  0.83542047  1  0.523192  0.001017  0.044896  0.101713  -0.000153  3.906822  0.001
C  C65  1  0.23182302  0.17570568  0.66457844  1  0.523203  0.001017  0.044877  0.101788  -0.000154  3.906775  0.001
C  C66  1  0.26818019  0.67570650  0.16458173  1  0.523093  -0.001017  0.044949  0.101969  0.000153  3.90632  -0.001
C  C67  1  0.76817759  0.82429481  0.33542152  1  0.523185  -0.001017  0.044858  0.101708  0.000154  3.906816  -0.001
C  C68  1  0.85021648  0.32523296  0.92203110  1  0.341131  0.003712  0.100547  0.190015  0.002637  4.037464  0.003
C  C69  1  0.35021858  0.17477183  0.57796860  1  0.341148  0.003712  0.100476  0.190037  0.002637  4.037577  0.003
C  C70  1  0.14978065  0.67476564  0.07797114  1  0.340915  -0.003712  0.100497  0.190024  -0.002637  4.037301  -0.003
C  C71  1  0.64977971  0.82522866  0.42203097  1  0.34112  -0.003712  0.100476  0.19003  -0.002637  4.037623  -0.003
C  C72  1  0.94196715  0.22524698  0.89949580  1  -0.018291  -0.006629  -0.06773  -0.174488  -0.00461  3.901365  -0.005
C  C73  1  0.44196747  0.27476007  0.60050356  1  -0.018306  -0.006629  -0.067698  -0.174569  -0.00461  3.901253  -0.005
C  C74  1  0.05802999  0.77475161  0.10050684  1  -0.018816  0.00663  -0.067731  -0.174592  0.004611  3.901108  0.005
C  C75  1  0.55803198  0.72524042  0.39949600  1  -0.018317  0.006629  -0.067714  -0.17457  0.00461  3.90132  0.005
C  C76  1  0.78070538  0.49829121  0.05076885  1  0.357294  -0.002615  0.105582  0.197187  -0.001818  4.044158  -0.002
C  C77  1  0.28071040  0.00170930  0.44923289  1  0.357369  -0.002615  0.105632  0.19717  -0.001818  4.044321  -0.002
C  C78  1  0.21928944  0.50171017  0.94923476  1  0.357517  0.002616  0.105621  0.19697  0.001819  4.044462  0.002
C  C79  1  0.71928442  0.99829399  0.55076485  1  0.357378  0.002616  0.105599  0.19713  0.001819  4.044362  0.002
C  C80  1  0.84095096  0.73777580  0.76150216  1  -0.014168  -0.000182  -0.070676  -0.058943  -0.000166  3.914499  0.0
C  C81  1  0.34094207  0.76222145  0.73849731  1  -0.014259  -0.000182  -0.070689  -0.059031  -0.000166  3.914577  0.0
C  C82  1  0.15905542  0.26222469  0.23849741  1  -0.014163  0.000183  -0.070684  -0.058952  0.000167  3.914511  0.0
C  C83  1  0.65905390  0.23777808  0.26150499  1  -0.040508  0.000187  -0.070656  -0.058864  0.000166  3.91449  0.0
C  C84  1  0.83381831  0.60971145  0.76155086  1  -0.04521  -0.002368  -0.084202  -0.107243  -0.001547  3.935799  -0.001
C  C85  1  0.33381148  0.89028578  0.73844821  1  -0.045083  -0.002368  -0.084231  -0.107329  -0.001547  3.935824  -0.001
C  C86  1  0.16618807  0.39028903  0.23844950  1  -0.045238  0.002367  -0.08414  -0.107187  0.001546  3.935826  0.001
C  C87  1  0.66618796  0.10971561  0.26155381  1  -0.045141  0.002368  -0.084245  -0.107363  0.001547  3.935953  0.001
C  C88  1  0.99625025  0.70710970  0.68080987  1  -0.024903  -0.001335  -0.071683  -0.137015  -0.000897  3.966578  -0.001
C  C89  1  0.49624329  0.79289193  0.81919093  1  -0.024954  -0.001335  -0.071717  -0.137206  -0.000897  3.966636  -0.001
C  C90  1  0.00375151  0.29288800  0.31918951  1  -0.024983  0.001335  -0.071729  -0.137145  0.000897  3.966637  0.001
C  C91  1  0.50375616  0.20710946  0.18081149  1  -0.024937  0.001335  -0.071706  -0.13727  0.000897  3.966673  0.001
C  C92  1  0.92087893  0.92464250  0.71714979  1  1.564726  -2.3e-05  0.197873  0.555795  -0.001421  4.236078  0.002
C  C93  1  0.42087531  0.57535697  0.78284855  1  1.56458  -2.3e-05  0.197779  0.555768  -0.001421  4.235901  0.002
C  C94  1  0.07912630  0.07535800  0.28284818  1  1.564552  2.3e-05  0.197745  0.555709  0.001421  4.235946  -0.002
C  C95  1  0.57912298  0.42464444  0.21715187  1  1.564571  2.3e-05  0.197814  0.555816  0.001421  4.235851  -0.002
C  C96  1  0.92330831  0.17844441  0.84503877  1  0.47699  0.00196  0.06153  0.123736  0.000595  3.887986  0.001
C  C97  1  0.42330740  0.32156069  0.65496128  1  0.477135  0.001959  0.061594  0.12395  0.000595  3.887956  0.001
C  C98  1  0.07669229  0.82155697  0.15496405  1  0.477838  -0.001962  0.061527  0.123914  -0.000596  3.888053  -0.001
C  C99  1  0.57669436  0.67843887  0.34503862  1  0.477027  -0.00196  0.061538  0.123822  -0.000595  3.887919  -0.001
C  C100  1  0.87060849  0.44980739  0.08966324  1  -0.076847  0.006402  -0.072339  -0.179779  0.00434  3.896614  0.005
C  C101  1  0.37061068  0.05019074  0.41033707  1  -0.076891  0.006403  -0.072317  -0.179783  0.00434  3.896626  0.005
C  C102  1  0.12938980  0.55019308  0.91033872  1  -0.077014  -0.006403  -0.072293  -0.17969  -0.00434  3.896466  -0.005
C  C103  1  0.62938414  0.94980977  0.58966049  1  -0.076916  -0.006404  -0.072261  -0.179626  -0.00434  3.896462  -0.005
C  C104  1  0.85801007  0.50419956  0.14316322  1  0.535845  -0.000571  0.053174  0.109662  0.000534  3.913077  0.0
C  C105  1  0.35801005  0.99579845  0.35683693  1  0.535859  -0.000571  0.0532  0.109813  0.000534  3.912975  0.0
C  C106  1  0.14199053  0.49580183  0.85683840  1  0.535878  0.000572  0.053146  0.109634  -0.000534  3.912977  0.0
C  C107  1  0.64198824  0.00420112  0.64316137  1  0.535902  0.000572  0.053127  0.109691  -0.000534  3.912935  0.0
C  C108  1  0.68117508  0.65042460  0.12140279  1  0.500311  -0.001156  0.055723  0.108082  -0.000226  3.915583  -0.001
C  C109  1  0.18117617  0.84956984  0.37859890  1  0.500651  -0.001158  0.055652  0.108083  -0.000225  3.915646  -0.001
C  C110  1  0.31882321  0.34957307  0.87859940  1  0.500405  0.001156  0.055667  0.108046  0.000226  3.915618  0.001
C  C111  1  0.81882212  0.15042787  0.62139969  1  0.500787  0.001159  0.055685  0.108176  0.000226  3.915553  0.001
C  C112  1  0.68516262  0.60052566  0.06722393  1  -0.068831  0.005713  -0.064597  -0.168866  0.003943  3.893286  0.004
C  C113  1  0.18516713  0.89947159  0.43277713  1  -0.068806  0.005713  -0.064603  -0.168898  0.003943  3.893297  0.004
C  C114  1  0.31483336  0.39947388  0.93277757  1  -0.068752  -0.005714  -0.064633  -0.168884  -0.003943  3.893299  -0.004
C  C115  1  0.81483001  0.10053077  0.56722095  1  -0.068647  -0.005714  -0.064658  -0.169033  -0.003944  3.893293  -0.004
C  C116  1  0.90254300  0.39080908  0.72599857  1  1.594287  0.001324  0.202958  0.569772  -0.000165  4.258077  0.003
C  C117  1  0.40254431  0.10918853  0.77399863  1  1.594181  0.001324  0.202931  0.569698  -0.000165  4.258112  0.003
C  C118  1  0.09745760  0.60918862  0.27400161  1  1.594318  -0.001324  0.202935  0.569709  0.000165  4.258133  -0.003
C  C119  1  0.59746207  0.89081103  0.22600088  1  1.59407  -0.001322  0.202942  0.569687  0.000165  4.258181  -0.003
N  N120  1  0.81922169  0.22659811  0.81397619  1  -1.201566  -0.090894  -0.338906  -0.204672  -0.062801  3.576637  -0.078
N  N121  1  0.31922021  0.27340561  0.68602347  1  -1.201581  -0.090899  -0.33891  -0.20477  -0.062805  3.576733  -0.078
N  N122  1  0.18078238  0.77340513  0.18602635  1  -1.201478  0.090894  -0.338916  -0.2048  0.062801  3.576755  0.078
N  N123  1  0.68078155  0.72659488  0.31397609  1  -1.201435  0.090894  -0.338881  -0.204666  0.062801  3.576619  0.078
N  N124  1  0.07567541  0.50094187  0.63918258  1  0.361332  -0.000985  0.060308  0.530507  -0.000575  4.181606  -0.001
N  N125  1  0.57567733  0.99905798  0.86081449  1  0.361269  -0.000985  0.060146  0.530348  -0.000575  4.181691  -0.001
N  N126  1  0.92431363  0.49905307  0.36081423  1  0.361266  0.000985  0.060223  0.5304  0.000575  4.181702  0.001
N  N127  1  0.42434177  0.00094068  0.13918295  1  0.360749  0.000985  0.060116  0.530525  0.000575  4.182077  0.001
N  N128  1  0.76466859  0.60218873  0.15873503  1  -1.191303  0.0849  -0.338634  -0.212481  0.058934  3.598935  0.073
N  N129  1  0.26466914  0.89780701  0.34126626  1  -1.191592  0.084899  -0.338639  -0.212591  0.058932  3.598974  0.073
N  N130  1  0.23533317  0.39781173  0.84126693  1  -1.191303  -0.084902  -0.338623  -0.212444  -0.058936  3.598904  -0.073
N  N131  1  0.73533262  0.10219070  0.65873272  1  -1.191653  -0.084906  -0.338586  -0.212488  -0.058937  3.598936  -0.073
N  N132  1  0.87022452  0.36929886  0.97792793  1  -0.438698  -0.00172  -0.131865  -0.117461  -0.00121  3.212277  -0.002
N  N133  1  0.37023018  0.13070323  0.52207198  1  -0.438749  -0.00172  -0.13189  -0.117589  -0.00121  3.212187  -0.002
N  N134  1  0.12976799  0.63069880  0.02207545  1  -0.438659  0.001721  -0.131944  -0.117593  0.001211  3.212184  0.002
N  N135  1  0.62976926  0.86929727  0.47792679  1  -0.438797  0.001721  -0.131877  -0.117528  0.001211  3.212252  0.002
N  N136  1  0.77151156  0.45108254  0.99532898  1  -0.480838  0.003363  -0.132958  -0.116633  0.002244  3.272277  0.003
N  N137  1  0.27151446  0.04891911  0.50467139  1  -0.480852  0.003364  -0.132947  -0.116521  0.002244  3.272248  0.003
N  N138  1  0.22848326  0.54891699  0.00467372  1  -0.480912  -0.003364  -0.132832  -0.116336  -0.002244  3.272129  -0.003
N  N139  1  0.72847574  0.95108696  0.49532733  1  -0.480868  -0.003363  -0.132874  -0.116497  -0.002244  3.272329  -0.003
O  O140  1  0.82338789  0.98899160  0.74930600  1  -1.106578  -0.10467  -0.332864  -0.564179  -0.069335  2.344253  -0.094
O  O141  1  0.32337828  0.51100838  0.75069245  1  -1.106566  -0.104675  -0.332849  -0.564198  -0.069337  2.343999  -0.094
O  O142  1  0.17662543  0.01100983  0.25069282  1  -1.106605  0.104682  -0.332849  -0.56423  0.069342  2.344025  0.094
O  O143  1  0.67661654  0.48899302  0.24930877  1  -1.106567  0.104686  -0.332879  -0.564273  0.069345  2.344087  0.094
O  O144  1  0.00867189  0.96567439  0.68419533  1  -1.17762  -0.002359  -0.318709  -0.547689  -0.001171  2.175312  -0.002
O  O145  1  0.50867315  0.53432240  0.81580040  1  -1.177482  -0.002358  -0.318659  -0.54766  -0.001171  2.17546  -0.002
O  O146  1  0.99132871  0.03432149  0.31580074  1  -1.177427  0.002359  -0.318608  -0.547586  0.001171  2.175308  0.002
O  O147  1  0.49132861  0.46567717  0.18419870  1  -1.1775  0.002358  -0.31864  -0.547627  0.001171  2.175298  0.002
O  O148  1  0.02837410  0.39325544  0.62491377  1  -0.48061  -0.000894  -0.132683  -0.340973  -0.000578  1.970441  -0.001
O  O149  1  0.52838815  0.10674707  0.87508167  1  -0.48049  -0.000894  -0.132593  -0.340919  -0.000578  1.97042  -0.001
O  O150  1  0.97160338  0.60674136  0.37508316  1  -0.480305  0.000894  -0.13265  -0.340916  0.000578  1.970347  0.001
O  O151  1  0.47164136  0.89325343  0.12491749  1  -0.480259  0.000894  -0.132627  -0.341004  0.000578  1.970703  0.001
O  O152  1  0.18991343  0.54650904  0.61920796  1  -0.460581  -0.001291  -0.137916  -0.34122  -0.000825  1.885353  -0.001
O  O153  1  0.68991255  0.95348666  0.88078874  1  -0.460516  -0.001291  -0.137885  -0.341161  -0.000825  1.885467  -0.001
O  O154  1  0.81007562  0.45348035  0.38078610  1  -0.460747  0.001291  -0.137914  -0.341242  0.000824  1.88553  0.001
O  O155  1  0.31011117  0.04650740  0.11920401  1  -0.460121  0.001291  -0.1378  -0.341248  0.000825  1.885731  0.001
O  O156  1  0.02165401  0.33731265  0.73940577  1  -1.168894  -0.00269  -0.314077  -0.583911  -0.001619  2.358469  -0.004
O  O157  1  0.52165429  0.16268241  0.76058881  1  -1.1687  -0.002689  -0.314089  -0.583924  -0.001619  2.358566  -0.004
O  O158  1  0.97834659  0.66268320  0.26059350  1  -1.16886  0.002691  -0.31406  -0.583885  0.001619  2.358524  0.004
O  O159  1  0.47835094  0.83731438  0.23940892  1  -1.168837  0.00269  -0.314109  -0.583901  0.001619  2.35846  0.004
O  O160  1  0.76884961  0.33957317  0.71891551  1  -1.099646  -0.096823  -0.311217  -0.526935  -0.064737  2.292966  -0.087
O  O161  1  0.26885240  0.16042756  0.78108321  1  -1.099654  -0.096821  -0.311192  -0.52687  -0.064735  2.292888  -0.087
O  O162  1  0.23115099  0.66042545  0.28108514  1  -1.099571  0.096825  -0.311165  -0.526872  0.064739  2.292897  0.087
O  O163  1  0.73115514  0.83957387  0.21891561  1  -1.099439  0.096817  -0.311159  -0.526847  0.064735  2.293009  0.087
