# generated using pymatgen
data_AgH12C21N4ClO4
_symmetry_space_group_name_H-M   'P 1'
_cell_length_a   9.61870313
_cell_length_b   9.61803951
_cell_length_c   27.67926158
_cell_angle_alpha   97.89973474
_cell_angle_beta   97.90346138
_cell_angle_gamma   106.50010150
_symmetry_Int_Tables_number   1
_chemical_formula_structural   AgH12C21N4ClO4
_chemical_formula_sum   'Ag4 H48 C84 N16 Cl4 O16'
_cell_volume   2389.55650628
_cell_formula_units_Z   4
loop_
 _symmetry_equiv_pos_site_id
 _symmetry_equiv_pos_as_xyz
  1  'x, y, z'
loop_
 _atom_site_type_symbol
 _atom_site_label
 _atom_site_symmetry_multiplicity
 _atom_site_fract_x
 _atom_site_fract_y
 _atom_site_fract_z
 _atom_site_occupancy
 _atom_site_pbe_bader_charge
 _atom_site_pbe_bader_spin_density
 _atom_site_pbe_cm5_charge
 _atom_site_pbe_ddec_charge
 _atom_site_pbe_ddec_spin_density
 _atom_site_pbe_ddec_sum_bond_order
 _atom_site_pbe_magmom
Ag  Ag0  1  0.88702671  0.36046311  0.31289712  1  0.73256  0  0.564795  0.577216  0  2.020801  0
Ag  Ag1  1  0.63953223  0.11296833  0.18710767  1  0.732769  0  0.564863  0.577354  0  2.020837  0
Ag  Ag2  1  0.11296562  0.63952851  0.68710837  1  0.732627  0  0.564834  0.577191  0  2.020986  0
Ag  Ag3  1  0.36046705  0.88703640  0.81289362  1  0.732697  0  0.56485  0.577362  0  2.020722  0
H  H4  1  0.59868193  0.75481171  0.27955921  1  0.136089  0  0.108964  0.127853  0  1.022073  0
H  H5  1  0.24516753  0.40129085  0.22044824  1  0.136095  0  0.108965  0.127873  0  1.022288  0
H  H6  1  0.40129151  0.24517595  0.72044170  1  0.135958  0  0.108954  0.12786  0  1.022259  0
H  H7  1  0.75482912  0.59870383  0.77955431  1  0.136023  0  0.108937  0.127838  0  1.022368  0
H  H8  1  0.43338988  0.84613956  0.22534381  1  0.099219  0  0.108952  0.119417  0  1.008479  0
H  H9  1  0.15384553  0.56659228  0.27466404  1  0.09937  0  0.108852  0.119205  0  1.008679  0
H  H10  1  0.56659737  0.15384925  0.77465159  1  0.099748  0  0.108972  0.119377  0  1.008498  0
H  H11  1  0.84615762  0.43340299  0.72533809  1  0.099425  0  0.108916  0.119319  0  1.008478  0
H  H12  1  0.46964845  0.55241049  0.09799241  1  0.113583  0  0.111997  0.125352  0  0.984322  0
H  H13  1  0.44758248  0.53032304  0.40201617  1  0.113363  0  0.112037  0.125459  0  0.984009  0
H  H14  1  0.53035325  0.44760408  0.90200434  1  0.113702  0  0.111995  0.125323  0  0.984365  0
H  H15  1  0.55241229  0.46967845  0.59798515  1  0.11315  0  0.11204  0.125496  0  0.983997  0
H  H16  1  0.63907245  0.46207618  0.15199379  1  0.115477  0  0.109527  0.121907  0  1.013246  0
H  H17  1  0.53788839  0.36087089  0.34800759  1  0.114999  0  0.10951  0.121872  0  1.012948  0
H  H18  1  0.36091688  0.53791308  0.84799991  1  0.115482  0  0.109541  0.121929  0  1.013228  0
H  H19  1  0.46210411  0.63912594  0.65199596  1  0.114846  0  0.109582  0.121981  0  1.013019  0
H  H20  1  0.14583660  0.73782534  0.04922769  1  0.093756  0  0.114892  0.131407  0  0.977002  0
H  H21  1  0.26218362  0.85412377  0.45078135  1  0.094133  0  0.114679  0.131127  0  0.97725  0
H  H22  1  0.85417182  0.26218601  0.95077572  1  0.093658  0  0.114855  0.131443  0  0.977009  0
H  H23  1  0.73780225  0.14589329  0.54921989  1  0.094498  0  0.114559  0.131037  0  0.977298  0
H  H24  1  0.18254671  0.76361420  0.96349667  1  0.154028  0  0.106821  0.123495  0  1.033469  0
H  H25  1  0.23639066  0.81736086  0.53650343  1  0.154679  0  0.106878  0.123517  0  1.03364  0
H  H26  1  0.81747139  0.23639543  0.03650708  1  0.153967  0  0.106893  0.123611  0  1.033306  0
H  H27  1  0.76361000  0.18264947  0.46349780  1  0.154916  0  0.106902  0.123504  0  1.033629  0
H  H28  1  0.65064410  0.84621827  0.00952770  1  0.1114  0  0.115137  0.122161  0  0.97023  0
H  H29  1  0.15372617  0.34926075  0.49045664  1  0.110573  0  0.115256  0.122142  0  0.970784  0
H  H30  1  0.34935907  0.15376110  0.99047087  1  0.11146  0  0.115079  0.122038  0  0.970344  0
H  H31  1  0.84632092  0.65076160  0.50954960  1  0.110929  0  0.115272  0.122253  0  0.970665  0
H  H32  1  0.61501498  0.82635605  0.09520998  1  0.09669  0  0.109588  0.121395  0  1.011921  0
H  H33  1  0.17361029  0.38494002  0.40477982  1  0.096505  0  0.109601  0.121407  0  1.011834  0
H  H34  1  0.38500770  0.17364198  0.90479021  1  0.096922  0  0.109645  0.121511  0  1.011963  0
H  H35  1  0.82641803  0.61507648  0.59522573  1  0.096222  0  0.109602  0.121374  0  1.011764  0
H  H36  1  0.15474160  0.61794808  0.17366874  1  0.127992  0  0.107991  0.129407  0  1.027752  0
H  H37  1  0.38200282  0.84519562  0.32633173  1  0.127525  0  0.107863  0.129339  0  1.027695  0
H  H38  1  0.84524008  0.38204026  0.82632460  1  0.127914  0  0.107985  0.129431  0  1.027782  0
H  H39  1  0.61798961  0.15480014  0.67367177  1  0.127962  0  0.107845  0.12933  0  1.027627  0
H  H40  1  0.94708318  0.69427989  0.19988817  1  0.106218  0  0.106852  0.111769  0  1.011166  0
H  H41  1  0.30569748  0.05286025  0.30010280  1  0.10599  0  0.106888  0.111881  0  1.011049  0
H  H42  1  0.05289076  0.30571852  0.80009334  1  0.105912  0  0.106823  0.111785  0  1.011035  0
H  H43  1  0.69428413  0.94711796  0.69989841  1  0.106136  0  0.10686  0.111877  0  1.010856  0
H  H44  1  0.09699944  0.10016978  0.14427514  1  0.142888  0  0.107362  0.122465  0  1.021312  0
H  H45  1  0.89983882  0.90298210  0.35573082  1  0.142843  0  0.107406  0.122569  0  1.021208  0
H  H46  1  0.90300058  0.89983185  0.85572315  1  0.142716  0  0.107399  0.122549  0  1.021149  0
H  H47  1  0.10015067  0.09700229  0.64426991  1  0.142727  0  0.107451  0.122627  0  1.021154  0
H  H48  1  0.30659059  0.02328175  0.11919663  1  0.125189  0  0.107575  0.123001  0  1.028275  0
H  H49  1  0.97670988  0.69336594  0.38081201  1  0.124529  0  0.10743  0.122857  0  1.028669  0
H  H50  1  0.69340553  0.97672329  0.88080598  1  0.125132  0  0.107561  0.122989  0  1.028405  0
H  H51  1  0.02329050  0.30661712  0.61919093  1  0.124969  0  0.107425  0.122847  0  1.028546  0
C  C52  1  0.72755381  0.55283173  0.24998856  1  0.837284  0  0.213053  0.291992  0  4.001791  0
C  C53  1  0.44715926  0.27244277  0.25001438  1  0.837878  0  0.213146  0.292101  0  4.001429  0
C  C54  1  0.27244025  0.44716100  0.75000874  1  0.837168  0  0.213165  0.292009  0  4.001725  0
C  C55  1  0.55283990  0.72755983  0.74998681  1  0.837758  0  0.213115  0.292014  0  4.00155  0
C  C56  1  0.63125575  0.60412500  0.21908985  1  0.057374  0  -0.010341  0.004181  0  4.13331  0
C  C57  1  0.39586497  0.36873742  0.28091136  1  0.057145  0  -0.010317  0.004105  0  4.133511  0
C  C58  1  0.36874162  0.39587159  0.78090486  1  0.056856  0  -0.010247  0.004545  0  4.133145  0
C  C59  1  0.60414044  0.63126047  0.71908990  1  0.057618  0  -0.01017  0.004367  0  4.13297  0
C  C60  1  0.57014716  0.70997925  0.23987151  1  0.020147  0  -0.071749  -0.072536  0  3.937913  0
C  C61  1  0.29001843  0.42983234  0.26012811  1  0.020758  0  -0.07187  -0.072662  0  3.93831  0
C  C62  1  0.42984266  0.29001553  0.76012533  1  0.020859  0  -0.071877  -0.072826  0  3.938273  0
C  C63  1  0.70998839  0.57015124  0.73987332  1  0.020593  0  -0.071826  -0.072679  0  3.938238  0
C  C64  1  0.47707081  0.76115392  0.20936766  1  0.006792  0  -0.090263  -0.176349  0  3.989514  0
C  C65  1  0.23884063  0.52290902  0.29062707  1  0.006399  0  -0.090078  -0.175993  0  3.98952  0
C  C66  1  0.52291762  0.23883626  0.79062821  1  0.005868  0  -0.090201  -0.176149  0  3.989587  0
C  C67  1  0.76116300  0.47708188  0.70936875  1  0.00627  0  -0.090205  -0.176096  0  3.989513  0
C  C68  1  0.44338765  0.70806419  0.15781442  1  0.271403  0  0.109723  0.198087  0  4.008145  0
C  C69  1  0.29193654  0.55660086  0.34217930  1  0.270974  0  0.109763  0.198037  0  4.008081  0
C  C70  1  0.55660983  0.29193553  0.84217935  1  0.271404  0  0.109755  0.19811  0  4.007984  0
C  C71  1  0.70806153  0.44340348  0.65782011  1  0.270959  0  0.109798  0.198031  0  4.00809  0
C  C72  1  0.50009510  0.59774300  0.13758293  1  -0.009587  0  -0.086576  -0.158095  0  3.955529  0
C  C73  1  0.40225799  0.49988705  0.36241908  1  -0.008698  0  -0.086606  -0.158352  0  3.955307  0
C  C74  1  0.49990464  0.40225634  0.86241272  1  -0.009349  0  -0.086512  -0.157983  0  3.955595  0
C  C75  1  0.59775207  0.50011826  0.63758088  1  -0.008593  0  -0.086643  -0.158464  0  3.955503  0
C  C76  1  0.59446637  0.54671366  0.16766130  1  0.018614  0  -0.070213  -0.079677  0  3.939858  0
C  C77  1  0.45327789  0.40551761  0.33234156  1  0.018834  0  -0.070253  -0.079482  0  3.939509  0
C  C78  1  0.40552986  0.45328161  0.83233367  1  0.018734  0  -0.070381  -0.079983  0  3.94005  0
C  C79  1  0.54672103  0.59448374  0.66765668  1  0.018933  0  -0.070288  -0.079586  0  3.939521  0
C  C80  1  0.37754991  0.77843984  0.07796010  1  0.3042  0  0.10569  0.19423  0  4.007078  0
C  C81  1  0.22153903  0.62240099  0.42204372  1  0.30541  0  0.105584  0.194012  0  4.006951  0
C  C82  1  0.62246894  0.22156569  0.92204169  1  0.305013  0  0.105653  0.194117  0  4.006794  0
C  C83  1  0.77847356  0.37760723  0.57795973  1  0.305671  0  0.105542  0.193933  0  4.006948  0
C  C84  1  0.25630186  0.76208346  0.04051403  1  -0.04558  0  -0.08671  -0.165198  0  3.957969  0
C  C85  1  0.23790449  0.74366087  0.45949346  1  -0.04715  0  -0.086214  -0.164533  0  3.957634  0
C  C86  1  0.74372187  0.23792971  0.95949010  1  -0.045882  0  -0.086649  -0.165203  0  3.957627  0
C  C87  1  0.76208661  0.25635430  0.54050648  1  -0.047229  0  -0.086163  -0.164459  0  3.957481  0
C  C88  1  0.27592105  0.77569017  0.99250983  1  0.023742  0  -0.070431  -0.073356  0  3.933146  0
C  C89  1  0.22432852  0.72400916  0.50749174  1  0.02446  0  -0.07063  -0.073602  0  3.933915  0
C  C90  1  0.72408312  0.22432323  0.00749312  1  0.024106  0  -0.070514  -0.07344  0  3.93334  0
C  C91  1  0.77567016  0.27600686  0.49250747  1  0.023976  0  -0.070541  -0.07339  0  3.933754  0
C  C92  1  0.41805395  0.80409372  0.98072247  1  0.073091  0  -0.006906  0.018325  0  4.110738  0
C  C93  1  0.19589500  0.58186980  0.51927701  1  0.073374  0  -0.007203  0.018157  0  4.111333  0
C  C94  1  0.58195545  0.19591880  0.01927813  1  0.07264  0  -0.006904  0.018165  0  4.110994  0
C  C95  1  0.80410134  0.41814250  0.48072266  1  0.0732  0  -0.007157  0.018087  0  4.111518  0
C  C96  1  0.43777293  0.81967887  0.93169048  1  0.835819  0  0.208032  0.29605  0  3.98419  0
C  C97  1  0.18033579  0.56216985  0.56830951  1  0.834763  0  0.207972  0.296085  0  3.984054  0
C  C98  1  0.56223616  0.18032428  0.06831332  1  0.836211  0  0.208125  0.296257  0  3.984403  0
C  C99  1  0.81966882  0.43785203  0.43169310  1  0.834523  0  0.207998  0.296128  0  3.983727  0
C  C100  1  0.53994406  0.82031753  0.01810722  1  -0.005494  0  -0.073644  -0.091698  0  3.97499  0
C  C101  1  0.17964738  0.45998733  0.48189361  1  -0.005971  0  -0.073592  -0.091626  0  3.975514  0
C  C102  1  0.46006968  0.17967711  0.98189136  1  -0.005303  0  -0.073495  -0.091403  0  3.975039  0
C  C103  1  0.82037309  0.54002504  0.51811107  1  -0.005955  0  -0.073626  -0.091862  0  3.975622  0
C  C104  1  0.51981323  0.80855060  0.06616966  1  0.011181  0  -0.088026  -0.17134  0  3.987064  0
C  C105  1  0.19141097  0.48012588  0.43382877  1  0.011007  0  -0.088057  -0.171289  0  3.986753  0
C  C106  1  0.48019187  0.19144498  0.93382860  1  0.010652  0  -0.088176  -0.171553  0  3.987025  0
C  C107  1  0.80860640  0.51988887  0.56617625  1  0.010699  0  -0.08806  -0.171194  0  3.986832  0
C  C108  1  0.24210620  0.81542309  0.14451655  1  0.328044  0  0.102519  0.183177  0  4.005705  0
C  C109  1  0.18455660  0.75785441  0.35548851  1  0.327709  0  0.102417  0.182906  0  4.005443  0
C  C110  1  0.75789693  0.18459109  0.85548639  1  0.328219  0  0.102498  0.183105  0  4.005668  0
C  C111  1  0.81544160  0.24213314  0.64451019  1  0.327854  0  0.102466  0.182952  0  4.00563  0
C  C112  1  0.14385899  0.72499360  0.16872787  1  0.022001  0  -0.086588  -0.152937  0  3.943508  0
C  C113  1  0.27496838  0.85610204  0.33126555  1  0.022793  0  -0.086491  -0.152875  0  3.943419  0
C  C114  1  0.85613441  0.27501035  0.83126627  1  0.021972  0  -0.08678  -0.153169  0  3.943661  0
C  C115  1  0.72503152  0.14389444  0.66873541  1  0.022357  0  -0.086475  -0.152871  0  3.943421  0
C  C116  1  0.02717667  0.76756953  0.18313460  1  -0.044138  0  -0.071307  -0.078977  0  3.945289  0
C  C117  1  0.23239903  0.97279102  0.31685992  1  -0.044066  0  -0.071276  -0.078914  0  3.945295  0
C  C118  1  0.97281832  0.23242330  0.81685986  1  -0.044488  0  -0.071115  -0.078786  0  3.945287  0
C  C119  1  0.76759453  0.02719113  0.68313836  1  -0.04424  0  -0.071215  -0.078938  0  3.945078  0
C  C120  1  0.00880200  0.90201926  0.17362427  1  0.132327  0  -0.003447  0.020438  0  4.106701  0
C  C121  1  0.09797597  0.99117398  0.32637702  1  0.132278  0  -0.00335  0.020331  0  4.107381  0
C  C122  1  0.99119766  0.09799289  0.82637663  1  0.132932  0  -0.003445  0.020425  0  4.106983  0
C  C123  1  0.90202482  0.00881755  0.67362522  1  0.13211  0  -0.003433  0.020463  0  4.107362  0
C  C124  1  0.88405558  0.94318222  0.18368888  1  0.858379  0  0.218406  0.303623  0  3.959226  0
C  C125  1  0.05679062  0.11591185  0.31631452  1  0.85886  0  0.218475  0.303854  0  3.959843  0
C  C126  1  0.11593846  0.05680847  0.81630978  1  0.858992  0  0.218577  0.303813  0  3.959173  0
C  C127  1  0.94321491  0.88408616  0.68368856  1  0.859131  0  0.218466  0.303661  0  3.959713  0
C  C128  1  0.11095409  0.99554093  0.15090815  1  -0.016689  0  -0.070522  -0.071882  0  3.91338  0
C  C129  1  0.00446565  0.88904533  0.34909866  1  -0.015903  0  -0.070695  -0.072043  0  3.913603  0
C  C130  1  0.88904892  0.00447414  0.84909193  1  -0.016616  0  -0.070685  -0.072138  0  3.913516  0
C  C131  1  0.99552859  0.11094556  0.65090327  1  -0.016383  0  -0.070667  -0.07215  0  3.913535  0
C  C132  1  0.22680976  0.95180012  0.13656301  1  -0.074152  0  -0.08854  -0.166118  0  3.980446  0
C  C133  1  0.04818081  0.77316818  0.36344632  1  -0.074613  0  -0.088341  -0.165943  0  3.980048  0
C  C134  1  0.77319164  0.04819905  0.86344247  1  -0.074159  0  -0.088469  -0.166002  0  3.980165  0
C  C135  1  0.95180621  0.22681436  0.63655097  1  -0.07434  0  -0.088383  -0.165925  0  3.980076  0
N  N136  1  0.80676725  0.50904371  0.27520074  1  -1.203388  0  -0.354418  -0.386426  0  3.2895  0
N  N137  1  0.49095711  0.19324396  0.22480025  1  -1.203539  0  -0.354463  -0.386572  0  3.288926  0
N  N138  1  0.19322210  0.49094356  0.72479504  1  -1.20353  0  -0.354484  -0.386462  0  3.289624  0
N  N139  1  0.50903737  0.80675522  0.77519806  1  -1.203381  0  -0.354489  -0.386582  0  3.289254  0
N  N140  1  0.35605287  0.76752033  0.12686419  1  -1.225784  0  -0.238371  -0.141917  0  3.66551  0
N  N141  1  0.23248275  0.64391370  0.37314233  1  -1.225323  0  -0.238209  -0.141517  0  3.665345  0
N  N142  1  0.64395339  0.23249150  0.87313878  1  -1.22607  0  -0.238318  -0.141838  0  3.665636  0
N  N143  1  0.76752853  0.35609201  0.62685951  1  -1.225369  0  -0.238302  -0.141583  0  3.665294  0
N  N144  1  0.78133516  0.98086456  0.18916014  1  -1.207791  0  -0.35198  -0.379927  0  3.31943  0
N  N145  1  0.01913162  0.21864002  0.31084310  1  -1.207763  0  -0.352053  -0.380094  0  3.319873  0
N  N146  1  0.21865358  0.01913197  0.81083529  1  -1.208127  0  -0.352134  -0.380101  0  3.31953  0
N  N147  1  0.98088708  0.78136133  0.68915996  1  -1.208246  0  -0.352054  -0.379926  0  3.319719  0
N  N148  1  0.45378765  0.83426772  0.89137194  1  -1.21049  0  -0.329611  -0.407324  0  3.07569  0
N  N149  1  0.16574642  0.54618324  0.60863573  1  -1.209627  0  -0.329547  -0.407407  0  3.075394  0
N  N150  1  0.54621542  0.16572948  0.10862701  1  -1.210671  0  -0.329725  -0.407472  0  3.076086  0
N  N151  1  0.83426454  0.45383807  0.39136495  1  -1.209359  0  -0.32963  -0.40747  0  3.075083  0
Cl  Cl152  1  0.67533749  0.05739030  0.35960840  1  3.041909  0  0.715819  1.29453  0  6.774921  0
Cl  Cl153  1  0.94263767  0.32467303  0.14040062  1  3.044171  0  0.715825  1.294488  0  6.774668  0
Cl  Cl154  1  0.32465498  0.94260951  0.64039203  1  3.043983  0  0.715951  1.294884  0  6.774831  0
Cl  Cl155  1  0.05736373  0.67533118  0.85960037  1  3.04415  0  0.715849  1.294576  0  6.774801  0
O  O156  1  0.67900389  0.10604067  0.31149202  1  -0.97027  0  -0.333375  -0.548365  0  2.168524  0
O  O157  1  0.89390607  0.32099520  0.18850438  1  -0.970973  0  -0.333427  -0.548479  0  2.168406  0
O  O158  1  0.32099621  0.89396003  0.68850840  1  -0.970289  0  -0.333405  -0.548468  0  2.168481  0
O  O159  1  0.10608354  0.67901327  0.81149485  1  -0.970884  0  -0.333401  -0.548455  0  2.168415  0
O  O160  1  0.57402405  0.11454206  0.38485586  1  -0.986928  0  -0.322387  -0.507163  0  2.049347  0
O  O161  1  0.88542924  0.42592152  0.11513154  1  -0.986959  0  -0.322385  -0.507125  0  2.049568  0
O  O162  1  0.42596773  0.88546594  0.61514380  1  -0.988043  0  -0.322492  -0.507292  0  2.049585  0
O  O163  1  0.11457181  0.57408033  0.88486573  1  -0.986909  0  -0.322402  -0.507106  0  2.049486  0
O  O164  1  0.62541372  0.89551650  0.35088758  1  -1.009021  0  -0.325934  -0.51291  0  2.060988  0
O  O165  1  0.10452227  0.37457769  0.14911542  1  -1.009603  0  -0.325888  -0.512817  0  2.060306  0
O  O166  1  0.37457700  0.10448924  0.64911447  1  -1.009072  0  -0.325982  -0.513018  0  2.060725  0
O  O167  1  0.89547478  0.62542142  0.85088987  1  -1.009629  0  -0.325988  -0.512974  0  2.060161  0
O  O168  1  0.82351544  0.11117910  0.39007788  1  -0.988577  0  -0.322418  -0.51932  0  2.080761  0
O  O169  1  0.88880888  0.17650131  0.10992937  1  -0.989506  0  -0.322347  -0.519256  0  2.08124  0
O  O170  1  0.17647951  0.88882457  0.60992426  1  -0.989409  0  -0.322361  -0.51933  0  2.080739  0
O  O171  1  0.11119083  0.82349095  0.89007212  1  -0.989579  0  -0.322322  -0.519259  0  2.081515  0
