# generated using pymatgen
data_ZnH16C22(N3O)2
_symmetry_space_group_name_H-M   'P 1'
_cell_length_a   8.24193933
_cell_length_b   9.99022652
_cell_length_c   12.49663316
_cell_angle_alpha   78.06750749
_cell_angle_beta   80.34929980
_cell_angle_gamma   81.37490554
_symmetry_Int_Tables_number   1
_chemical_formula_structural   ZnH16C22(N3O)2
_chemical_formula_sum   'Zn2 H32 C44 N12 O4'
_cell_volume   985.36003692
_cell_formula_units_Z   2
loop_
 _symmetry_equiv_pos_site_id
 _symmetry_equiv_pos_as_xyz
  1  'x, y, z'
loop_
 _atom_site_type_symbol
 _atom_site_label
 _atom_site_symmetry_multiplicity
 _atom_site_fract_x
 _atom_site_fract_y
 _atom_site_fract_z
 _atom_site_occupancy
 _atom_site_hle17_bader_spin_density
 _atom_site_hle17_ddec_charge
 _atom_site_hle17_ddec_spin_density
 _atom_site_hle17_ddec_sum_bond_order
 _atom_site_hle17_magmom
 _atom_site_hse06_10hf_bader_spin_density
 _atom_site_hse06_10hf_ddec_charge
 _atom_site_hse06_10hf_ddec_spin_density
 _atom_site_hse06_10hf_ddec_sum_bond_order
 _atom_site_hse06_10hf_magmom
 _atom_site_hse06_bader_spin_density
 _atom_site_hse06_ddec_charge
 _atom_site_hse06_ddec_spin_density
 _atom_site_hse06_ddec_sum_bond_order
 _atom_site_hse06_magmom
 _atom_site_pbe_bader_spin_density
 _atom_site_pbe_cm5_charge
 _atom_site_pbe_ddec_charge
 _atom_site_pbe_ddec_spin_density
 _atom_site_pbe_ddec_sum_bond_order
 _atom_site_pbe_magmom
Zn  Zn0  1  0.71195174  0.75366358  0.72856064  1  0  0.953801  0  1.930734  0  0  0.758909  0  2.406487  0  0  0.802096  0  2.357663  0  0  0.71134  0.729035  0  2.440175  0
Zn  Zn1  1  0.28805913  0.24632581  0.27143826  1  0  0.953783  0  1.930895  0  0  0.758857  0  2.406658  0  0  0.802055  0  2.357835  0  0  0.711284  0.72897  0  2.440349  0
H  H2  1  0.52369035  0.05169577  0.75679149  1  0  0.059963  0  0.94223  0  0  0.075005  0  0.997115  0  0  0.077013  0  0.994626  0  0  0.113256  0.073643  0  0.998642  0
H  H3  1  0.47630645  0.94830608  0.24320475  1  0  0.059916  0  0.94221  0  0  0.074972  0  0.997092  0  0  0.07698  0  0.994601  0  0  0.113243  0.073609  0  0.998622  0
H  H4  1  0.44838941  0.77294167  0.56437143  1  0  0.0828  0  0.988901  0  0  0.093433  0  1.055454  0  0  0.095142  0  1.056008  0  0  0.09713  0.092386  0  1.054773  0
H  H5  1  0.55162571  0.22704346  0.43563082  1  0  0.082853  0  0.989089  0  0  0.093468  0  1.055638  0  0  0.095178  0  1.056194  0  0  0.097188  0.092423  0  1.054947  0
H  H6  1  0.26646260  0.89450376  0.41082571  1  0  0.076847  0  0.981594  0  0  0.086314  0  1.050855  0  0  0.088626  0  1.050168  0  0  0.089788  0.084804  0  1.050954  0
H  H7  1  0.73354481  0.10548497  0.58916484  1  0  0.076878  0  0.981521  0  0  0.08636  0  1.050776  0  0  0.088671  0  1.050088  0  0  0.089788  0.084846  0  1.050876  0
H  H8  1  0.98843354  0.07669049  0.67772742  1  0  0.082517  0  0.965498  0  0  0.09274  0  1.029994  0  0  0.095885  0  1.027741  0  0  0.091716  0.090387  0  1.031736  0
H  H9  1  0.01157637  0.92330644  0.32226253  1  0  0.082527  0  0.965549  0  0  0.092767  0  1.030031  0  0  0.095908  0  1.027783  0  0  0.091708  0.090415  0  1.031771  0
H  H10  1  0.79571524  0.73074581  0.46650332  1  0  0.108007  0  0.93814  0  0  0.112126  0  1.007544  0  0  0.11543  0  1.003452  0  0  0.140868  0.109467  0  1.010661  0
H  H11  1  0.20428176  0.26925353  0.53350365  1  0  0.107926  0  0.938228  0  0  0.11207  0  1.00759  0  0  0.115365  0  1.003524  0  0  0.140871  0.109419  0  1.010695  0
H  H12  1  0.09147847  0.61650885  0.72438185  1  0  0.117616  0  0.953282  0  0  0.124478  0  1.017972  0  0  0.126704  0  1.01788  0  0  0.120875  0.122999  0  1.017919  0
H  H13  1  0.90853835  0.38347329  0.27561824  1  0  0.117524  0  0.953376  0  0  0.124427  0  1.018021  0  0  0.126648  0  1.01794  0  0  0.120877  0.122947  0  1.017965  0
H  H14  1  0.34466035  0.43068796  0.68702192  1  0  0.098226  0  0.947888  0  0  0.108952  0  1.007458  0  0  0.111673  0  1.006804  0  0  0.103748  0.106962  0  1.008205  0
H  H15  1  0.65534987  0.56929727  0.31297842  1  0  0.09821  0  0.947814  0  0  0.108932  0  1.007403  0  0  0.111651  0  1.006752  0  0  0.103742  0.106941  0  1.008149  0
H  H16  1  0.36175977  0.65536875  0.35127539  1  0  0.084985  0  0.956311  0  0  0.095843  0  1.019151  0  0  0.09899  0  1.017035  0  0  0.100756  0.093973  0  1.019924  0
H  H17  1  0.63824274  0.34461034  0.64872581  1  0  0.084876  0  0.956496  0  0  0.09588  0  1.019144  0  0  0.099029  0  1.017031  0  0  0.100786  0.094002  0  1.019917  0
H  H18  1  0.72015728  0.39712261  0.83990453  1  0  0.07997  0  0.942602  0  0  0.095153  0  0.997343  0  0  0.097389  0  0.994731  0  0  0.133609  0.093402  0  0.99945  0
H  H19  1  0.27983133  0.60288408  0.16009909  1  0  0.080044  0  0.942541  0  0  0.095217  0  0.997287  0  0  0.097455  0  0.994673  0  0  0.13364  0.093468  0  0.999394  0
H  H20  1  0.35674606  0.74312100  0.82443274  1  0  0.122321  0  0.956775  0  0  0.130627  0  1.016982  0  0  0.132783  0  1.017098  0  0  0.124484  0.128996  0  1.017117  0
H  H21  1  0.64324749  0.25689376  0.17557325  1  0  0.122331  0  0.956755  0  0  0.130651  0  1.01694  0  0  0.132809  0  1.017056  0  0  0.124515  0.129017  0  1.017073  0
H  H22  1  0.13727360  0.70143923  0.00916859  1  0  0.092302  0  0.96242  0  0  0.104735  0  1.020723  0  0  0.106637  0  1.021396  0  0  0.102144  0.102573  0  1.022134  0
H  H23  1  0.86271303  0.29858062  0.99083902  1  0  0.09216  0  0.962528  0  0  0.104608  0  1.020832  0  0  0.106509  0  1.021518  0  0  0.102085  0.102447  0  1.022234  0
H  H24  1  0.14956543  0.31847369  0.89830088  1  0  0.098056  0  0.956208  0  0  0.108957  0  1.016215  0  0  0.111631  0  1.015138  0  0  0.104555  0.106648  0  1.017907  0
H  H25  1  0.85042399  0.68154419  0.10170431  1  0  0.098092  0  0.956207  0  0  0.108992  0  1.016212  0  0  0.111667  0  1.015142  0  0  0.104595  0.106685  0  1.017901  0
H  H26  1  0.08668580  0.93067694  0.81724066  1  0  0.107766  0  0.965877  0  0  0.114473  0  1.031791  0  0  0.118027  0  1.029896  0  0  0.102452  0.112125  0  1.032983  0
H  H27  1  0.91331651  0.06932075  0.18275638  1  0  0.107752  0  0.965869  0  0  0.114406  0  1.031859  0  0  0.117963  0  1.029966  0  0  0.102402  0.112056  0  1.03305  0
H  H28  1  0.72390358  0.95459488  0.10541110  1  0  0.101059  0  0.970285  0  0  0.10548  0  1.040958  0  0  0.10948  0  1.03787  0  0  0.098415  0.102666  0  1.043383  0
H  H29  1  0.27609180  0.04541755  0.89457741  1  0  0.101075  0  0.970243  0  0  0.10548  0  1.040935  0  0  0.10948  0  1.037847  0  0  0.098426  0.10266  0  1.043366  0
H  H30  1  0.08090313  0.63481602  0.38523782  1  0  0.306049  0  0.84929  0  0  0.300666  0  0.88899  0  0  0.30616  0  0.886207  0  0  0.343451  0.296472  0  0.8914  0
H  H31  1  0.91909219  0.36517835  0.61476601  1  0  0.306148  0  0.849111  0  0  0.3007  0  0.888911  0  0  0.306194  0  0.886122  0  0  0.343479  0.296503  0  0.891322  0
H  H32  1  0.44011209  0.31324717  0.94392156  1  0  0.333611  0  0.893753  0  0  0.314499  0  0.954255  0  0  0.32339  0  0.946579  0  0  0.316039  0.308183  0  0.95977  0
H  H33  1  0.55987416  0.68676632  0.05609097  1  0  0.333597  0  0.893771  0  0  0.314557  0  0.954219  0  0  0.323447  0  0.946545  0  0  0.316035  0.308243  0  0.959736  0
C  C34  1  0.46565356  0.00671282  0.70278773  1  0  0.179469  0  3.820629  0  0  0.135898  0  4.0975  0  0  0.14672  0  4.113329  0  0  0.097091  0.128729  0  4.086035  0
C  C35  1  0.53434588  0.99328811  0.29720595  1  0  0.179537  0  3.820545  0  0  0.135941  0  4.097442  0  0  0.146765  0  4.113272  0  0  0.097112  0.128769  0  4.085979  0
C  C36  1  0.42644640  0.86238864  0.60376172  1  0  -0.064537  0  3.751074  0  0  -0.100607  0  4.007608  0  0  -0.099351  0  4.029236  0  0  -0.026137  -0.101642  0  3.992847  0
C  C37  1  0.57356758  0.13760490  0.39623548  1  0  -0.064645  0  3.751143  0  0  -0.100697  0  4.007698  0  0  -0.099441  0  4.029323  0  0  -0.026185  -0.101729  0  3.992935  0
C  C38  1  0.29450852  0.96704130  0.60338317  1  0  0.096057  0  3.861715  0  0  0.100143  0  4.112042  0  0  0.101032  0  4.136453  0  0  0.05385  0.099369  0  4.095869  0
C  C39  1  0.70549598  0.03295052  0.39660725  1  0  0.095911  0  3.861456  0  0  0.099994  0  4.111825  0  0  0.100884  0  4.136235  0  0  0.053744  0.099208  0  4.095664  0
C  C40  1  0.14563490  0.98301453  0.55099498  1  0  0.033054  0  3.824572  0  0  0.049606  0  4.052174  0  0  0.049972  0  4.075861  0  0  -0.019152  0.049223  0  4.03696  0
C  C41  1  0.85436991  0.01697526  0.44899489  1  0  0.033247  0  3.82415  0  0  0.049753  0  4.051841  0  0  0.050118  0  4.075527  0  0  -0.019062  0.049375  0  4.036624  0
C  C42  1  0.14875433  0.93887714  0.45082679  1  0  -0.118054  0  3.777967  0  0  -0.138537  0  4.029341  0  0  -0.140447  0  4.050364  0  0  -0.106436  -0.137648  0  4.015514  0
C  C43  1  0.85125280  0.06111372  0.54916189  1  0  -0.118146  0  3.777597  0  0  -0.138666  0  4.029069  0  0  -0.140573  0  4.050087  0  0  -0.10647  -0.137772  0  4.015236  0
C  C44  1  0.99334660  0.04415237  0.59906315  1  0  -0.113955  0  3.777861  0  0  -0.13227  0  4.026907  0  0  -0.133855  0  4.045609  0  0  -0.105048  -0.13136  0  4.014389  0
C  C45  1  0.00666634  0.95584035  0.40092948  1  0  -0.114126  0  3.778004  0  0  -0.132469  0  4.027156  0  0  -0.134056  0  4.045859  0  0  -0.105144  -0.131557  0  4.014631  0
C  C46  1  0.89836654  0.68843350  0.51270656  1  0  0.246692  0  3.647179  0  0  0.184071  0  3.923822  0  0  0.199032  0  3.935017  0  0  0.160604  0.174887  0  3.914892  0
C  C47  1  0.10163693  0.31156385  0.48729841  1  0  0.24677  0  3.64738  0  0  0.184119  0  3.924018  0  0  0.199078  0  3.935212  0  0  0.160551  0.174927  0  3.915093  0
C  C48  1  0.05698172  0.62665667  0.64281338  1  0  -0.035646  0  3.653552  0  0  -0.075485  0  3.9194  0  0  -0.073913  0  3.938362  0  0  0.006788  -0.076207  0  3.906587  0
C  C49  1  0.94302465  0.37332953  0.35718883  1  0  -0.035411  0  3.653395  0  0  -0.075307  0  3.919224  0  0  -0.073731  0  3.938183  0  0  0.006808  -0.076028  0  3.906407  0
C  C50  1  0.15523932  0.60154068  0.54606567  1  0  0.117127  0  3.786027  0  0  0.1038  0  4.048493  0  0  0.105894  0  4.07175  0  0  0.085853  0.102359  0  4.032103  0
C  C51  1  0.84476196  0.39844648  0.45393854  1  0  0.116978  0  3.786109  0  0  0.103675  0  4.048547  0  0  0.105765  0  4.071805  0  0  0.085809  0.102225  0  4.032168  0
C  C52  1  0.32955190  0.54941687  0.52227419  1  0  0.022229  0  3.835984  0  0  0.037703  0  4.072491  0  0  0.038218  0  4.095418  0  0  -0.007867  0.037577  0  4.056806  0
C  C53  1  0.67045482  0.45057554  0.47772633  1  0  0.022336  0  3.83624  0  0  0.037805  0  4.072739  0  0  0.038319  0  4.095665  0  0  -0.007852  0.037684  0  4.057052  0
C  C54  1  0.41254561  0.46288503  0.60526574  1  0  -0.088767  0  3.727165  0  0  -0.106972  0  3.973832  0  0  -0.109293  0  3.994755  0  0  -0.083655  -0.1056  0  3.959765  0
C  C55  1  0.58746335  0.53710003  0.39473877  1  0  -0.088801  0  3.72721  0  0  -0.106989  0  3.973813  0  0  -0.109306  0  3.994733  0  0  -0.083668  -0.105618  0  3.95975  0
C  C56  1  0.42049531  0.58518298  0.41670395  1  0  -0.100412  0  3.741068  0  0  -0.12474  0  3.997685  0  0  -0.126652  0  4.017429  0  0  -0.089201  -0.123018  0  3.983524  0
C  C57  1  0.57950496  0.41480349  0.58329246  1  0  -0.100431  0  3.74133  0  0  -0.12485  0  3.997912  0  0  -0.126774  0  4.017678  0  0  -0.08925  -0.123118  0  3.983738  0
C  C58  1  0.60153382  0.46042374  0.84765965  1  0  0.217193  0  3.692259  0  0  0.154605  0  3.970052  0  0  0.168146  0  3.98317  0  0  0.140867  0.145897  0  3.960664  0
C  C59  1  0.39845550  0.53957767  0.15234783  1  0  0.217054  0  3.692324  0  0  0.154531  0  3.970149  0  0  0.16807  0  3.983273  0  0  0.140784  0.145822  0  3.960759  0
C  C60  1  0.41042832  0.63666072  0.84423164  1  0  -0.045946  0  3.697284  0  0  -0.087213  0  3.966121  0  0  -0.085954  0  3.985075  0  0  0.001784  -0.087854  0  3.95319  0
C  C61  1  0.58956245  0.36334800  0.15577228  1  0  -0.045923  0  3.697293  0  0  -0.08726  0  3.966068  0  0  -0.086005  0  3.985024  0  0  0.001738  -0.087887  0  3.953133  0
C  C62  1  0.33476052  0.52237284  0.89827255  1  0  0.113359  0  3.793941  0  0  0.101922  0  4.050768  0  0  0.104222  0  4.073605  0  0  0.082087  0.100367  0  4.03515  0
C  C63  1  0.66523042  0.47764298  0.10173277  1  0  0.112821  0  3.794426  0  0  0.101725  0  4.051039  0  0  0.104033  0  4.073867  0  0  0.081953  0.100143  0  4.03545  0
C  C64  1  0.16399295  0.51053791  0.94876353  1  0  0.027944  0  3.839673  0  0  0.044628  0  4.073711  0  0  0.045132  0  4.096553  0  0  -0.01139  0.044235  0  4.05783  0
C  C65  1  0.83599660  0.48948691  0.05124709  1  0  0.02844  0  3.839015  0  0  0.044834  0  4.073288  0  0  0.045335  0  4.096127  0  0  -0.011227  0.044452  0  4.057402  0
C  C66  1  0.07723715  0.61264175  0.00586280  1  0  -0.102912  0  3.761225  0  0  -0.123082  0  4.007227  0  0  -0.125728  0  4.028774  0  0  -0.08862  -0.121105  0  3.993691  0
C  C67  1  0.92275543  0.38737885  0.99415049  1  0  -0.102828  0  3.760919  0  0  -0.122943  0  4.006963  0  0  -0.125592  0  4.028511  0  0  -0.088584  -0.120961  0  3.993416  0
C  C68  1  0.08429623  0.39819970  0.94274375  1  0  -0.105464  0  3.760839  0  0  -0.12686  0  4.008901  0  0  -0.128956  0  4.029136  0  0  -0.09196  -0.124913  0  3.995344  0
C  C69  1  0.91569443  0.60182628  0.05726339  1  0  -0.105392  0  3.760547  0  0  -0.126717  0  4.008683  0  0  -0.128819  0  4.02892  0  0  -0.091973  -0.124769  0  3.995127  0
C  C70  1  0.77965428  0.86008887  0.91201266  1  0  0.643396  0  3.91969  0  0  0.593942  0  4.213822  0  0  0.627543  0  4.206593  0  0  0.203472  0.571032  0  4.218396  0
C  C71  1  0.22035033  0.13991947  0.08797466  1  0  0.643531  0  3.919424  0  0  0.59406  0  4.213548  0  0  0.627661  0  4.206318  0  0  0.203564  0.571147  0  4.218122  0
C  C72  1  0.89225778  0.93523744  0.95615267  1  0  -0.072631  0  3.758321  0  0  -0.047603  0  3.98452  0  0  -0.054921  0  4.008574  0  0  -0.023312  -0.042297  0  3.968554  0
C  C73  1  0.10773788  0.06477286  0.04383771  1  0  -0.072677  0  3.758448  0  0  -0.047627  0  3.984608  0  0  -0.054943  0  4.008662  0  0  -0.02335  -0.042318  0  3.968638  0
C  C74  1  0.04871562  0.96141284  0.89723145  1  0  -0.087515  0  3.738692  0  0  -0.110546  0  3.989555  0  0  -0.111205  0  4.009233  0  0  -0.092844  -0.109404  0  3.976476  0
C  C75  1  0.95127845  0.03859118  0.10276237  1  0  -0.087615  0  3.738891  0  0  -0.110627  0  3.989774  0  0  -0.111296  0  4.009462  0  0  -0.09286  -0.109485  0  3.976691  0
C  C76  1  0.84480909  0.97470225  0.05932087  1  0  -0.081975  0  3.743775  0  0  -0.103745  0  3.991496  0  0  -0.104815  0  4.011504  0  0  -0.092388  -0.103617  0  3.978957  0
C  C77  1  0.15518457  0.02531306  0.94067223  1  0  -0.082114  0  3.743741  0  0  -0.103895  0  3.991497  0  0  -0.104965  0  4.0115  0  0  -0.09246  -0.103763  0  3.978967  0
N  N78  1  0.53491894  0.88734312  0.66787685  1  0  -0.444311  0  3.388466  0  0  -0.349926  0  3.681497  0  0  -0.372524  0  3.697042  0  0  -0.396375  -0.334421  0  3.670586  0
N  N79  1  0.46508364  0.11265234  0.33212448  1  0  -0.444265  0  3.388457  0  0  -0.34986  0  3.681483  0  0  -0.372467  0  3.697044  0  0  -0.396385  -0.334354  0  3.670567  0
N  N80  1  0.32143977  0.05887277  0.66641003  1  0  -0.465632  0  3.020636  0  0  -0.432543  0  3.299286  0  0  -0.446847  0  3.314368  0  0  -0.374552  -0.422249  0  3.288687  0
N  N81  1  0.67855953  0.94112115  0.33357984  1  0  -0.465589  0  3.0203  0  0  -0.432482  0  3.298966  0  0  -0.446781  0  3.314033  0  0  -0.374517  -0.422187  0  3.288374  0
N  N82  1  0.89862366  0.67969411  0.62067997  1  0  -0.37035  0  3.273677  0  0  -0.288125  0  3.575124  0  0  -0.307213  0  3.586384  0  0  -0.352874  -0.275461  0  3.567346  0
N  N83  1  0.10138038  0.32029902  0.37932793  1  0  -0.370445  0  3.273564  0  0  -0.288191  0  3.575027  0  0  -0.307276  0  3.586275  0  0  -0.352841  -0.27553  0  3.567254  0
N  N84  1  0.05040393  0.64121519  0.46615795  1  0  -0.329951  0  3.481486  0  0  -0.270776  0  3.715947  0  0  -0.287075  0  3.732424  0  0  -0.37848  -0.259535  0  3.703412  0
N  N85  1  0.94959690  0.35877503  0.53384669  1  0  -0.329959  0  3.481592  0  0  -0.27076  0  3.716091  0  0  -0.287056  0  3.732562  0  0  -0.378473  -0.259513  0  3.703559  0
N  N86  1  0.57618008  0.59676718  0.81279132  1  0  -0.383876  0  3.296658  0  0  -0.308107  0  3.606244  0  0  -0.326117  0  3.617587  0  0  -0.354943  -0.295983  0  3.598295  0
N  N87  1  0.42381404  0.40323536  0.18721310  1  0  -0.383807  0  3.296767  0  0  -0.308037  0  3.606366  0  0  -0.326041  0  3.6177  0  0  -0.354917  -0.295911  0  3.598409  0
N  N88  1  0.45815903  0.41144900  0.89882474  1  0  -0.321724  0  3.384354  0  0  -0.254085  0  3.611898  0  0  -0.270831  0  3.626745  0  0  -0.365121  -0.242834  0  3.601685  0
N  N89  1  0.54182942  0.58856665  0.10118486  1  0  -0.321486  0  3.384782  0  0  -0.254113  0  3.612375  0  0  -0.270861  0  3.627224  0  0  -0.365034  -0.242857  0  3.602173  0
O  O90  1  0.64299627  0.83151193  0.96750437  1  0  -0.634224  0  1.93159  0  0  -0.591998  0  2.15463  0  0  -0.61351  0  2.144056  0  0  -0.334785  -0.57709  0  2.161734  0
O  O91  1  0.35700074  0.16848913  0.03248635  1  0  -0.634131  0  1.931853  0  0  -0.591905  0  2.154916  0  0  -0.61342  0  2.144345  0  0  -0.334761  -0.576997  0  2.162011  0
O  O92  1  0.83838804  0.82831677  0.81660148  1  0  -0.634434  0  2.079567  0  0  -0.555372  0  2.357203  0  0  -0.58363  0  2.343087  0  0  -0.331768  -0.536043  0  2.366828  0
O  O93  1  0.16161433  0.17168919  0.18339361  1  0  -0.634622  0  2.07921  0  0  -0.555498  0  2.356833  0  0  -0.583761  0  2.34272  0  0  -0.331825  -0.536167  0  2.366456  0
