# generated using pymatgen
data_SrFe2H16C28(N2O9)2
_symmetry_space_group_name_H-M   'P 1'
_cell_length_a   7.91428998
_cell_length_b   9.32926223
_cell_length_c   11.63358516
_cell_angle_alpha   104.86185239
_cell_angle_beta   98.53064311
_cell_angle_gamma   111.20771937
_symmetry_Int_Tables_number   1
_chemical_formula_structural   SrFe2H16C28(N2O9)2
_chemical_formula_sum   'Sr1 Fe2 H16 C28 N4 O18'
_cell_volume   745.77232144
_cell_formula_units_Z   1
loop_
 _symmetry_equiv_pos_site_id
 _symmetry_equiv_pos_as_xyz
  1  'x, y, z'
loop_
 _atom_site_type_symbol
 _atom_site_label
 _atom_site_symmetry_multiplicity
 _atom_site_fract_x
 _atom_site_fract_y
 _atom_site_fract_z
 _atom_site_occupancy
 _atom_site_hle17_ddec_charge
 _atom_site_hle17_ddec_spin_density
 _atom_site_hle17_ddec_sum_bond_order
 _atom_site_hle17_magmom
 _atom_site_hse06_10hf_ddec_charge
 _atom_site_hse06_10hf_ddec_spin_density
 _atom_site_hse06_10hf_ddec_sum_bond_order
 _atom_site_hse06_10hf_magmom
 _atom_site_hse06_ddec_charge
 _atom_site_hse06_ddec_spin_density
 _atom_site_hse06_ddec_sum_bond_order
 _atom_site_hse06_magmom
 _atom_site_pbe_cm5_charge
 _atom_site_pbe_ddec_charge
 _atom_site_pbe_ddec_spin_density
 _atom_site_pbe_ddec_sum_bond_order
 _atom_site_pbe_magmom
Sr  Sr0  1  0.99999960  0.99999888  0.99999858  1  1.647834  -3e-06  1.001692  0.0  1.517781  -3e-06  1.351412  0.0  1.554906  -1.1e-05  1.30567  0.0  0.936731  1.490432  0.0  1.383667  0.0
Fe  Fe1  1  0.52123509  0.23111199  0.76207728  1  0.864063  1.445107  2.945279  1.188  0.87639  1.129122  3.394233  0.99  0.981119  1.136849  3.310428  1.011  0.835999  0.814993  1.119895  3.446598  0.966
Fe  Fe2  1  0.47876136  0.76888564  0.23792330  1  0.863959  -1.445103  2.945299  -1.188  0.876345  -1.129127  3.39423  -0.99  0.981074  -1.136843  3.310428  -1.011  0.835947  0.81491  -1.119902  3.446598  -0.966
H  H3  1  0.14745914  0.65094743  0.91618458  1  0.134433  0.000101  0.914806  0.0  0.143685  5e-06  0.972077  0.0  0.148448  6e-06  0.967145  0.0  0.127624  0.139977  2e-06  0.976209  0.0
H  H4  1  0.85254420  0.34905387  0.08381489  1  0.134436  -0.000102  0.914841  0.0  0.143679  -5e-06  0.972123  0.0  0.148449  -5e-06  0.967177  0.0  0.127633  0.139972  -2e-06  0.976255  0.0
H  H5  1  0.95520533  0.35910679  0.78176208  1  0.130333  -0.000225  0.975331  0.0  0.133335  -2.8e-05  1.041552  0.0  0.138009  -7.9e-05  1.038805  0.0  0.11874  0.129933  4.4e-05  1.04367  0.0
H  H6  1  0.04479787  0.64089962  0.21822386  1  0.130315  0.000225  0.97529  0.0  0.133231  2.9e-05  1.041628  0.0  0.137896  8e-05  1.038891  0.0  0.118688  0.129826  -4.4e-05  1.043749  0.0
H  H7  1  0.79617795  0.47780277  0.67151880  1  0.101066  -0.000153  0.932048  0.0  0.110372  -0.000248  0.989355  0.0  0.113419  -0.000231  0.986186  0.0  0.131635  0.107646  -0.000257  0.992511  0.0
H  H8  1  0.20382173  0.52219364  0.32848012  1  0.101076  0.000147  0.932025  0.0  0.110378  0.000248  0.989337  0.0  0.113424  0.000232  0.98617  0.0  0.131638  0.10765  0.000257  0.992489  0.0
H  H9  1  0.11469716  0.18233401  0.70782527  1  0.114191  -0.000245  0.954997  0.0  0.117423  -0.000274  1.020538  0.0  0.121721  -0.000254  1.015592  0.0  0.129822  0.113992  -0.000281  1.02459  0.0
H  H10  1  0.88530414  0.81767105  0.29216965  1  0.114207  0.000245  0.95485  0.0  0.117409  0.000274  1.020467  0.0  0.121708  0.000254  1.015518  0.0  0.129827  0.113976  0.000281  1.024514  0.0
H  H11  1  0.81886061  0.48366009  0.46015023  1  0.111908  -0.000177  0.930427  0.0  0.124164  -4.3e-05  0.982657  0.0  0.127261  -5.1e-05  0.982036  0.0  0.116416  0.121938  -1.9e-05  0.983  0.0
H  H12  1  0.18113858  0.51633269  0.53984529  1  0.111896  0.000183  0.9304  0.0  0.124113  4.3e-05  0.982668  0.0  0.127205  5.1e-05  0.982052  0.0  0.11641  0.121888  1.9e-05  0.983011  0.0
H  H13  1  0.57701640  0.25216762  0.27442235  1  0.113572  0.000119  0.958291  0.0  0.119488  -1.7e-05  1.024652  0.0  0.1231  -2e-06  1.021334  0.0  0.113289  0.116598  -4.7e-05  1.027724  0.0
H  H14  1  0.42297274  0.74782019  0.72557971  1  0.113576  -0.000112  0.958235  0.0  0.119501  1.7e-05  1.024589  0.0  0.123113  2e-06  1.021272  0.0  0.113277  0.116608  4.7e-05  1.02766  0.0
H  H15  1  0.75326423  0.06083110  0.16756137  1  0.426089  8e-06  0.870671  0.0  0.395414  -1.2e-05  0.936208  0.0  0.406801  1.9e-05  0.919469  0.0  0.298609  0.387216  -4.1e-05  0.948271  0.0
H  H16  1  0.24675728  0.93917866  0.83244428  1  0.426196  -7e-06  0.870844  0.0  0.395497  1.2e-05  0.936144  0.0  0.406887  -1.9e-05  0.919401  0.0  0.298648  0.387306  4.1e-05  0.948196  0.0
H  H17  1  0.95559890  0.12897728  0.25008045  1  0.429105  7.2e-05  0.842199  0.0  0.405309  3.3e-05  0.903434  0.0  0.415554  2.6e-05  0.888187  0.0  0.307163  0.397924  4.3e-05  0.91442  0.0
H  H18  1  0.04442101  0.87102392  0.74992322  1  0.429328  -7.4e-05  0.841809  0.0  0.405475  -3.3e-05  0.903216  0.0  0.415719  -2.6e-05  0.887967  0.0  0.307171  0.398086  -4.3e-05  0.914216  0.0
C  C19  1  0.27734231  0.99466162  0.27578888  1  0.696645  -0.000541  3.858169  -0.002  0.648352  -0.000216  4.1643  -0.001  0.689042  -0.000145  4.151467  -0.001  0.242787  0.620683  -0.000278  4.171717  -0.001
C  C20  1  0.72265227  0.00533479  0.72421211  1  0.696899  0.000543  3.858267  0.002  0.648516  0.000217  4.164451  0.001  0.689222  0.000149  4.15159  0.001  0.242862  0.620848  0.000279  4.171877  0.001
C  C21  1  0.42080872  0.13851651  0.50660607  1  0.058782  -0.005624  3.707188  -0.007  0.053221  -0.001718  3.954245  -0.002  0.058324  -0.000399  3.970867  0.0  0.11005  0.048607  -0.002804  3.944369  -0.003
C  C22  1  0.57918118  0.86148602  0.49339663  1  0.05906  0.005618  3.707127  0.007  0.053408  0.00172  3.954269  0.002  0.058509  0.000402  3.970894  0.0  0.110068  0.048794  0.002802  3.94439  0.003
C  C23  1  0.27412556  0.01370630  0.53982781  1  0.589636  -0.000688  3.904402  0.0  0.54421  -3.7e-05  4.214209  -0.001  0.578695  -0.00055  4.209252  -0.001  0.212255  0.520486  0.000433  4.216603  0.0
C  C24  1  0.72586561  0.98629625  0.46017244  1  0.589513  0.000686  3.904275  0.0  0.544109  3.7e-05  4.214087  0.001  0.578595  0.000553  4.209133  0.001  0.212168  0.520385  -0.000433  4.216479  0.0
C  C25  1  0.42526818  0.13150356  0.38598895  1  -0.069939  0.001366  3.679985  0.002  -0.055733  -0.000655  3.915164  -0.001  -0.06251  -0.000875  3.929499  -0.002  0.013643  -0.052091  -0.000872  3.907062  -0.001
C  C26  1  0.57472936  0.86849895  0.61401364  1  -0.070199  -0.001363  3.680295  -0.002  -0.055876  0.000655  3.915385  0.001  -0.062659  0.00087  3.929717  0.002  0.013625  -0.052235  0.000872  3.907287  0.001
C  C27  1  0.69581017  0.56184977  0.89840901  1  0.618925  -0.001295  3.892366  -0.001  0.570181  -0.000186  4.195859  0.0  0.607247  -0.000223  4.187375  0.0  0.227911  0.543928  -0.00046  4.202191  -0.001
C  C28  1  0.30419131  0.43815039  0.10158487  1  0.61887  0.001297  3.892426  0.001  0.570156  0.000186  4.195889  0.0  0.607222  0.000222  4.187405  0.0  0.227921  0.5439  0.00046  4.202219  0.001
C  C29  1  0.41132615  0.63055487  0.91251206  1  -0.082719  0.000996  3.706841  0.001  -0.071028  -0.000226  3.948582  0.0  -0.07882  -0.00051  3.965965  -0.001  0.008146  -0.066743  -0.000262  3.938388  0.0
C  C30  1  0.58867345  0.36944398  0.08748824  1  -0.08272  -0.000973  3.706948  -0.001  -0.071004  0.000227  3.948639  0.0  -0.078798  0.000508  3.966023  0.001  0.008149  -0.066719  0.000262  3.938444  0.0
C  C31  1  0.49100961  0.52340332  0.86812497  1  0.038292  -0.004554  3.729581  -0.006  0.034791  -0.001254  3.978428  -0.001  0.038055  -0.000413  3.997886  0.0  0.106699  0.032198  -0.001861  3.966857  -0.002
C  C32  1  0.50898879  0.47659309  0.13187469  1  0.038318  0.004538  3.729587  0.006  0.034789  0.001254  3.978443  0.001  0.038058  0.000414  3.997904  0.0  0.106681  0.032194  0.001861  3.966868  0.002
C  C33  1  0.21486809  0.57212646  0.88117553  1  -0.001204  -0.004804  3.617878  -0.006  -0.031617  -0.0014  3.87248  -0.002  -0.023016  -0.000219  3.881028  0.0  -0.050551  -0.038271  -0.002373  3.868283  -0.003
C  C34  1  0.78513024  0.42787246  0.11882036  1  -0.001162  0.004778  3.61808  0.006  -0.031581  0.001399  3.872645  0.002  -0.022977  0.000222  3.881193  0.0  -0.050541  -0.038238  0.002373  3.868443  0.003
C  C35  1  0.53578242  0.80546754  0.98979381  1  0.668009  -0.000476  3.875659  -0.002  0.620551  -6.1e-05  4.178975  -0.001  0.658952  -0.000157  4.168009  -0.001  0.235291  0.594595  0.000155  4.184902  0.0
C  C36  1  0.46422158  0.19453246  0.01021061  1  0.667906  0.00047  3.87558  0.002  0.620483  6e-05  4.178831  0.001  0.658885  0.000159  4.167865  0.001  0.235274  0.594529  -0.000155  4.184761  0.0
C  C37  1  0.10773579  0.41103307  0.80532034  1  -0.070248  0.001223  3.641939  0.001  -0.087001  5.2e-05  3.899863  0.0  -0.091524  -0.000339  3.911346  -0.001  -0.061341  -0.084265  0.000178  3.893005  0.0
C  C38  1  0.89225941  0.58896472  0.19466898  1  -0.07031  -0.001197  3.642031  -0.001  -0.086987  -5.2e-05  3.899955  0.0  -0.091503  0.000336  3.911427  0.001  -0.061317  -0.084262  -0.000178  3.893116  0.0
C  C39  1  0.69269881  0.38273326  0.58897841  1  0.139149  -0.006419  3.635683  -0.008  0.105567  -0.00196  3.898368  -0.002  0.118328  -0.000515  3.910335  0.0  0.0597  0.09623  -0.003251  3.892579  -0.004
C  C40  1  0.30730010  0.61726681  0.41102293  1  0.139056  0.006425  3.635641  0.008  0.105506  0.001962  3.898302  0.002  0.118263  0.000516  3.91027  0.0  0.059649  0.09617  0.00325  3.892498  0.004
C  C41  1  0.19521284  0.30966409  0.76432894  1  0.150593  -0.004927  3.597895  -0.006  0.11712  -0.001402  3.859287  -0.001  0.131414  -0.000404  3.868661  0.0  0.064384  0.107395  -0.001997  3.853896  -0.002
C  C42  1  0.80478745  0.69033361  0.23566602  1  0.150694  0.004912  3.597752  0.006  0.117214  0.001403  3.859143  0.001  0.131516  0.000403  3.868516  0.0  0.06441  0.107486  0.001997  3.853746  0.002
C  C43  1  0.70408107  0.38377681  0.47067975  1  -0.08909  0.002247  3.696837  0.003  -0.103349  -0.00011  3.95098  0.0  -0.10941  -0.000644  3.965583  -0.001  -0.067492  -0.099283  0.000189  3.9423  0.0
C  C44  1  0.29591673  0.61621834  0.52932216  1  -0.088967  -0.002255  3.696749  -0.003  -0.103186  0.000109  3.950881  0.0  -0.10924  0.000639  3.965481  0.001  -0.06748  -0.09912  -0.000189  3.942196  0.0
C  C45  1  0.57067062  0.25721006  0.36811697  1  -0.002368  -0.006604  3.642229  -0.008  -0.032623  -0.001874  3.89474  -0.002  -0.022469  -0.000275  3.903233  0.0  -0.054709  -0.040961  -0.003462  3.891092  -0.004
C  C46  1  0.42931886  0.74278638  0.63188267  1  -0.002346  0.006588  3.642334  0.008  -0.032633  0.001872  3.894778  0.002  -0.022477  0.000281  3.903269  0.0  -0.054672  -0.040962  0.003461  3.891127  0.004
N  N47  1  0.38316403  0.36519910  0.79632195  1  -0.263899  -0.018308  3.400427  -0.033  -0.230043  -0.007205  3.68395  -0.016  -0.259289  -0.007988  3.70701  -0.018  -0.338356  -0.212815  -0.006767  3.668979  -0.015
N  N48  1  0.61683734  0.63480342  0.20367930  1  -0.263953  0.018322  3.400372  0.033  -0.230082  0.007205  3.683902  0.016  -0.259344  0.007987  3.706974  0.018  -0.338366  -0.212849  0.006767  3.668923  0.015
N  N49  1  0.55365444  0.26168086  0.60607460  1  -0.256366  -0.015404  3.387186  -0.026  -0.222403  -0.008076  3.671486  -0.016  -0.249103  -0.008664  3.689727  -0.018  -0.333729  -0.207008  -0.007943  3.660824  -0.014
N  N50  1  0.44633741  0.73832043  0.39392803  1  -0.25639  0.01541  3.3873  0.026  -0.222476  0.008076  3.671686  0.016  -0.249175  0.008663  3.689927  0.018  -0.333666  -0.207068  0.007943  3.661003  0.014
O  O51  1  0.30080844  0.04815620  0.65999910  1  -0.524943  -0.001768  2.11832  -0.012  -0.49944  0.012714  2.392639  0.015  -0.543929  0.006893  2.388066  0.004  -0.294874  -0.468159  0.018746  2.394433  0.025
O  O52  1  0.69919166  0.95184631  0.34000289  1  -0.524948  0.001774  2.118388  0.012  -0.499416  -0.012711  2.392665  -0.015  -0.543904  -0.006889  2.388099  -0.004  -0.294837  -0.468128  -0.018741  2.394452  -0.025
O  O53  1  0.73000169  0.43564118  0.85231406  1  -0.51551  -8.1e-05  2.117787  -0.008  -0.485278  0.010638  2.388351  0.012  -0.527927  0.006424  2.382133  0.004  -0.282456  -0.455485  0.015354  2.391904  0.02
O  O54  1  0.26999783  0.56436016  0.14768333  1  -0.515488  8.2e-05  2.11788  0.008  -0.485265  -0.01064  2.388414  -0.012  -0.527911  -0.006425  2.382195  -0.004  -0.282457  -0.455465  -0.015355  2.391964  -0.02
O  O55  1  0.55090080  0.85372207  0.10639460  1  -0.545241  0.012811  2.172671  0.027  -0.509764  0.00178  2.43697  0.007  -0.549359  0.002128  2.426069  0.008  -0.283326  -0.483613  0.0011  2.443864  0.006
O  O56  1  0.44910390  0.14627679  0.89360449  1  -0.54529  -0.012806  2.172555  -0.027  -0.509807  -0.001779  2.4368  -0.007  -0.549404  -0.002127  2.425895  -0.008  -0.283332  -0.483667  -0.001099  2.443707  -0.006
O  O57  1  0.30103677  0.86521316  0.23101472  1  -0.521262  0.007127  2.148805  0.02  -0.495374  -0.005954  2.423825  -0.004  -0.537839  -0.003522  2.41412  0.0  -0.284347  -0.466382  -0.008894  2.429166  -0.009
O  O58  1  0.69896087  0.13478692  0.76898564  1  -0.521377  -0.007131  2.148704  -0.02  -0.495434  0.005955  2.423746  0.004  -0.53791  0.003523  2.414033  0.0  -0.284336  -0.466441  0.008895  2.429088  0.009
O  O59  1  0.13997257  0.01731704  0.22902823  1  -0.650476  0.006399  1.951083  0.011  -0.605977  0.001854  2.189098  0.003  -0.634968  0.001456  2.177585  0.003  -0.325509  -0.584804  0.002118  2.195744  0.004
O  O60  1  0.86000134  0.98266834  0.77097525  1  -0.650535  -0.006395  1.951273  -0.011  -0.606017  -0.001853  2.18936  -0.003  -0.635013  -0.001458  2.177835  -0.003  -0.325566  -0.584841  -0.002117  2.196012  -0.004
O  O61  1  0.62036873  0.89871884  0.93670001  1  -0.616308  0.006946  1.947582  0.012  -0.574512  0.001751  2.179005  0.003  -0.601791  0.001101  2.171832  0.002  -0.317087  -0.553949  0.002151  2.182171  0.004
O  O62  1  0.37963009  0.10128366  0.06330271  1  -0.616179  -0.006943  1.947559  -0.012  -0.57442  -0.00175  2.178997  -0.003  -0.601695  -0.0011  2.171821  -0.002  -0.317063  -0.553858  -0.00215  2.18216  -0.004
O  O63  1  0.82135448  0.69890533  0.96194480  1  -0.614577  -0.003613  1.996225  -0.006  -0.564394  0.000358  2.23506  0.001  -0.587988  0.000431  2.225147  0.001  -0.334829  -0.54804  0.000181  2.241745  0.0
O  O64  1  0.17864963  0.30109238  0.03804882  1  -0.614583  0.003607  1.996214  0.006  -0.564399  -0.000358  2.235017  -0.001  -0.587993  -0.000431  2.225103  -0.001  -0.334849  -0.548049  -0.000182  2.241705  0.0
O  O65  1  0.14248335  0.89266291  0.46266973  1  -0.516007  -2.8e-05  1.92421  0.0  -0.485744  0.004774  2.144448  0.009  -0.509668  0.003614  2.139534  0.007  -0.280823  -0.467611  0.006514  2.14669  0.011
O  O66  1  0.85751419  0.10733957  0.53733458  1  -0.516018  2.8e-05  1.924  0.0  -0.485751  -0.004774  2.144205  -0.009  -0.509674  -0.003619  2.13929  -0.007  -0.28081  -0.467618  -0.006514  2.146449  -0.011
O  O67  1  0.88216284  0.14354941  0.18218252  1  -0.868479  -2.2e-05  1.784531  0.0  -0.824125  -0.000277  1.953994  0.0  -0.843278  -0.000186  1.922061  0.0  -0.619083  -0.810001  -0.000399  1.976595  -0.001
O  O68  1  0.11785798  0.85646154  0.81782590  1  -0.868827  2.2e-05  1.78435  0.0  -0.824425  0.000277  1.953717  0.0  -0.843576  0.000187  1.921779  0.0  -0.619135  -0.810295  0.000399  1.976312  0.001
