# generated using pymatgen
data_NaH11PdC7(NO4)2
_symmetry_space_group_name_H-M   'P 1'
_cell_length_a   7.29628903
_cell_length_b   7.59489171
_cell_length_c   11.04934288
_cell_angle_alpha   103.88716108
_cell_angle_beta   107.72605046
_cell_angle_gamma   92.35353059
_symmetry_Int_Tables_number   1
_chemical_formula_structural   NaH11PdC7(NO4)2
_chemical_formula_sum   'Na2 H22 Pd2 C14 N4 O16'
_cell_volume   561.84688739
_cell_formula_units_Z   2
loop_
 _symmetry_equiv_pos_site_id
 _symmetry_equiv_pos_as_xyz
  1  'x, y, z'
loop_
 _atom_site_type_symbol
 _atom_site_label
 _atom_site_symmetry_multiplicity
 _atom_site_fract_x
 _atom_site_fract_y
 _atom_site_fract_z
 _atom_site_occupancy
 _atom_site_hle17_bader_spin_density
 _atom_site_hle17_ddec_charge
 _atom_site_hle17_ddec_spin_density
 _atom_site_hle17_ddec_sum_bond_order
 _atom_site_hle17_magmom
 _atom_site_hse06_10hf_bader_spin_density
 _atom_site_hse06_10hf_ddec_charge
 _atom_site_hse06_10hf_ddec_spin_density
 _atom_site_hse06_10hf_ddec_sum_bond_order
 _atom_site_hse06_10hf_magmom
 _atom_site_hse06_bader_spin_density
 _atom_site_hse06_ddec_charge
 _atom_site_hse06_ddec_spin_density
 _atom_site_hse06_ddec_sum_bond_order
 _atom_site_hse06_magmom
 _atom_site_pbe_bader_spin_density
 _atom_site_pbe_cm5_charge
 _atom_site_pbe_ddec_charge
 _atom_site_pbe_ddec_spin_density
 _atom_site_pbe_ddec_sum_bond_order
 _atom_site_pbe_magmom
Na  Na0  1  0.26009001  0.26144659  0.03598808  1  0  0.899588  0  0.378454  0  0  0.853423  0  0.531265  0  0  0.864201  0  0.509046  0  0  0.671503  0.845533  0  0.547137  0
Na  Na1  1  0.73992920  0.73859009  0.96403064  1  0  0.899573  0  0.378432  0  0  0.85341  0  0.531256  0  0  0.864184  0  0.509042  0  0  0.671507  0.845508  0  0.547122  0
H  H2  1  0.71090322  0.37718626  0.07744800  1  0  0.407568  0  0.875441  0  0  0.374749  0  0.956041  0  0  0.387172  0  0.943378  0  0  0.308093  0.366012  0  0.964841  0
H  H3  1  0.28907416  0.62281440  0.92254581  1  0  0.407498  0  0.875575  0  0  0.374677  0  0.956176  0  0  0.38709  0  0.943521  0  0  0.308055  0.36594  0  0.964967  0
H  H4  1  0.42045379  0.65856717  0.11416969  1  0  0.417931  0  0.877966  0  0  0.38845  0  0.946258  0  0  0.398843  0  0.930934  0  0  0.303268  0.381077  0  0.957131  0
H  H5  1  0.57956814  0.34144477  0.88583852  1  0  0.417988  0  0.878031  0  0  0.388479  0  0.94626  0  0  0.398876  0  0.930928  0  0  0.303214  0.381101  0  0.957142  0
H  H6  1  0.19291544  0.64393564  0.08702385  1  0  0.433968  0  0.852389  0  0  0.402958  0  0.923876  0  0  0.413347  0  0.908591  0  0  0.307686  0.395566  0  0.93474  0
H  H7  1  0.80708592  0.35608423  0.91297598  1  0  0.434065  0  0.852313  0  0  0.403042  0  0.92379  0  0  0.413428  0  0.908514  0  0  0.307695  0.395641  0  0.934671  0
H  H8  1  0.43549328  0.94897772  0.13670292  1  0  0.42186  0  0.87489  0  0  0.396398  0  0.930099  0  0  0.405508  0  0.916587  0  0  0.296305  0.389936  0  0.939691  0
H  H9  1  0.56452579  0.05103391  0.86329291  1  0  0.421877  0  0.874885  0  0  0.396394  0  0.930116  0  0  0.405502  0  0.916606  0  0  0.296325  0.389928  0  0.939716  0
H  H10  1  0.22031433  0.94703759  0.13736688  1  0  0.424398  0  0.8716  0  0  0.397641  0  0.929342  0  0  0.407179  0  0.915244  0  0  0.296374  0.390847  0  0.93938  0
H  H11  1  0.77969381  0.05299061  0.86263923  1  0  0.424294  0  0.871763  0  0  0.397523  0  0.929533  0  0  0.407061  0  0.915435  0  0  0.296285  0.390734  0  0.939569  0
H  H12  1  0.47224097  0.28445895  0.29273941  1  0  0.073658  0  0.957141  0  0  0.083961  0  1.029816  0  0  0.085623  0  1.027142  0  0  0.111001  0.082609  0  1.031844  0
H  H13  1  0.52773255  0.71549976  0.70726435  1  0  0.073704  0  0.956918  0  0  0.083921  0  1.029705  0  0  0.085521  0  1.02709  0  0  0.110969  0.08261  0  1.031726  0
H  H14  1  0.59761585  0.46477774  0.43563722  1  0  0.077878  0  0.922785  0  0  0.09754  0  0.982481  0  0  0.097283  0  0.983105  0  0  0.10816  0.097453  0  0.982344  0
H  H15  1  0.40237802  0.53522876  0.56437260  1  0  0.077745  0  0.922506  0  0  0.09738  0  0.982219  0  0  0.097119  0  0.982834  0  0  0.108048  0.097352  0  0.982042  0
H  H16  1  0.58990801  0.05769201  0.42559938  1  0  0.086912  0  0.953704  0  0  0.103767  0  1.016479  0  0  0.104624  0  1.01696  0  0  0.092727  0.103036  0  1.016291  0
H  H17  1  0.41009351  0.94231946  0.57444716  1  0  0.086917  0  0.953856  0  0  0.103764  0  1.016657  0  0  0.104619  0  1.017157  0  0  0.092727  0.103043  0  1.016462  0
H  H18  1  0.41365747  0.19108675  0.46614191  1  0  0.107845  0  0.956251  0  0  0.124097  0  1.015259  0  0  0.125879  0  1.014587  0  0  0.098601  0.122669  0  1.016013  0
H  H19  1  0.58631180  0.80890774  0.53387918  1  0  0.107632  0  0.956599  0  0  0.124073  0  1.015451  0  0  0.12586  0  1.014781  0  0  0.098556  0.122643  0  1.016215  0
H  H20  1  0.67633827  0.39983571  0.65843130  1  0  0.066332  0  0.928954  0  0  0.083548  0  0.993405  0  0  0.082891  0  0.99434  0  0  0.10632  0.083895  0  0.992839  0
H  H21  1  0.32369613  0.60000881  0.34151652  1  0  0.066339  0  0.927814  0  0  0.083529  0  0.992426  0  0  0.082861  0  0.993348  0  0  0.106224  0.083878  0  0.991862  0
H  H22  1  0.64378817  0.17231655  0.66833001  1  0  0.066086  0  0.943683  0  0  0.081229  0  1.009065  0  0  0.081208  0  1.008727  0  0  0.106681  0.081008  0  1.009549  0
H  H23  1  0.35621460  0.82775034  0.33170180  1  0  0.066142  0  0.943515  0  0  0.081196  0  1.009036  0  0  0.081166  0  1.008686  0  0  0.106665  0.08099  0  1.009523  0
Pd  Pd24  1  0.00963426  0.25577540  0.49041551  1  0  0.505947  0  2.579504  0  0  0.42236  0  3.148586  0  0  0.461059  0  3.107279  0  0  0.805694  0.398933  0  3.176926  0
Pd  Pd25  1  0.99035614  0.74419132  0.50958115  1  0  0.505804  0  2.57885  0  0  0.422102  0  3.147881  0  0  0.460837  0  3.10657  0  0  0.80546  0.398644  0  3.176212  0
C  C26  1  0.00542247  0.30927658  0.24488658  1  0  0.544897  0  3.956352  0  0  0.503132  0  4.252277  0  0  0.53415  0  4.244905  0  0  0.205364  0.481899  0  4.256972  0
C  C27  1  0.99452856  0.69073218  0.75510585  1  0  0.545258  0  3.955257  0  0  0.503391  0  4.25129  0  0  0.534413  0  4.243931  0  0  0.205579  0.482149  0  4.255982  0
C  C28  1  0.80193577  0.32341348  0.25155282  1  0  0.371457  0  3.775522  0  0  0.328198  0  4.06013  0  0  0.351671  0  4.060045  0  0  0.220392  0.311935  0  4.060626  0
C  C29  1  0.19813286  0.67656822  0.74844031  1  0  0.371262  0  3.774484  0  0  0.32797  0  4.059054  0  0  0.351433  0  4.058993  0  0  0.220304  0.311715  0  4.05953  0
C  C30  1  0.59370232  0.31990040  0.38534183  1  0  0.039749  0  3.64762  0  0  -0.016833  0  3.907443  0  0  -0.01174  0  3.918545  0  0  -0.071652  -0.01983  0  3.899755  0
C  C31  1  0.40630123  0.68014743  0.61463198  1  0  0.039634  0  3.648233  0  0  -0.01685  0  3.907927  0  0  -0.0117  0  3.919045  0  0  -0.0716  -0.019921  0  3.90024  0
C  C32  1  0.56532790  0.19672139  0.46985139  1  0  -0.172863  0  3.667387  0  0  -0.212575  0  3.917604  0  0  -0.215643  0  3.930282  0  0  -0.175776  -0.210297  0  3.90883  0
C  C33  1  0.43464828  0.80332632  0.53011866  1  0  -0.172693  0  3.667665  0  0  -0.212468  0  3.917475  0  0  -0.215578  0  3.930161  0  0  -0.17571  -0.210179  0  3.908768  0
C  C34  1  0.69229703  0.25744299  0.61368132  1  0  0.046658  0  3.673128  0  0  -0.007117  0  3.931572  0  0  -0.001429  0  3.945688  0  0  -0.074384  -0.010629  0  3.921861  0
C  C35  1  0.30765676  0.74251729  0.38627523  1  0  0.046589  0  3.671828  0  0  -0.007113  0  3.930264  0  0  -0.001355  0  3.944305  0  0  -0.074223  -0.010685  0  3.920607  0
C  C36  1  0.01436438  0.21987217  0.74114675  1  0  0.369756  0  3.921252  0  0  0.328848  0  4.213226  0  0  0.353295  0  4.21536  0  0  0.192971  0.312244  0  4.211664  0
C  C37  1  0.98560910  0.78006367  0.25886795  1  0  0.36952  0  3.922075  0  0  0.328671  0  4.214031  0  0  0.353161  0  4.21612  0  0  0.192949  0.312038  0  4.212492  0
C  C38  1  0.22257682  0.20926787  0.73823883  1  0  0.557484  0  3.877565  0  0  0.505071  0  4.189844  0  0  0.538053  0  4.178931  0  0  0.201457  0.482393  0  4.197027  0
C  C39  1  0.77739866  0.79063485  0.26169875  1  0  0.557483  0  3.878323  0  0  0.504903  0  4.190871  0  0  0.53786  0  4.179969  0  0  0.201133  0.48223  0  4.19806  0
N  N40  1  0.77555870  0.30006207  0.35788263  1  0  -0.325707  0  3.380945  0  0  -0.269054  0  3.697762  0  0  -0.289757  0  3.70839  0  0  -0.398181  -0.256255  0  3.691179  0
N  N41  1  0.22450608  0.69985427  0.64210869  1  0  -0.325724  0  3.382357  0  0  -0.268893  0  3.698892  0  0  -0.289598  0  3.709526  0  0  -0.398094  -0.256082  0  3.692344  0
N  N42  1  0.89582540  0.24294107  0.63011294  1  0  -0.365749  0  3.345496  0  0  -0.308396  0  3.66268  0  0  -0.33566  0  3.67896  0  0  -0.415285  -0.291111  0  3.652064  0
N  N43  1  0.10421359  0.75726667  0.36994704  1  0  -0.365358  0  3.345659  0  0  -0.308068  0  3.662854  0  0  -0.335378  0  3.679121  0  0  -0.415167  -0.290726  0  3.652217  0
O  O44  1  0.12650479  0.27115213  0.34550273  1  0  -0.500988  0  2.109998  0  0  -0.453979  0  2.392981  0  0  -0.482347  0  2.383313  0  0  -0.324369  -0.434794  0  2.399193  0
O  O45  1  0.87340717  0.72885524  0.65449060  1  0  -0.501389  0  2.109676  0  0  -0.454261  0  2.392616  0  0  -0.482629  0  2.382936  0  0  -0.324532  -0.435071  0  2.398831  0
O  O46  1  0.04350890  0.33721559  0.14853107  1  0  -0.586122  0  1.979654  0  0  -0.544747  0  2.208263  0  0  -0.565182  0  2.199587  0  0  -0.359978  -0.530323  0  2.213859  0
O  O47  1  0.95645755  0.66275477  0.85144771  1  0  -0.586118  0  1.979877  0  0  -0.544777  0  2.208601  0  0  -0.565208  0  2.199927  0  0  -0.360043  -0.530347  0  2.214199  0
O  O48  1  0.66508225  0.36236928  0.15558413  1  0  -0.503138  0  2.152721  0  0  -0.445284  0  2.372489  0  0  -0.46507  0  2.360599  0  0  -0.318159  -0.431656  0  2.380497  0
O  O49  1  0.33497044  0.63759017  0.84444668  1  0  -0.502972  0  2.152117  0  0  -0.44507  0  2.371774  0  0  -0.4649  0  2.359993  0  0  -0.318054  -0.431433  0  2.379775  0
O  O50  1  0.97244590  0.21076998  0.84354565  1  0  -0.623836  0  2.022843  0  0  -0.570313  0  2.246285  0  0  -0.592781  0  2.238427  0  0  -0.354283  -0.554433  0  2.251256  0
O  O51  1  0.02755399  0.78926358  0.15651484  1  0  -0.623686  0  2.023129  0  0  -0.570185  0  2.246577  0  0  -0.592631  0  2.238627  0  0  -0.354226  -0.554305  0  2.251549  0
O  O52  1  0.25305027  0.22010564  0.63138679  1  0  -0.488315  0  2.135117  0  0  -0.44047  0  2.427956  0  0  -0.468329  0  2.416876  0  0  -0.316964  -0.421696  0  2.435233  0
O  O53  1  0.74700037  0.77988080  0.36857807  1  0  -0.488327  0  2.135342  0  0  -0.440476  0  2.428338  0  0  -0.468344  0  2.417276  0  0  -0.316757  -0.421692  0  2.435602  0
O  O54  1  0.35444484  0.19560761  0.83921133  1  0  -0.634916  0  2.020362  0  0  -0.578519  0  2.244774  0  0  -0.601726  0  2.233087  0  0  -0.344597  -0.562109  0  2.252346  0
O  O55  1  0.64555592  0.80446586  0.16081113  1  0  -0.63465  0  2.020698  0  0  -0.578195  0  2.245222  0  0  -0.601393  0  2.233548  0  0  -0.344433  -0.561783  0  2.252763  0
O  O56  1  0.29543053  0.58536398  0.05587463  1  0  -0.841532  0  1.89378  0  0  -0.794888  0  2.083936  0  0  -0.813491  0  2.052448  0  0  -0.608507  -0.781826  0  2.105996  0
O  O57  1  0.70457660  0.41465587  0.94412366  1  0  -0.841609  0  1.89367  0  0  -0.794962  0  2.083756  0  0  -0.81354  0  2.052191  0  0  -0.608461  -0.781891  0  2.105827  0
O  O58  1  0.31996682  0.01196374  0.11519081  1  0  -0.876831  0  1.754312  0  0  -0.833183  0  1.908316  0  0  -0.848818  0  1.877832  0  0  -0.670426  -0.822091  0  1.929755  0
O  O59  1  0.68003201  0.98803548  0.88479899  1  0  -0.876777  0  1.754396  0  0  -0.833118  0  1.90851  0  0  -0.848751  0  1.878027  0  0  -0.670432  -0.822025  0  1.929927  0
