# generated using pymatgen
data_ZnH14C24(NO2)2
_symmetry_space_group_name_H-M   'P 1'
_cell_length_a   9.17071213
_cell_length_b   10.98310611
_cell_length_c   10.92652569
_cell_angle_alpha   118.71317435
_cell_angle_beta   104.50832318
_cell_angle_gamma   92.74242469
_symmetry_Int_Tables_number   1
_chemical_formula_structural   ZnH14C24(NO2)2
_chemical_formula_sum   'Zn2 H28 C48 N4 O8'
_cell_volume   915.92371596
_cell_formula_units_Z   2
loop_
 _symmetry_equiv_pos_site_id
 _symmetry_equiv_pos_as_xyz
  1  'x, y, z'
loop_
 _atom_site_type_symbol
 _atom_site_label
 _atom_site_symmetry_multiplicity
 _atom_site_fract_x
 _atom_site_fract_y
 _atom_site_fract_z
 _atom_site_occupancy
 _atom_site_hle17_bader_spin_density
 _atom_site_hle17_ddec_charge
 _atom_site_hle17_ddec_spin_density
 _atom_site_hle17_ddec_sum_bond_order
 _atom_site_hle17_magmom
 _atom_site_hse06_10hf_bader_spin_density
 _atom_site_hse06_10hf_ddec_charge
 _atom_site_hse06_10hf_ddec_spin_density
 _atom_site_hse06_10hf_ddec_sum_bond_order
 _atom_site_hse06_10hf_magmom
 _atom_site_hse06_bader_spin_density
 _atom_site_hse06_ddec_charge
 _atom_site_hse06_ddec_spin_density
 _atom_site_hse06_ddec_sum_bond_order
 _atom_site_hse06_magmom
 _atom_site_pbe_bader_spin_density
 _atom_site_pbe_cm5_charge
 _atom_site_pbe_ddec_charge
 _atom_site_pbe_ddec_spin_density
 _atom_site_pbe_ddec_sum_bond_order
 _atom_site_pbe_magmom
Zn  Zn0  1  0.47025315  0.06222809  0.39038008  1  0  1.027526  0  1.849068  0  0  0.849266  0  2.296227  0  0  0.89702  0  2.243593  0  0  0.68789  0.816081  0  2.332405  0
Zn  Zn1  1  0.52974802  0.93777363  0.60962235  1  0  1.027519  0  1.849099  0  0  0.849252  0  2.296268  0  0  0.897008  0  2.243636  0  0  0.687888  0.81607  0  2.332455  0
H  H2  1  0.82996887  0.09214545  0.49239764  1  0  0.089475  0  0.971638  0  0  0.093878  0  1.041183  0  0  0.097577  0  1.037137  0  0  0.118253  0.091142  0  1.043917  0
H  H3  1  0.17003095  0.90785522  0.50760307  1  0  0.089479  0  0.971661  0  0  0.093881  0  1.041196  0  0  0.097578  0  1.037152  0  0  0.118252  0.091116  0  1.043954  0
H  H4  1  0.02304075  0.97431059  0.36533902  1  0  0.122964  0  0.96478  0  0  0.128829  0  1.029541  0  0  0.132488  0  1.027872  0  0  0.111277  0.126289  0  1.031218  0
H  H5  1  0.97695728  0.02568687  0.63466251  1  0  0.123002  0  0.964796  0  0  0.128862  0  1.029546  0  0  0.132522  0  1.027877  0  0  0.111279  0.126324  0  1.031226  0
H  H6  1  0.93135549  0.80560838  0.09576177  1  0  0.100919  0  0.94202  0  0  0.112875  0  1.002091  0  0  0.115541  0  1.000393  0  0  0.111413  0.111138  0  1.002412  0
H  H7  1  0.06864164  0.19439013  0.90423916  1  0  0.100953  0  0.941998  0  0  0.1129  0  1.002062  0  0  0.115552  0  1.000388  0  0  0.111389  0.111161  0  1.002387  0
H  H8  1  0.71526403  0.70115057  0.85420685  1  0  0.096692  0  0.945777  0  0  0.109007  0  1.005649  0  0  0.11115  0  1.00584  0  0  0.105373  0.107058  0  1.006924  0
H  H9  1  0.28473759  0.29885332  0.14579033  1  0  0.096693  0  0.945802  0  0  0.108979  0  1.005706  0  0  0.111121  0  1.0059  0  0  0.105375  0.107041  0  1.006966  0
H  H10  1  0.44245629  0.67011450  0.72248995  1  0  0.115349  0  0.952487  0  0  0.125322  0  1.013471  0  0  0.127956  0  1.012833  0  0  0.108922  0.123634  0  1.013649  0
H  H11  1  0.55754107  0.32988510  0.27750790  1  0  0.115378  0  0.952485  0  0  0.125321  0  1.0135  0  0  0.127957  0  1.012859  0  0  0.108929  0.123631  0  1.013679  0
H  H12  1  0.17669446  0.71901934  0.73384366  1  0  0.097422  0  0.975632  0  0  0.108197  0  1.035809  0  0  0.109602  0  1.036679  0  0  0.10716  0.107193  0  1.035167  0
H  H13  1  0.82330493  0.28097921  0.26615502  1  0  0.097436  0  0.975626  0  0  0.1082  0  1.035813  0  0  0.109605  0  1.036683  0  0  0.107173  0.107196  0  1.035172  0
H  H14  1  0.01005343  0.83983943  0.88722630  1  0  0.100725  0  0.952569  0  0  0.11282  0  1.009807  0  0  0.11526  0  1.01033  0  0  0.106502  0.109911  0  1.011951  0
H  H15  1  0.98994640  0.16016124  0.11277351  1  0  0.10073  0  0.952554  0  0  0.112802  0  1.009826  0  0  0.115239  0  1.01035  0  0  0.106493  0.109895  0  1.011962  0
H  H16  1  0.13147227  0.99198151  0.16318565  1  0  0.077342  0  0.954559  0  0  0.084731  0  1.023127  0  0  0.086793  0  1.021728  0  0  0.116563  0.083773  0  1.02252  0
H  H17  1  0.86852869  0.00801918  0.83681258  1  0  0.077322  0  0.954548  0  0  0.08471  0  1.023129  0  0  0.08677  0  1.021732  0  0  0.116567  0.083757  0  1.022519  0
H  H18  1  0.35225037  0.47835341  0.40735523  1  0  0.108899  0  0.949093  0  0  0.117527  0  1.012454  0  0  0.121535  0  1.009557  0  0  0.105172  0.114797  0  1.014416  0
H  H19  1  0.64774494  0.52164722  0.59264452  1  0  0.108947  0  0.949016  0  0  0.117572  0  1.012382  0  0  0.121586  0  1.009487  0  0  0.105232  0.114842  0  1.014345  0
H  H20  1  0.17233217  0.64166882  0.41258338  1  0  0.109114  0  0.97824  0  0  0.118739  0  1.039011  0  0  0.121762  0  1.038048  0  0  0.101879  0.116786  0  1.039304  0
H  H21  1  0.82766560  0.35833288  0.58741832  1  0  0.109114  0  0.978251  0  0  0.118725  0  1.039037  0  0  0.121753  0  1.038066  0  0  0.101879  0.116773  0  1.039334  0
H  H22  1  0.06081982  0.26821264  0.53107331  1  0  0.106197  0  0.952319  0  0  0.11678  0  1.016248  0  0  0.120149  0  1.014133  0  0  0.106419  0.1143  0  1.017846  0
H  H23  1  0.93917726  0.73179116  0.46893019  1  0  0.106216  0  0.952287  0  0  0.116821  0  1.016194  0  0  0.120189  0  1.014079  0  0  0.10643  0.11434  0  1.017793  0
H  H24  1  0.59294858  0.72514585  0.28956117  1  0  0.10893  0  0.966037  0  0  0.117089  0  1.032083  0  0  0.120101  0  1.030781  0  0  0.103142  0.114761  0  1.033289  0
H  H25  1  0.40705666  0.27485380  0.71044020  1  0  0.108944  0  0.966053  0  0  0.117083  0  1.032118  0  0  0.120095  0  1.030816  0  0  0.103148  0.114759  0  1.033321  0
H  H26  1  0.20022187  0.38789072  0.80771217  1  0  0.098714  0  0.949699  0  0  0.111296  0  1.007621  0  0  0.113769  0  1.007258  0  0  0.101385  0.10935  0  1.008539  0
H  H27  1  0.79978247  0.61211000  0.19228769  1  0  0.098725  0  0.94972  0  0  0.111307  0  1.007643  0  0  0.113779  0  1.007283  0  0  0.101368  0.109363  0  1.008552  0
H  H28  1  0.12147580  0.56491821  0.01618271  1  0  0.095088  0  0.957183  0  0  0.104418  0  1.021039  0  0  0.108127  0  1.018349  0  0  0.100383  0.102381  0  1.021614  0
H  H29  1  0.87852966  0.43508250  0.98381922  1  0  0.09506  0  0.95721  0  0  0.104381  0  1.021075  0  0  0.108099  0  1.018374  0  0  0.100352  0.102347  0  1.021646  0
C  C30  1  0.79756840  0.02203546  0.37327305  1  0  0.157586  0  3.646149  0  0  0.124155  0  3.902042  0  0  0.132242  0  3.917687  0  0  0.0635  0.119656  0  3.891097  0
C  C31  1  0.20242938  0.97796624  0.62672865  1  0  0.157634  0  3.646167  0  0  0.124212  0  3.902038  0  0  0.1323  0  3.917683  0  0  0.06354  0.119735  0  3.891109  0
C  C32  1  0.90320544  0.95477433  0.30233880  1  0  -0.110005  0  3.693296  0  0  -0.123994  0  3.949304  0  0  -0.130903  0  3.96995  0  0  -0.078444  -0.12101  0  3.936616  0
C  C33  1  0.09679169  0.04522419  0.69766030  1  0  -0.110058  0  3.693392  0  0  -0.124034  0  3.949383  0  0  -0.13094  0  3.970023  0  0  -0.078457  -0.121057  0  3.9367  0
C  C34  1  0.85308473  0.86401090  0.15185199  1  0  -0.045028  0  3.688716  0  0  -0.071077  0  3.938643  0  0  -0.068326  0  3.956417  0  0  -0.059468  -0.072425  0  3.926116  0
C  C35  1  0.14691397  0.13598976  0.84814758  1  0  -0.045073  0  3.688731  0  0  -0.071112  0  3.938652  0  0  -0.068355  0  3.956431  0  0  -0.059451  -0.07246  0  3.926124  0
C  C36  1  0.69870289  0.84418043  0.07081466  1  0  0.019319  0  3.812946  0  0  0.036044  0  4.043705  0  0  0.033485  0  4.068623  0  0  -0.001435  0.038614  0  4.026068  0
C  C37  1  0.30129716  0.15582131  0.92918389  1  0  0.01926  0  3.81311  0  0  0.035996  0  4.043849  0  0  0.03344  0  4.068762  0  0  -0.001443  0.038565  0  4.026211  0
C  C38  1  0.63779051  0.75485160  0.91462188  1  0  -0.083944  0  3.71866  0  0  -0.10877  0  3.975455  0  0  -0.11224  0  3.998601  0  0  -0.079204  -0.106818  0  3.960503  0
C  C39  1  0.36220663  0.24514696  0.08537267  1  0  -0.083913  0  3.718734  0  0  -0.108717  0  3.97551  0  0  -0.112189  0  3.998656  0  0  -0.079195  -0.106768  0  3.960542  0
C  C40  1  0.48637611  0.73621715  0.84173101  1  0  -0.076474  0  3.688659  0  0  -0.101699  0  3.945213  0  0  -0.103551  0  3.966178  0  0  -0.075282  -0.100068  0  3.930533  0
C  C41  1  0.51362574  0.26378246  0.15827145  1  0  -0.076485  0  3.688583  0  0  -0.101701  0  3.945131  0  0  -0.103554  0  3.966094  0  0  -0.075282  -0.100071  0  3.93045  0
C  C42  1  0.38330525  0.80429809  0.92051195  1  0  0.032132  0  3.769517  0  0  0.047334  0  4.003122  0  0  0.044962  0  4.026238  0  0  0.002929  0.048933  0  3.987823  0
C  C43  1  0.61669279  0.19569938  0.07948684  1  0  0.032082  0  3.769535  0  0  0.047331  0  4.00306  0  0  0.044959  0  4.026174  0  0  0.002908  0.048936  0  3.987754  0
C  C44  1  0.22487268  0.78623031  0.85261952  1  0  -0.025179  0  3.65973  0  0  -0.050546  0  3.905271  0  0  -0.047394  0  3.923822  0  0  -0.056795  -0.052186  0  3.892524  0
C  C45  1  0.77512714  0.21377035  0.14738211  1  0  -0.025097  0  3.659545  0  0  -0.05045  0  3.905054  0  0  -0.047299  0  3.923603  0  0  -0.056754  -0.052098  0  3.892313  0
C  C46  1  0.13278307  0.85339262  0.93761644  1  0  -0.130453  0  3.744865  0  0  -0.143192  0  4.000899  0  0  -0.150548  0  4.022394  0  0  -0.086255  -0.138263  0  3.98676  0
C  C47  1  0.86721610  0.14660489  0.06237985  1  0  -0.130556  0  3.744827  0  0  -0.143291  0  4.000897  0  0  -0.150644  0  4.022389  0  0  -0.086301  -0.138355  0  3.986755  0
C  C48  1  0.19909889  0.93847233  0.09075385  1  0  0.143154  0  3.698158  0  0  0.108055  0  3.957525  0  0  0.116287  0  3.974225  0  0  0.055938  0.10398  0  3.943385  0
C  C49  1  0.80089846  0.06152725  0.90924673  1  0  0.1432  0  3.698219  0  0  0.108101  0  3.957597  0  0  0.116337  0  3.974294  0  0  0.055944  0.10402  0  3.943467  0
C  C50  1  0.44002030  0.89371115  0.07550218  1  0  0.130169  0  3.764553  0  0  0.124266  0  3.999322  0  0  0.128379  0  4.021752  0  0  0.120794  0.121155  0  3.984458  0
C  C51  1  0.55997818  0.10628844  0.92449773  1  0  0.130141  0  3.764575  0  0  0.124213  0  3.999374  0  0  0.128328  0  4.021803  0  0  0.120793  0.121109  0  3.984505  0
C  C52  1  0.60038173  0.91571822  0.15155581  1  0  0.126685  0  3.769186  0  0  0.119337  0  4.004151  0  0  0.123221  0  4.026454  0  0  0.118241  0.117264  0  3.988632  0
C  C53  1  0.39961832  0.08428352  0.84844273  1  0  0.126753  0  3.769216  0  0  0.119399  0  4.004209  0  0  0.123283  0  4.026512  0  0  0.11824  0.117326  0  3.988692  0
C  C54  1  0.31363613  0.25401588  0.44771533  1  0  0.610844  0  3.936259  0  0  0.564607  0  4.22247  0  0  0.597963  0  4.216845  0  0  0.188979  0.542122  0  4.225571  0
C  C55  1  0.68635966  0.74598159  0.55228206  1  0  0.61089  0  3.936317  0  0  0.564631  0  4.222539  0  0  0.597988  0  4.216913  0  0  0.188982  0.542153  0  4.225636  0
C  C56  1  0.21403108  0.36115237  0.46589727  1  0  -0.062687  0  3.787382  0  0  -0.037906  0  4.020022  0  0  -0.044771  0  4.042319  0  0  -0.021622  -0.033692  0  4.00488  0
C  C57  1  0.78596492  0.63884615  0.53410069  1  0  -0.062805  0  3.787442  0  0  -0.038013  0  4.020086  0  0  -0.044878  0  4.042381  0  0  -0.021682  -0.033801  0  4.004942  0
C  C58  1  0.24760439  0.46904734  0.43482970  1  0  -0.077558  0  3.743768  0  0  -0.102124  0  3.996405  0  0  -0.102003  0  4.014686  0  0  -0.08899  -0.102381  0  3.983888  0
C  C59  1  0.75239070  0.53095223  0.56516948  1  0  -0.077613  0  3.74373  0  0  -0.102193  0  3.996354  0  0  -0.102083  0  4.014644  0  0  -0.089071  -0.102446  0  3.983835  0
C  C60  1  0.14939610  0.56127631  0.44037707  1  0  -0.112187  0  3.720896  0  0  -0.130733  0  3.96803  0  0  -0.133619  0  3.988109  0  0  -0.088656  -0.127974  0  3.953666  0
C  C61  1  0.85060103  0.43872222  0.55962113  1  0  -0.112096  0  3.720949  0  0  -0.130632  0  3.968035  0  0  -0.133525  0  3.988121  0  0  -0.088585  -0.127879  0  3.953674  0
C  C62  1  0.01569970  0.55282524  0.48155800  1  0  0.044735  0  3.808646  0  0  0.061588  0  4.037404  0  0  0.061407  0  4.060468  0  0  -0.010812  0.061101  0  4.022265  0
C  C63  1  0.98429696  0.44717646  0.51844164  1  0  0.044666  0  3.80878  0  0  0.061607  0  4.037441  0  0  0.061424  0  4.060508  0  0  -0.010837  0.061119  0  4.022302  0
C  C64  1  0.08525759  0.35161302  0.50771139  1  0  -0.115648  0  3.7038  0  0  -0.147672  0  3.951106  0  0  -0.147597  0  3.969621  0  0  -0.080461  -0.146889  0  3.93818  0
C  C65  1  0.91473884  0.64838760  0.49229042  1  0  -0.115633  0  3.703735  0  0  -0.147668  0  3.951078  0  0  -0.147591  0  3.96959  0  0  -0.08046  -0.146884  0  3.938152  0
C  C66  1  0.30307817  0.76473646  0.28689975  1  0  0.663163  0  3.862532  0  0  0.608127  0  4.16139  0  0  0.642129  0  4.152891  0  0  0.212479  0.585633  0  4.165833  0
C  C67  1  0.69691895  0.23526203  0.71310392  1  0  0.66298  0  3.862231  0  0  0.60802  0  4.161014  0  0  0.642028  0  4.152507  0  0  0.212412  0.585523  0  4.165459  0
C  C68  1  0.35352551  0.65516262  0.16542012  1  0  -0.068225  0  3.766287  0  0  -0.046216  0  4.004929  0  0  -0.053973  0  4.028492  0  0  -0.024615  -0.042507  0  3.990698  0
C  C69  1  0.64647904  0.34483914  0.83458213  1  0  -0.068168  0  3.766372  0  0  -0.046148  0  4.004926  0  0  -0.053908  0  4.028493  0  0  -0.024581  -0.04243  0  3.990695  0
C  C70  1  0.50784272  0.64933694  0.18462857  1  0  -0.107569  0  3.682821  0  0  -0.140471  0  3.932945  0  0  -0.140208  0  3.952196  0  0  -0.084263  -0.141284  0  3.921372  0
C  C71  1  0.49216049  0.35066377  0.81537105  1  0  -0.107597  0  3.682857  0  0  -0.140482  0  3.932991  0  0  -0.140218  0  3.952242  0  0  -0.084278  -0.141301  0  3.921425  0
C  C72  1  0.55647608  0.54784852  0.06963164  1  0  0.054182  0  3.787524  0  0  0.070989  0  4.015225  0  0  0.07069  0  4.039161  0  0  -0.008159  0.071556  0  3.999068  0
C  C73  1  0.44352848  0.45215327  0.93036696  1  0  0.054096  0  3.787606  0  0  0.070864  0  4.015359  0  0  0.070562  0  4.039299  0  0  -0.008245  0.071426  0  3.99921  0
C  C74  1  0.28609352  0.46057053  0.91343861  1  0  -0.109292  0  3.741337  0  0  -0.126936  0  3.989539  0  0  -0.130078  0  4.011616  0  0  -0.089661  -0.12618  0  3.976386  0
C  C75  1  0.71391238  0.53943231  0.08656262  1  0  -0.10939  0  3.741313  0  0  -0.127043  0  3.989498  0  0  -0.130186  0  4.011576  0  0  -0.089697  -0.126286  0  3.976336  0
C  C76  1  0.24193614  0.55820206  0.02844149  1  0  -0.082646  0  3.763178  0  0  -0.106919  0  4.014351  0  0  -0.107914  0  4.035512  0  0  -0.091993  -0.105722  0  4.000042  0
C  C77  1  0.75806685  0.44179759  0.97155757  1  0  -0.082593  0  3.763209  0  0  -0.106862  0  4.014364  0  0  -0.107862  0  4.035522  0  0  -0.091956  -0.105675  0  4.000058  0
N  N78  1  0.65024831  0.00181168  0.29970573  1  0  -0.341195  0  3.273398  0  0  -0.269902  0  3.54553  0  0  -0.287754  0  3.560285  0  0  -0.317319  -0.258386  0  3.535306  0
N  N79  1  0.34975152  0.99818900  0.70029225  1  0  -0.34124  0  3.273398  0  0  -0.269972  0  3.545563  0  0  -0.287826  0  3.560327  0  0  -0.317347  -0.258454  0  3.535333  0
N  N80  1  0.34820448  0.95787027  0.15719074  1  0  -0.347257  0  3.294356  0  0  -0.278198  0  3.559179  0  0  -0.29635  0  3.577069  0  0  -0.315436  -0.265837  0  3.54619  0
N  N81  1  0.65179625  0.04212933  0.84281057  1  0  -0.34722  0  3.294324  0  0  -0.278159  0  3.559172  0  0  -0.296317  0  3.577069  0  0  -0.315419  -0.26581  0  3.5462  0
O  O82  1  0.44544091  0.27543507  0.43409088  1  0  -0.622633  0  1.955179  0  0  -0.562646  0  2.199789  0  0  -0.58981  0  2.191144  0  0  -0.319401  -0.544061  0  2.205092  0
O  O83  1  0.55455396  0.72456342  0.56591139  1  0  -0.62269  0  1.955132  0  0  -0.562714  0  2.199782  0  0  -0.589879  0  2.191132  0  0  -0.319422  -0.544128  0  2.205083  0
O  O84  1  0.26303976  0.13995265  0.44162106  1  0  -0.628168  0  1.965128  0  0  -0.57059  0  2.212116  0  0  -0.597365  0  2.202951  0  0  -0.323477  -0.551944  0  2.217672  0
O  O85  1  0.73695265  0.86004480  0.55837469  1  0  -0.628184  0  1.965324  0  0  -0.570565  0  2.212279  0  0  -0.597343  0  2.203126  0  0  -0.323473  -0.551923  0  2.21784  0
O  O86  1  0.16587425  0.75099273  0.28251620  1  0  -0.582147  0  1.898279  0  0  -0.535572  0  2.116528  0  0  -0.556654  0  2.107812  0  0  -0.306843  -0.520233  0  2.121656  0
O  O87  1  0.83414495  0.24900909  0.71749923  1  0  -0.582185  0  1.897784  0  0  -0.53563  0  2.116004  0  0  -0.556727  0  2.107299  0  0  -0.306854  -0.52029  0  2.121137  0
O  O88  1  0.41133421  0.87313451  0.39289004  1  0  -0.708915  0  2.18627  0  0  -0.620008  0  2.48182  0  0  -0.648419  0  2.462196  0  0  -0.345917  -0.600633  0  2.494627  0
O  O89  1  0.58867802  0.12686627  0.60711243  1  0  -0.708737  0  2.186237  0  0  -0.619892  0  2.481788  0  0  -0.648294  0  2.462152  0  0  -0.345867  -0.60052  0  2.4946  0
