# generated using pymatgen
data_DyH25C17(N3O4)2
_symmetry_space_group_name_H-M   'P 1'
_cell_length_a   8.59100093
_cell_length_b   11.00825907
_cell_length_c   13.39440000
_cell_angle_alpha   101.34674907
_cell_angle_beta   107.63283185
_cell_angle_gamma   106.58101829
_symmetry_Int_Tables_number   1
_chemical_formula_structural   DyH25C17(N3O4)2
_chemical_formula_sum   'Dy2 H50 C34 N12 O16'
_cell_volume   1100.00536273
_cell_formula_units_Z   2
loop_
 _symmetry_equiv_pos_site_id
 _symmetry_equiv_pos_as_xyz
  1  'x, y, z'
loop_
 _atom_site_type_symbol
 _atom_site_label
 _atom_site_symmetry_multiplicity
 _atom_site_fract_x
 _atom_site_fract_y
 _atom_site_fract_z
 _atom_site_occupancy
 _atom_site_hle17_bader_spin_density
 _atom_site_hle17_ddec_charge
 _atom_site_hle17_ddec_spin_density
 _atom_site_hle17_ddec_sum_bond_order
 _atom_site_hle17_magmom
 _atom_site_hse06_10hf_bader_spin_density
 _atom_site_hse06_10hf_ddec_charge
 _atom_site_hse06_10hf_ddec_spin_density
 _atom_site_hse06_10hf_ddec_sum_bond_order
 _atom_site_hse06_10hf_magmom
 _atom_site_hse06_bader_spin_density
 _atom_site_hse06_ddec_charge
 _atom_site_hse06_ddec_spin_density
 _atom_site_hse06_ddec_sum_bond_order
 _atom_site_hse06_magmom
 _atom_site_pbe_bader_charge
 _atom_site_pbe_bader_spin_density
 _atom_site_pbe_cm5_charge
 _atom_site_pbe_ddec_charge
 _atom_site_pbe_ddec_spin_density
 _atom_site_pbe_ddec_sum_bond_order
 _atom_site_pbe_magmom
Dy  Dy0  1  0.25771002  0.11015789  0.06162021  1  0  2.227712  0  1.62628  0  0  2.074986  0  2.099559  0  0  2.125323  0  2.057588  0  2.153093  0  1.502174  2.03661  0  2.132669  0
Dy  Dy1  1  0.74229021  0.88984188  0.93838017  1  0  2.227728  0  1.626244  0  0  2.07502  0  2.09948  0  0  2.125347  0  2.057529  0  2.153223  0  1.502151  2.036642  0  2.132593  0
H  H2  1  0.20486712  0.53304775  0.04407206  1  0  0.116165  0  0.947749  0  0  0.127178  0  1.00481  0  0  0.130188  0  1.005338  0  0.07496  0  0.102954  0.124888  0  1.004959  0
H  H3  1  0.79512800  0.46694903  0.95592535  1  0  0.116191  0  0.94773  0  0  0.127211  0  1.004782  0  0  0.130221  0  1.00531  0  0.074962  0  0.102981  0.12492  0  1.004933  0
H  H4  1  0.05334841  0.43895569  0.20803889  1  0  0.072177  0  0.957104  0  0  0.08673  0  1.016586  0  0  0.088193  0  1.016488  0  0.094258  0  0.100446  0.085684  0  1.016628  0
H  H5  1  0.94665207  0.56104208  0.79195973  1  0  0.072155  0  0.957135  0  0  0.086722  0  1.016593  0  0  0.088183  0  1.016499  0  0.09427  0  0.100462  0.085678  0  1.016635  0
H  H6  1  0.13061990  0.70559472  0.15060766  1  0  0.115562  0  0.933731  0  0  0.137623  0  0.989478  0  0  0.139401  0  0.989149  0  0.041795  0  0.093824  0.136314  0  0.989755  0
H  H7  1  0.86937643  0.29440206  0.84939222  1  0  0.115563  0  0.93368  0  0  0.137584  0  0.989478  0  0  0.13936  0  0.989148  0  0.041728  0  0.093808  0.136275  0  0.989755  0
H  H8  1  0.15509223  0.69171519  0.28445277  1  0  0.110688  0  0.956116  0  0  0.133865  0  1.013846  0  0  0.134211  0  1.015845  0  0.066675  0  0.094435  0.133539  0  1.012537  0
H  H9  1  0.84490532  0.30828159  0.71554661  1  0  0.11069  0  0.956096  0  0  0.133878  0  1.013816  0  0  0.134217  0  1.015823  0  0.066674  0  0.09444  0.133551  0  1.012508  0
H  H10  1  0.94377124  0.63066402  0.18026847  1  0  0.109539  0  0.944349  0  0  0.131362  0  1.006169  0  0  0.132165  0  1.006776  0  0.033489  0  0.093565  0.130741  0  1.005749  0
H  H11  1  0.05622827  0.36933176  0.81973262  1  0  0.109482  0  0.944376  0  0  0.131308  0  1.006201  0  0  0.132111  0  1.006807  0  0.033422  0  0.093553  0.130687  0  1.005781  0
H  H12  1  0.83727566  0.39964400  0.33071867  1  0  0.124167  0  0.936015  0  0  0.136491  0  0.98847  0  0  0.140598  0  0.987488  0  0.089655  0  0.105739  0.13346  0  0.989523  0
H  H13  1  0.16272090  0.60035577  0.66927951  1  0  0.124179  0  0.936006  0  0  0.136476  0  0.988487  0  0  0.140586  0  0.987508  0  0.089664  0  0.10573  0.133447  0  0.989538  0
H  H14  1  0.87254354  0.12792851  0.26300000  1  0  0.072172  0  0.94335  0  0  0.08504  0  1.004963  0  0  0.086881  0  1.003743  0  0.095756  0  0.105089  0.083611  0  1.006042  0
H  H15  1  0.12745888  0.87207325  0.73700187  1  0  0.07213  0  0.943375  0  0  0.085014  0  1.004968  0  0  0.086857  0  1.003746  0  0.095733  0  0.105071  0.083585  0  1.006047  0
H  H16  1  0.13969871  0.40553098  0.42628319  1  0  0.113082  0  0.936069  0  0  0.135305  0  0.992359  0  0  0.137208  0  0.991695  0  0.043413  0  0.092845  0.133894  0  0.992839  0
H  H17  1  0.86030053  0.59447178  0.57371748  1  0  0.113085  0  0.936066  0  0  0.135324  0  0.99234  0  0  0.137228  0  0.991675  0  0.04346  0  0.092856  0.133914  0  0.992817  0
H  H18  1  0.18636033  0.30104573  0.32835214  1  0  0.135013  0  0.939653  0  0  0.153591  0  1.003978  0  0  0.155482  0  1.003579  0  0.084059  0  0.104453  0.152233  0  1.004245  0
H  H19  1  0.81364013  0.69895703  0.67164951  1  0  0.135041  0  0.939613  0  0  0.153605  0  1.003958  0  0  0.155495  0  1.00356  0  0.083998  0  0.104471  0.152248  0  1.004222  0
H  H20  1  0.14627630  0.24731217  0.43603590  1  0  0.115322  0  0.952038  0  0  0.136362  0  1.014021  0  0  0.136599  0  1.016146  0  0.073376  0  0.096485  0.136158  0  1.012493  0
H  H21  1  0.85372490  0.75268960  0.56396499  1  0  0.115325  0  0.952002  0  0  0.136371  0  1.013971  0  0  0.13661  0  1.016097  0  0.073372  0  0.096478  0.136165  0  1.012445  0
H  H22  1  0.88037118  0.86069806  0.21940393  1  0  0.117019  0  0.988627  0  0  0.119728  0  1.060221  0  0  0.1234  0  1.060096  0  0.114874  0  0.103505  0.117192  0  1.0604  0
H  H23  1  0.11962905  0.13930170  0.78059571  1  0  0.117077  0  0.988694  0  0  0.119781  0  1.060267  0  0  0.123454  0  1.060141  0  0.115026  0  0.103532  0.117245  0  1.060446  0
H  H24  1  0.24736395  0.00259007  0.40515124  1  0  0.074057  0  0.984589  0  0  0.082124  0  1.052591  0  0  0.084634  0  1.05121  0  0.123093  0  0.100457  0.080285  0  1.053654  0
H  H25  1  0.75263676  0.99741069  0.59484865  1  0  0.074084  0  0.984576  0  0  0.082154  0  1.052581  0  0  0.084666  0  1.051198  0  0.123112  0  0.100462  0.080315  0  1.053645  0
H  H26  1  0.89969082  0.79366620  0.38818466  1  0  0.104644  0  0.968629  0  0  0.122674  0  1.03214  0  0  0.123669  0  1.033369  0  0.053262  0  0.088192  0.121897  0  1.031383  0
H  H27  1  0.10031307  0.20633357  0.61181867  1  0  0.104645  0  0.968623  0  0  0.122681  0  1.032141  0  0  0.123671  0  1.033376  0  0.053244  0  0.088194  0.121904  0  1.031385  0
H  H28  1  0.06182480  0.91983310  0.51206361  1  0  0.108543  0  0.957647  0  0  0.131066  0  1.017763  0  0  0.131413  0  1.019443  0  0.050719  0  0.093784  0.130867  0  1.016466  0
H  H29  1  0.93817910  0.08016667  0.48793674  1  0  0.108525  0  0.957652  0  0  0.131053  0  1.017757  0  0  0.131401  0  1.019435  0  0.050767  0  0.093782  0.130856  0  1.016459  0
H  H30  1  0.11394764  0.78995157  0.45054837  1  0  0.116083  0  0.933794  0  0  0.138462  0  0.99152  0  0  0.139813  0  0.991543  0  0.064293  0  0.09705  0.137489  0  0.991578  0
H  H31  1  0.88605575  0.21005219  0.54945253  1  0  0.116105  0  0.933705  0  0  0.138465  0  0.99147  0  0  0.139815  0  0.991493  0  0.064309  0  0.097046  0.137492  0  0.991529  0
H  H32  1  0.11332842  0.81827987  0.94730843  1  0  0.448207  0  0.845707  0  0  0.416699  0  0.909579  0  0  0.427539  0  0.893977  0  0.646343  0  0.305527  0.409046  0  0.92059  0
H  H33  1  0.88667058  0.18171990  0.05269172  1  0  0.448234  0  0.845668  0  0  0.416727  0  0.90954  0  0  0.427566  0  0.89394  0  0.646346  0  0.305535  0.409074  0  0.920551  0
H  H34  1  0.32744888  0.85497857  0.99923834  1  0  0.445206  0  0.83655  0  0  0.420534  0  0.888813  0  0  0.430929  0  0.873506  0  0.64271  0  0.310563  0.413002  0  0.899962  0
H  H35  1  0.67255184  0.14502220  0.00076229  1  0  0.445206  0  0.836543  0  0  0.420535  0  0.888811  0  0  0.430929  0  0.873504  0  0.642906  0  0.310559  0.413003  0  0.899957  0
H  H36  1  0.40770181  0.02737622  0.90027967  1  0  0.431435  0  0.873593  0  0  0.401338  0  0.937237  0  0  0.412425  0  0.920892  0  0.647781  0  0.300292  0.393364  0  0.949034  0
H  H37  1  0.59229768  0.97262454  0.09971924  1  0  0.431464  0  0.873555  0  0  0.401371  0  0.937189  0  0  0.412458  0  0.920844  0  0.647748  0  0.300312  0.393398  0  0.948985  0
H  H38  1  0.41916330  0.17096979  0.88941068  1  0  0.40149  0  0.918  0  0  0.359932  0  0.99922  0  0  0.371843  0  0.982401  0  0.638242  0  0.284133  0.351442  0  1.011249  0
H  H39  1  0.58083449  0.82902998  0.11058922  1  0  0.401499  0  0.91799  0  0  0.359939  0  0.999206  0  0  0.37185  0  0.982386  0  0.638244  0  0.28414  0.351449  0  1.011235  0
H  H40  1  0.48233894  0.58583321  0.57638137  1  0  0.318624  0  0.928851  0  0  0.294352  0  1.009306  0  0  0.302961  0  1.001334  0  0.500044  0  0.28839  0.288351  0  1.014784  0
H  H41  1  0.51766300  0.41416755  0.42361951  1  0  0.318608  0  0.928865  0  0  0.294335  0  1.009321  0  0  0.302944  0  1.001348  0  0.500044  0  0.288385  0.288334  0  1.014798  0
H  H42  1  0.51723252  0.75248422  0.62898273  1  0  0.333234  0  0.898155  0  0  0.317996  0  0.959318  0  0  0.324808  0  0.953938  0  0.46185  0  0.303971  0.313126  0  0.96323  0
H  H43  1  0.48276942  0.24751654  0.37101889  1  0  0.333239  0  0.898153  0  0  0.318003  0  0.959308  0  0  0.324815  0  0.953929  0  0.461863  0  0.303985  0.313134  0  0.963219  0
H  H44  1  0.52244393  0.03433692  0.41940072  1  0  0.32265  0  0.916829  0  0  0.297918  0  0.99598  0  0  0.306958  0  0.987554  0  0.491014  0  0.2964  0.291672  0  1.00164  0
H  H45  1  0.47755386  0.96566285  0.58059844  1  0  0.322619  0  0.916868  0  0  0.297907  0  0.995997  0  0  0.306948  0  0.987566  0  0.491033  0  0.2964  0.291661  0  1.001656  0
H  H46  1  0.53849644  0.99009109  0.29150535  1  0  0.33953  0  0.886541  0  0  0.323612  0  0.944051  0  0  0.330859  0  0.93871  0  0.491159  0  0.309621  0.318266  0  0.94828  0
H  H47  1  0.46150257  0.00990868  0.70849330  1  0  0.339537  0  0.886554  0  0  0.323618  0  0.944064  0  0  0.330865  0  0.938722  0  0.491176  0  0.30962  0.318272  0  0.948293  0
H  H48  1  0.61141535  0.59060561  0.09015417  1  0  0.096781  0  0.957852  0  0  0.105384  0  1.021899  0  0  0.109174  0  1.016913  0  0.186622  0  0.133421  0.102594  0  1.025495  0
H  H49  1  0.38858585  0.40939615  0.90984672  1  0  0.096773  0  0.95787  0  0  0.105369  0  1.021923  0  0  0.109158  0  1.01694  0  0.186614  0  0.133415  0.102579  0  1.025518  0
H  H50  1  0.55839480  0.45455097  0.22187193  1  0  0.330984  0  0.920331  0  0  0.312053  0  0.977393  0  0  0.321714  0  0.969485  0  0.550992  0  0.313834  0.304976  0  0.983289  0
H  H51  1  0.44160469  0.54544980  0.77812773  1  0  0.330922  0  0.920366  0  0  0.311989  0  0.977427  0  0  0.321648  0  0.969524  0  0.550989  0  0.313818  0.304916  0  0.983321  0
C  C52  1  0.17750737  0.33862872  0.06880039  1  0  0.685357  0  3.925521  0  0  0.64115  0  4.216723  0  0  0.676859  0  4.207257  0  1.490185  0  0.188327  0.617002  0  4.222237  0
C  C53  1  0.82249018  0.66136806  0.93119750  1  0  0.685349  0  3.925608  0  0  0.641114  0  4.216863  0  0  0.676823  0  4.207394  0  1.490169  0  0.188296  0.616966  0  4.222375  0
C  C54  1  0.15790496  0.46826101  0.08916110  1  0  -0.281956  0  3.722121  0  0  -0.299253  0  3.984629  0  0  -0.313472  0  4.003735  0  -0.000853  0  -0.114241  -0.289987  0  3.971935  0
C  C55  1  0.84209650  0.53173876  0.91083803  1  0  -0.282001  0  3.722235  0  0  -0.299315  0  3.984774  0  0  -0.313534  0  4.003876  0  -0.000941  0  -0.114283  -0.290049  0  3.97208  0
C  C56  1  0.09507537  0.50855770  0.16469649  1  0  0.095061  0  3.666685  0  0  0.079289  0  3.924323  0  0  0.086341  0  3.940911  0  -0.10577  0  -0.064609  0.074774  0  3.912836  0
C  C57  1  0.90492194  0.49144108  0.83530316  1  0  0.095108  0  3.666694  0  0  0.07934  0  3.924326  0  0  0.086393  0  3.94091  0  -0.105694  0  -0.064595  0.074823  0  3.91284  0
C  C58  1  0.08096307  0.64081994  0.19555436  1  0  -0.311705  0  3.75684  0  0  -0.384941  0  3.996797  0  0  -0.388616  0  4.008395  0  -0.055372  0  -0.24014  -0.382187  0  3.988616  0
C  C59  1  0.91903424  0.35917883  0.80444529  1  0  -0.311666  0  3.756756  0  0  -0.384878  0  3.996709  0  0  -0.388546  0  4.008312  0  -0.055245  0  -0.240131  -0.382124  0  3.988529  0
C  C60  1  0.61604310  0.22305839  0.21407142  1  0  0.698184  0  3.918847  0  0  0.652827  0  4.207337  0  0  0.688939  0  4.197224  0  1.517447  0  0.199654  0.628364  0  4.213255  0
C  C61  1  0.38395932  0.77694337  0.78592971  1  0  0.698188  0  3.91882  0  0  0.652873  0  4.207248  0  0  0.688986  0  4.197132  0  1.517484  0  0.199717  0.628411  0  4.213163  0
C  C62  1  0.80005305  0.29383081  0.28927971  1  0  -0.306654  0  3.722363  0  0  -0.322992  0  3.982606  0  0  -0.338084  0  3.999347  0  -0.071374  0  -0.117074  -0.313106  0  3.971382  0
C  C63  1  0.19994815  0.70617095  0.71072118  1  0  -0.306647  0  3.722324  0  0  -0.322976  0  3.982558  0  0  -0.338071  0  3.999303  0  -0.071379  0  -0.117093  -0.313091  0  3.971333  0
C  C64  1  0.91800470  0.23432192  0.30670306  1  0  0.125538  0  3.663558  0  0  0.108273  0  3.926687  0  0  0.116834  0  3.942389  0  -0.082226  0  -0.053363  0.102649  0  3.91587  0
C  C65  1  0.08199479  0.76567885  0.69329883  1  0  0.125584  0  3.663575  0  0  0.108304  0  3.92672  0  0  0.116866  0  3.94242  0  -0.082234  0  -0.053337  0.10268  0  3.915902  0
C  C66  1  0.10636368  0.30200380  0.37882440  1  0  -0.325078  0  3.736577  0  0  -0.399924  0  3.979123  0  0  -0.403841  0  3.988947  0  -0.060334  0  -0.241454  -0.396913  0  3.972065  0
C  C67  1  0.89363508  0.69799796  0.62117676  1  0  -0.325124  0  3.736484  0  0  -0.399972  0  3.979049  0  0  -0.403891  0  3.988873  0  -0.060312  0  -0.241483  -0.396961  0  3.971994  0
C  C68  1  0.09749526  0.99716544  0.19732730  1  0  0.735527  0  3.86925  0  0  0.695061  0  4.148924  0  0  0.7315  0  4.137834  0  1.512493  0  0.209824  0.670402  0  4.155467  0
C  C69  1  0.90250424  0.00283532  0.80267160  1  0  0.735489  0  3.869381  0  0  0.695102  0  4.148916  0  0  0.731542  0  4.137826  0  1.512751  0  0.209873  0.670444  0  4.155459  0
C  C70  1  0.01788116  0.92669610  0.26245013  1  0  -0.289549  0  3.678051  0  0  -0.30082  0  3.930953  0  0  -0.315908  0  3.948724  0  0.017083  0  -0.10958  -0.290847  0  3.918856  0
C  C71  1  0.98212053  0.07330666  0.73755251  1  0  -0.289564  0  3.678201  0  0  -0.300822  0  3.931035  0  0  -0.31591  0  3.948806  0  0.016875  0  -0.109568  -0.290847  0  3.918932  0
C  C72  1  0.10986047  0.93473151  0.36611330  1  0  0.104222  0  3.646904  0  0  0.089448  0  3.902275  0  0  0.096673  0  3.918473  0  -0.17709  0  -0.060762  0.084815  0  3.891017  0
C  C73  1  0.89014244  0.06527125  0.63388883  1  0  0.104182  0  3.646909  0  0  0.089383  0  3.902289  0  0  0.096605  0  3.918488  0  -0.177033  0  -0.060763  0.084751  0  3.89103  0
C  C74  1  0.04002298  0.85507826  0.43134299  1  0  -0.317638  0  3.755093  0  0  -0.3895  0  3.992566  0  0  -0.392743  0  4.002629  0  -0.088509  0  -0.240249  -0.38701  0  3.985432  0
C  C75  1  0.95997822  0.14492350  0.56865640  1  0  -0.317653  0  3.75499  0  0  -0.38951  0  3.992476  0  0  -0.392748  0  4.002541  0  -0.088618  0  -0.240278  -0.387021  0  3.985343  0
C  C76  1  0.49444464  0.69475290  0.47083988  1  0  0.632602  0  3.850603  0  0  0.589926  0  4.135409  0  0  0.616678  0  4.140991  0  1.526776  0  0.330743  0.572169  0  4.130779  0
C  C77  1  0.50555608  0.30524787  0.52916150  1  0  0.632618  0  3.850548  0  0  0.589912  0  4.135389  0  0  0.616662  0  4.140972  0  1.526762  0  0.330701  0.572154  0  4.130757  0
C  C78  1  0.53561810  0.62781773  0.31555241  1  0  0.347726  0  3.903572  0  0  0.310253  0  4.179438  0  0  0.326531  0  4.196335  0  0.951346  0  0.213996  0.299619  0  4.167768  0
C  C79  1  0.46438335  0.37218204  0.68444821  1  0  0.347773  0  3.903587  0  0  0.310284  0  4.179481  0  0  0.326562  0  4.196375  0  0.951341  0  0.214021  0.299648  0  4.16781  0
C  C80  1  0.54431351  0.74804780  0.29220435  1  0  -0.10337  0  3.825967  0  0  -0.097325  0  4.079562  0  0  -0.107934  0  4.10437  0  0.465034  0  0.058401  -0.090908  0  4.063408  0
C  C81  1  0.45568795  0.25195197  0.70779627  1  0  -0.103435  0  3.825968  0  0  -0.097433  0  4.079576  0  0  -0.108042  0  4.104382  0  0.464456  0  0.058383  -0.091009  0  4.063413  0
C  C82  1  0.52823751  0.84650649  0.37037953  1  0  0.47188  0  3.889247  0  0  0.433903  0  4.165082  0  0  0.45717  0  4.17553  0  1.042243  0  0.237226  0.418463  0  4.157383  0
C  C83  1  0.47176394  0.15349328  0.62961959  1  0  0.471898  0  3.889235  0  0  0.434027  0  4.164918  0  0  0.457293  0  4.175365  0  1.042829  0  0.237303  0.418585  0  4.157222  0
C  C84  1  0.58532005  0.62489867  0.16298714  1  0  0.234224  0  3.67318  0  0  0.170064  0  3.959115  0  0  0.185654  0  3.966711  0  0.956864  0  0.148145  0.159909  0  3.953523  0
C  C85  1  0.41467896  0.37510110  0.83701226  1  0  0.234183  0  3.673293  0  0  0.170028  0  3.959242  0  0  0.185617  0  3.966838  0  0.95689  0  0.148116  0.159872  0  3.95365  0
N  N86  1  0.50335107  0.81651827  0.45908580  1  0  -0.592549  0  2.970068  0  0  -0.542442  0  3.237114  0  0  -0.565111  0  3.243634  0  -1.227633  0  -0.34692  -0.527264  0  3.232094  0
N  N87  1  0.49664916  0.18348150  0.54091458  1  0  -0.59258  0  2.970042  0  0  -0.542484  0  3.237051  0  0  -0.565151  0  3.243571  0  -1.227635  0  -0.346956  -0.527306  0  3.232031  0
N  N88  1  0.46750654  0.67092880  0.56154709  1  0  -0.706229  0  3.054887  0  0  -0.676274  0  3.298884  0  0  -0.696965  0  3.29261  0  -1.278719  0  -0.588912  -0.661781  0  3.302714  0
N  N89  1  0.53249540  0.32907196  0.43845304  1  0  -0.70622  0  3.054837  0  0  -0.676258  0  3.298856  0  0  -0.69695  0  3.292583  0  -1.278723  0  -0.588903  -0.661764  0  3.302683  0
N  N90  1  0.50823361  0.59457646  0.40138013  1  0  -0.54692  0  2.988454  0  0  -0.502446  0  3.253196  0  0  -0.522767  0  3.261364  0  -1.241563  0  -0.346904  -0.488862  0  3.247419  0
N  N91  1  0.49176711  0.40542431  0.59862050  1  0  -0.546904  0  2.98843  0  0  -0.502416  0  3.253192  0  0  -0.522735  0  3.261356  0  -1.241568  0  -0.346891  -0.488841  0  3.247433  0
N  N92  1  0.54067803  0.96860185  0.36223007  1  0  -0.637649  0  3.101634  0  0  -0.596518  0  3.340896  0  0  -0.617682  0  3.336424  0  -1.294594  0  -0.563028  -0.581763  0  3.343688  0
N  N93  1  0.45932049  0.03139692  0.63776907  1  0  -0.63761  0  3.101679  0  0  -0.596527  0  3.340879  0  0  -0.617688  0  3.336406  0  -1.294642  0  -0.563028  -0.581773  0  3.343672  0
N  N94  1  0.57458340  0.74321958  0.19533520  1  0  -0.384759  0  3.123293  0  0  -0.329236  0  3.380016  0  0  -0.342408  0  3.392769  0  -1.222618  0  -0.332106  -0.320013  0  3.371591  0
N  N95  1  0.42541609  0.25678119  0.80466446  1  0  -0.38476  0  3.123358  0  0  -0.329249  0  3.380111  0  0  -0.342419  0  3.392861  0  -1.222668  0  -0.332114  -0.320027  0  3.371687  0
N  N96  1  0.56472650  0.55256801  0.23323457  1  0  -0.380226  0  3.35314  0  0  -0.315595  0  3.593239  0  0  -0.334273  0  3.601514  0  -1.302581  0  -0.379668  -0.302786  0  3.587352  0
N  N97  1  0.43527373  0.44743176  0.76676506  1  0  -0.380134  0  3.3532  0  0  -0.315476  0  3.593277  0  0  -0.334152  0  3.601555  0  -1.302547  0  -0.379626  -0.302667  0  3.587387  0
O  O98  1  0.11253423  0.25272062  0.11328871  1  0  -0.73957  0  2.027069  0  0  -0.679497  0  2.261083  0  0  -0.705736  0  2.252235  0  -1.198729  0  -0.3888  -0.660896  0  2.266467  0
O  O99  1  0.88746552  0.74727816  0.88670992  1  0  -0.739556  0  2.027032  0  0  -0.679479  0  2.261074  0  0  -0.705715  0  2.252224  0  -1.198715  0  -0.388808  -0.660878  0  2.266458  0
O  O100  1  0.26302047  0.31074405  0.01033802  1  0  -0.68736  0  1.950776  0  0  -0.638749  0  2.191276  0  0  -0.664557  0  2.183034  0  -1.173882  0  -0.374005  -0.620482  0  2.1962  0
O  O101  1  0.73697782  0.68925173  0.98966134  1  0  -0.687382  0  1.950783  0  0  -0.638765  0  2.191294  0  0  -0.664573  0  2.183053  0  -1.173867  0  -0.373952  -0.620497  0  2.196216  0
O  O102  1  0.54834875  0.09629930  0.16768087  1  0  -0.721225  0  2.041949  0  0  -0.656011  0  2.271261  0  0  -0.682363  0  2.260835  0  -1.220948  0  -0.356321  -0.637368  0  2.278223  0
O  O103  1  0.45165171  0.90370346  0.83231929  1  0  -0.721207  0  2.041896  0  0  -0.656007  0  2.271177  0  0  -0.682373  0  2.26079  0  -1.22101  0  -0.356317  -0.637363  0  2.278138  0
O  O104  1  0.51616050  0.29026871  0.19348346  1  0  -0.704992  0  2.029948  0  0  -0.647107  0  2.262313  0  0  -0.673117  0  2.253089  0  -1.200298  0  -0.377968  -0.628464  0  2.267912  0
O  O105  1  0.48384095  0.70973106  0.80651716  1  0  -0.704997  0  2.02997  0  0  -0.647115  0  2.262299  0  0  -0.673124  0  2.253079  0  -1.200322  0  -0.377985  -0.628474  0  2.2679  0
O  O106  1  0.25734846  0.07543515  0.23471609  1  0  -0.69434  0  1.972347  0  0  -0.647113  0  2.212765  0  0  -0.671735  0  2.204537  0  -1.187522  0  -0.369787  -0.62995  0  2.217973  0
O  O107  1  0.74265129  0.92456362  0.76528254  1  0  -0.694279  0  1.972373  0  0  -0.647077  0  2.21275  0  0  -0.671697  0  2.204523  0  -1.187546  0  -0.369751  -0.629913  0  2.217956  0
O  O108  1  0.00094260  0.97538908  0.09515042  1  0  -0.84573  0  2.134725  0  0  -0.781085  0  2.394499  0  0  -0.808638  0  2.383595  0  -1.214539  0  -0.456749  -0.761182  0  2.400683  0
O  O109  1  0.99905886  0.02461069  0.90484646  1  0  -0.845774  0  2.13477  0  0  -0.781164  0  2.39451  0  0  -0.808714  0  2.383597  0  -1.214708  0  -0.456837  -0.761261  0  2.400692  0
O  O110  1  0.23034123  0.88514724  0.99991340  1  0  -0.917116  0  1.866457  0  0  -0.865124  0  2.054185  0  0  -0.884315  0  2.022597  0  -1.282898  0  -0.644191  -0.851309  0  2.07645  0
O  O111  1  0.76965778  0.11485252  0.00008674  1  0  -0.917142  0  1.866434  0  0  -0.865157  0  2.054161  0  0  -0.884346  0  2.022576  0  -1.283107  0  -0.644188  -0.851342  0  2.076425  0
O  O112  1  0.42078455  0.11662809  0.94419881  1  0  -0.935802  0  1.906713  0  0  -0.880675  0  2.1117  0  0  -0.901323  0  2.078392  0  -1.304962  0  -0.640669  -0.865816  0  2.135298  0
O  O113  1  0.57921494  0.88337268  0.05580085  1  0  -0.935831  0  1.906675  0  0  -0.880703  0  2.111663  0  0  -0.901348  0  2.078354  0  -1.304949  0  -0.640677  -0.865844  0  2.135262  0
