# generated using pymatgen
data_KH8C8NO5
_symmetry_space_group_name_H-M   'P 1'
_cell_length_a   4.34575112
_cell_length_b   7.79673951
_cell_length_c   27.56865133
_cell_angle_alpha   90.00002155
_cell_angle_beta   90.00017815
_cell_angle_gamma   89.99995279
_symmetry_Int_Tables_number   1
_chemical_formula_structural   KH8C8NO5
_chemical_formula_sum   'K4 H32 C32 N4 O20'
_cell_volume   934.10005085
_cell_formula_units_Z   4
loop_
 _symmetry_equiv_pos_site_id
 _symmetry_equiv_pos_as_xyz
  1  'x, y, z'
loop_
 _atom_site_type_symbol
 _atom_site_label
 _atom_site_symmetry_multiplicity
 _atom_site_fract_x
 _atom_site_fract_y
 _atom_site_fract_z
 _atom_site_occupancy
 _atom_site_hle17_bader_spin_density
 _atom_site_hle17_ddec_charge
 _atom_site_hle17_ddec_spin_density
 _atom_site_hle17_ddec_sum_bond_order
 _atom_site_hle17_magmom
 _atom_site_hse06_10hf_bader_spin_density
 _atom_site_hse06_10hf_ddec_charge
 _atom_site_hse06_10hf_ddec_spin_density
 _atom_site_hse06_10hf_ddec_sum_bond_order
 _atom_site_hse06_10hf_magmom
 _atom_site_hse06_bader_spin_density
 _atom_site_hse06_ddec_charge
 _atom_site_hse06_ddec_spin_density
 _atom_site_hse06_ddec_sum_bond_order
 _atom_site_hse06_magmom
 _atom_site_pbe_bader_spin_density
 _atom_site_pbe_cm5_charge
 _atom_site_pbe_ddec_charge
 _atom_site_pbe_ddec_spin_density
 _atom_site_pbe_ddec_sum_bond_order
 _atom_site_pbe_magmom
K  K0  1  0.62801578  0.52135947  0.97831318  1  0  0.928884  0  0.451029  0  0  0.881905  0  0.626319  0  0  0.896949  0  0.604286  0  0  0.774677  0.87058  0  0.642112  0
K  K1  1  0.87198021  0.47863737  0.47831381  1  0  0.928889  0  0.451032  0  0  0.881888  0  0.626351  0  0  0.896931  0  0.604318  0  0  0.774694  0.87057  0  0.642151  0
K  K2  1  0.12802110  0.97863599  0.02168667  1  0  0.928886  0  0.451023  0  0  0.881888  0  0.626346  0  0  0.89693  0  0.604314  0  0  0.774685  0.870562  0  0.642139  0
K  K3  1  0.37198225  0.02136175  0.52168611  1  0  0.928892  0  0.451029  0  0  0.881882  0  0.626364  0  0  0.896923  0  0.604334  0  0  0.774689  0.870563  0  0.642165  0
H  H4  1  0.30790977  0.58607073  0.25836675  1  0  0.159109  0  0.941019  0  0  0.16994  0  1.003517  0  0  0.173418  0  1.001174  0  0  0.115142  0.167433  0  1.005268  0
H  H5  1  0.19209595  0.41392862  0.75836578  1  0  0.159145  0  0.94101  0  0  0.169988  0  1.003494  0  0  0.173467  0  1.001148  0  0  0.115165  0.16748  0  1.005243  0
H  H6  1  0.80790151  0.91392721  0.74163573  1  0  0.159175  0  0.940954  0  0  0.169992  0  1.003473  0  0  0.173471  0  1.001128  0  0  0.115162  0.167485  0  1.005223  0
H  H7  1  0.69210132  0.08607957  0.24163332  1  0  0.159142  0  0.940955  0  0  0.169966  0  1.003471  0  0  0.173438  0  1.001132  0  0  0.115144  0.167459  0  1.005221  0
H  H8  1  0.93321952  0.49066532  0.26395695  1  0  0.150364  0  0.937268  0  0  0.158529  0  1.002994  0  0  0.162344  0  1.00072  0  0  0.110085  0.155791  0  1.004695  0
H  H9  1  0.56678145  0.50933123  0.76395702  1  0  0.150372  0  0.937259  0  0  0.158536  0  1.002988  0  0  0.162351  0  1.000715  0  0  0.110085  0.155797  0  1.004689  0
H  H10  1  0.43321430  0.00933250  0.73604300  1  0  0.150333  0  0.937281  0  0  0.158508  0  1.003005  0  0  0.162323  0  1.000734  0  0  0.110069  0.155769  0  1.004707  0
H  H11  1  0.06678408  0.99066938  0.23604317  1  0  0.150355  0  0.937262  0  0  0.158532  0  1.002977  0  0  0.162344  0  1.000707  0  0  0.110079  0.155794  0  1.004677  0
H  H12  1  0.78110458  0.68386145  0.19246956  1  0  0.045734  0  0.949277  0  0  0.051976  0  1.013537  0  0  0.052322  0  1.013282  0  0  0.114713  0.051639  0  1.013936  0
H  H13  1  0.71889728  0.31613116  0.69246932  1  0  0.045751  0  0.949265  0  0  0.051968  0  1.013548  0  0  0.052334  0  1.013273  0  0  0.114741  0.051629  0  1.013946  0
H  H14  1  0.28109802  0.81613522  0.80753109  1  0  0.045792  0  0.949237  0  0  0.052022  0  1.013485  0  0  0.052388  0  1.013212  0  0  0.114791  0.051686  0  1.013882  0
H  H15  1  0.21890407  0.18387060  0.30753052  1  0  0.045873  0  0.949181  0  0  0.052047  0  1.013491  0  0  0.052444  0  1.01318  0  0  0.114783  0.051704  0  1.013884  0
H  H16  1  0.44636782  0.45267253  0.11364915  1  0  0.118454  0  0.928942  0  0  0.125271  0  0.991666  0  0  0.128691  0  0.989226  0  0  0.131152  0.122717  0  0.993655  0
H  H17  1  0.05363965  0.54732534  0.61364921  1  0  0.118469  0  0.928884  0  0  0.125306  0  0.991561  0  0  0.128722  0  0.989122  0  0  0.131168  0.122754  0  0.99355  0
H  H18  1  0.94635834  0.04732785  0.88635045  1  0  0.118427  0  0.928947  0  0  0.125287  0  0.991575  0  0  0.128703  0  0.98914  0  0  0.131184  0.122736  0  0.993566  0
H  H19  1  0.55364734  0.95267785  0.38634988  1  0  0.118465  0  0.928865  0  0  0.125308  0  0.991538  0  0  0.128725  0  0.989099  0  0  0.131204  0.122756  0  0.993526  0
H  H20  1  0.62982456  0.76431042  0.07449894  1  0  0.105512  0  0.986943  0  0  0.114927  0  1.055181  0  0  0.118308  0  1.053593  0  0  0.10903  0.112474  0  1.056502  0
H  H21  1  0.87017037  0.23568844  0.57449768  1  0  0.105464  0  0.986933  0  0  0.114893  0  1.055161  0  0  0.118273  0  1.053574  0  0  0.109023  0.112442  0  1.056482  0
H  H22  1  0.12982965  0.73568632  0.92550055  1  0  0.105507  0  0.986969  0  0  0.114957  0  1.055171  0  0  0.118337  0  1.053586  0  0  0.109042  0.112504  0  1.056492  0
H  H23  1  0.37017476  0.26431196  0.42550079  1  0  0.105572  0  0.98692  0  0  0.114979  0  1.05516  0  0  0.11836  0  1.053573  0  0  0.109054  0.112529  0  1.056481  0
H  H24  1  0.50526049  0.04677082  0.15148450  1  0  0.062013  0  0.956339  0  0  0.072369  0  1.025077  0  0  0.074046  0  1.022621  0  0  0.098498  0.071068  0  1.026898  0
H  H25  1  0.99473826  0.95323071  0.65148410  1  0  0.061841  0  0.956462  0  0  0.072229  0  1.025183  0  0  0.073904  0  1.022735  0  0  0.098474  0.07093  0  1.027002  0
H  H26  1  0.00525454  0.45322720  0.84851560  1  0  0.061951  0  0.956444  0  0  0.072318  0  1.025173  0  0  0.073994  0  1.022723  0  0  0.098499  0.071019  0  1.026993  0
H  H27  1  0.49473915  0.54677226  0.34851557  1  0  0.061968  0  0.956455  0  0  0.072331  0  1.02517  0  0  0.074009  0  1.022716  0  0  0.098495  0.071031  0  1.02699  0
H  H28  1  0.88682543  0.99324712  0.13387443  1  0  0.044453  0  0.927045  0  0  0.058559  0  0.992222  0  0  0.058894  0  0.991648  0  0  0.098183  0.058204  0  0.992713  0
H  H29  1  0.61317067  0.00674925  0.63387447  1  0  0.044436  0  0.927011  0  0  0.058542  0  0.992202  0  0  0.058883  0  0.991611  0  0  0.098179  0.058186  0  0.992693  0
H  H30  1  0.38682047  0.50674821  0.86612519  1  0  0.044452  0  0.927087  0  0  0.058533  0  0.992285  0  0  0.058874  0  0.991692  0  0  0.098181  0.058175  0  0.992782  0
H  H31  1  0.11317816  0.49324871  0.36612569  1  0  0.044503  0  0.927064  0  0  0.058539  0  0.992291  0  0  0.058876  0  0.991711  0  0  0.098168  0.058186  0  0.992778  0
H  H32  1  0.71228260  0.21172044  0.08378521  1  0  0.386926  0  0.914072  0  0  0.361707  0  0.981755  0  0  0.372892  0  0.965108  0  0  0.296872  0.353732  0  0.993641  0
H  H33  1  0.78771941  0.78827715  0.58378505  1  0  0.38691  0  0.914096  0  0  0.361692  0  0.981777  0  0  0.372876  0  0.96513  0  0  0.296872  0.353716  0  0.993664  0
H  H34  1  0.21227823  0.28827747  0.91621500  1  0  0.386896  0  0.914139  0  0  0.361675  0  0.98181  0  0  0.372859  0  0.965163  0  0  0.296862  0.353699  0  0.993697  0
H  H35  1  0.28771910  0.71172336  0.41621488  1  0  0.386912  0  0.914077  0  0  0.361693  0  0.981772  0  0  0.372878  0  0.965124  0  0  0.296876  0.353718  0  0.993658  0
C  C36  1  0.21338484  0.39204986  0.20145824  1  0  0.576523  0  3.716069  0  0  0.533839  0  4.020552  0  0  0.563326  0  4.016548  0  0  0.251207  0.513763  0  4.022789  0
C  C37  1  0.28661516  0.60794684  0.70145734  1  0  0.576535  0  3.715896  0  0  0.533812  0  4.020498  0  0  0.563304  0  4.016488  0  0  0.251247  0.513737  0  4.022734  0
C  C38  1  0.71338505  0.10794934  0.79854305  1  0  0.576452  0  3.716131  0  0  0.533734  0  4.020681  0  0  0.563227  0  4.016669  0  0  0.251198  0.513657  0  4.022921  0
C  C39  1  0.78661200  0.89205880  0.29854150  1  0  0.576533  0  3.716101  0  0  0.53383  0  4.020654  0  0  0.563322  0  4.01664  0  0  0.251274  0.513754  0  4.022893  0
C  C40  1  0.11548488  0.52759247  0.23855942  1  0  -0.361553  0  3.558393  0  0  -0.412066  0  3.808135  0  0  -0.418187  0  3.811653  0  0  -0.160745  -0.407644  0  3.805729  0
C  C41  1  0.38451584  0.47240941  0.73855892  1  0  -0.361598  0  3.558286  0  0  -0.412098  0  3.808031  0  0  -0.418222  0  3.811548  0  0  -0.160767  -0.407677  0  3.805618  0
C  C42  1  0.61547693  0.97240941  0.76144151  1  0  -0.361531  0  3.558223  0  0  -0.412055  0  3.808021  0  0  -0.418181  0  3.811541  0  0  -0.160744  -0.407632  0  3.805615  0
C  C43  1  0.88451939  0.02759484  0.26144065  1  0  -0.361636  0  3.55828  0  0  -0.41216  0  3.808072  0  0  -0.418276  0  3.811589  0  0  -0.160825  -0.407746  0  3.805652  0
C  C44  1  0.01398522  0.63092412  0.19376468  1  0  0.306875  0  3.538123  0  0  0.262909  0  3.808425  0  0  0.274327  0  3.815635  0  0  0.100258  0.254888  0  3.803759  0
C  C45  1  0.48601922  0.36907386  0.69376422  1  0  0.306802  0  3.538  0  0  0.262874  0  3.8083  0  0  0.27428  0  3.815502  0  0  0.100227  0.254862  0  3.803621  0
C  C46  1  0.51397370  0.86907909  0.80623656  1  0  0.306888  0  3.538028  0  0  0.262912  0  3.808361  0  0  0.274322  0  3.815568  0  0  0.100232  0.25489  0  3.803696  0
C  C47  1  0.98602580  0.13092778  0.30623576  1  0  0.306736  0  3.538056  0  0  0.262852  0  3.808317  0  0  0.274242  0  3.815524  0  0  0.100253  0.254866  0  3.803598  0
C  C48  1  0.24294843  0.53539305  0.11890362  1  0  -0.071896  0  3.614174  0  0  -0.094934  0  3.853415  0  0  -0.096076  0  3.862743  0  0  0.018644  -0.094196  0  3.847241  0
C  C49  1  0.25705914  0.46460354  0.61890341  1  0  -0.072041  0  3.614143  0  0  -0.095034  0  3.853399  0  0  -0.096173  0  3.862719  0  0  0.018635  -0.094302  0  3.84724  0
C  C50  1  0.74294054  0.96460619  0.88109665  1  0  -0.071918  0  3.614084  0  0  -0.094941  0  3.853311  0  0  -0.096082  0  3.86263  0  0  0.018637  -0.094208  0  3.847147  0
C  C51  1  0.75706734  0.03539821  0.38109609  1  0  -0.071838  0  3.613978  0  0  -0.094844  0  3.853257  0  0  -0.095979  0  3.862572  0  0  0.018629  -0.094114  0  3.847101  0
C  C52  1  0.06106916  0.52126665  0.07055699  1  0  0.66906  0  3.913549  0  0  0.619813  0  4.225632  0  0  0.65252  0  4.217187  0  0  0.193983  0.597601  0  4.230662  0
C  C53  1  0.43893745  0.47873244  0.57055724  1  0  0.669098  0  3.913501  0  0  0.619823  0  4.225616  0  0  0.652531  0  4.217171  0  0  0.193991  0.597612  0  4.230646  0
C  C54  1  0.56107832  0.97872499  0.92944428  1  0  0.669055  0  3.913269  0  0  0.619801  0  4.225381  0  0  0.652508  0  4.216935  0  0  0.193931  0.597589  0  4.230413  0
C  C55  1  0.93894662  0.02126537  0.42944199  1  0  0.669012  0  3.913185  0  0  0.619706  0  4.225362  0  0  0.652411  0  4.216918  0  0  0.193971  0.597496  0  4.23039  0
C  C56  1  0.34802808  0.71535031  0.13301679  1  0  0.227179  0  3.742206  0  0  0.210139  0  4.024943  0  0  0.220759  0  4.040315  0  0  0.078635  0.202658  0  4.014571  0
C  C57  1  0.15197056  0.28464629  0.63301578  1  0  0.227158  0  3.742112  0  0  0.210117  0  4.024848  0  0  0.220736  0  4.040223  0  0  0.078567  0.20264  0  4.014478  0
C  C58  1  0.84802249  0.78464888  0.86698318  1  0  0.22721  0  3.742034  0  0  0.210154  0  4.024803  0  0  0.220782  0  4.040179  0  0  0.078606  0.202673  0  4.014432  0
C  C59  1  0.65197591  0.21535678  0.36698403  1  0  0.227243  0  3.742113  0  0  0.210196  0  4.024844  0  0  0.22082  0  4.040222  0  0  0.078653  0.202719  0  4.014476  0
C  C60  1  0.54203105  0.81673109  0.10839358  1  0  -0.287341  0  3.748125  0  0  -0.322105  0  4.040913  0  0  -0.327434  0  4.056985  0  0  -0.148309  -0.318507  0  4.030202  0
C  C61  1  0.95796454  0.18326910  0.60839272  1  0  -0.287238  0  3.747887  0  0  -0.322029  0  4.040712  0  0  -0.327358  0  4.056781  0  0  -0.148257  -0.318432  0  4.030001  0
C  C62  1  0.04203325  0.68326697  0.89160696  1  0  -0.287346  0  3.747941  0  0  -0.322168  0  4.040781  0  0  -0.327496  0  4.056844  0  0  -0.148302  -0.318569  0  4.03007  0
C  C63  1  0.45797509  0.31673127  0.39160652  1  0  -0.287385  0  3.748168  0  0  -0.322137  0  4.040913  0  0  -0.327464  0  4.056976  0  0  -0.148278  -0.31854  0  4.030205  0
C  C64  1  0.64384775  0.99325487  0.12179833  1  0  0.162621  0  3.694934  0  0  0.104794  0  3.974744  0  0  0.113487  0  3.978417  0  0  -0.08919  0.099009  0  3.972096  0
C  C65  1  0.85614811  0.00674662  0.62179740  1  0  0.162853  0  3.6948  0  0  0.105013  0  3.974622  0  0  0.11371  0  3.97829  0  0  -0.089112  0.09923  0  3.971969  0
C  C66  1  0.14384073  0.50674314  0.87820153  1  0  0.162718  0  3.694948  0  0  0.1049  0  3.974781  0  0  0.113598  0  3.978453  0  0  -0.089195  0.099113  0  3.972134  0
C  C67  1  0.35615354  0.49325636  0.37820178  1  0  0.162585  0  3.695138  0  0  0.104822  0  3.974876  0  0  0.113519  0  3.978542  0  0  -0.089188  0.099039  0  3.972225  0
N  N68  1  0.07919355  0.48222089  0.16257601  1  0  -0.295701  0  3.147386  0  0  -0.23576  0  3.400648  0  0  -0.255413  0  3.414439  0  0  -0.285232  -0.222183  0  3.390907  0
N  N69  1  0.42080798  0.51777575  0.66257552  1  0  -0.295552  0  3.14719  0  0  -0.235699  0  3.400567  0  0  -0.255347  0  3.41435  0  0  -0.28525  -0.222125  0  3.390825  0
N  N70  1  0.57918545  0.01777965  0.83742486  1  0  -0.295691  0  3.147354  0  0  -0.235746  0  3.400633  0  0  -0.25539  0  3.414411  0  0  -0.285263  -0.222173  0  3.390902  0
N  N71  1  0.92081696  0.98222469  0.33742375  1  0  -0.295621  0  3.147315  0  0  -0.235732  0  3.400631  0  0  -0.255387  0  3.414432  0  0  -0.28527  -0.222164  0  3.390884  0
O  O72  1  0.36170222  0.25950853  0.20179525  1  0  -0.501612  0  1.980011  0  0  -0.457051  0  2.19457  0  0  -0.477239  0  2.188163  0  0  -0.262573  -0.443301  0  2.198813  0
O  O73  1  0.13828397  0.74048817  0.70179284  1  0  -0.501673  0  1.979915  0  0  -0.457093  0  2.194513  0  0  -0.477299  0  2.188127  0  0  -0.262642  -0.443342  0  2.198754  0
O  O74  1  0.86171144  0.24048932  0.79820721  1  0  -0.501598  0  1.980098  0  0  -0.45702  0  2.194674  0  0  -0.477234  0  2.188298  0  0  -0.26259  -0.44326  0  2.198906  0
O  O75  1  0.63827180  0.75952010  0.29820521  1  0  -0.501666  0  1.98008  0  0  -0.457087  0  2.194648  0  0  -0.4773  0  2.188273  0  0  -0.262624  -0.443335  0  2.198888  0
O  O76  1  0.13858585  0.62111732  0.03645307  1  0  -0.756295  0  1.975078  0  0  -0.712317  0  2.223939  0  0  -0.736826  0  2.214952  0  0  -0.486176  -0.694956  0  2.229539  0
O  O77  1  0.36141780  0.37887788  0.53645290  1  0  -0.756296  0  1.974988  0  0  -0.712294  0  2.223837  0  0  -0.736805  0  2.21485  0  0  -0.486177  -0.694943  0  2.229467  0
O  O78  1  0.63858202  0.87888070  0.96354643  1  0  -0.756244  0  1.97521  0  0  -0.712264  0  2.224075  0  0  -0.736773  0  2.215089  0  0  -0.486155  -0.6949  0  2.229663  0
O  O79  1  0.86141368  0.12112510  0.46354774  1  0  -0.756374  0  1.974634  0  0  -0.712348  0  2.223472  0  0  -0.736857  0  2.214485  0  0  -0.486218  -0.694996  0  2.229103  0
O  O80  1  0.85712953  0.40546292  0.06734593  1  0  -0.682914  0  1.993735  0  0  -0.63387  0  2.227094  0  0  -0.658007  0  2.215215  0  0  -0.373741  -0.616827  0  2.234745  0
O  O81  1  0.64287217  0.59453465  0.56734640  1  0  -0.682877  0  1.993731  0  0  -0.633825  0  2.227097  0  0  -0.657961  0  2.215216  0  0  -0.373731  -0.616776  0  2.234742  0
O  O82  1  0.35712346  0.09453877  0.93265435  1  0  -0.682913  0  1.993317  0  0  -0.633879  0  2.226675  0  0  -0.658016  0  2.214794  0  0  -0.373698  -0.616834  0  2.234328  0
O  O83  1  0.14287419  0.90546849  0.43265418  1  0  -0.682817  0  1.993762  0  0  -0.633759  0  2.22715  0  0  -0.657897  0  2.21528  0  0  -0.373704  -0.616712  0  2.234798  0
O  O84  1  0.61492547  0.09778181  0.07863621  1  0  -0.663891  0  2.056111  0  0  -0.608556  0  2.280624  0  0  -0.624699  0  2.262713  0  0  -0.515046  -0.59701  0  2.292859  0
O  O85  1  0.88507184  0.90221706  0.57863575  1  0  -0.663936  0  2.056086  0  0  -0.608616  0  2.28062  0  0  -0.624759  0  2.262707  0  0  -0.51507  -0.597069  0  2.292856  0
O  O86  1  0.11492563  0.40221487  0.92136431  1  0  -0.663894  0  2.056092  0  0  -0.608562  0  2.280594  0  0  -0.624708  0  2.262682  0  0  -0.51505  -0.597014  0  2.292828  0
O  O87  1  0.38507409  0.59778212  0.42136423  1  0  -0.663894  0  2.056169  0  0  -0.608576  0  2.280662  0  0  -0.624718  0  2.262749  0  0  -0.515062  -0.59703  0  2.292899  0
O  O88  1  0.22918368  0.76090916  0.17784195  1  0  -0.322504  0  2.215411  0  0  -0.250009  0  2.44748  0  0  -0.268383  0  2.448806  0  0  -0.170082  -0.236932  0  2.446198  0
O  O89  1  0.27082045  0.23908623  0.67784100  1  0  -0.322508  0  2.215441  0  0  -0.249989  0  2.447472  0  0  -0.268371  0  2.448818  0  0  -0.170055  -0.236913  0  2.446187  0
O  O90  1  0.72917496  0.73908881  0.82215904  1  0  -0.3226  0  2.215561  0  0  -0.250048  0  2.447573  0  0  -0.268443  0  2.44892  0  0  -0.170076  -0.23697  0  2.446291  0
O  O91  1  0.77082486  0.26091679  0.32215887  1  0  -0.322569  0  2.215416  0  0  -0.25005  0  2.447425  0  0  -0.268452  0  2.448795  0  0  -0.170099  -0.23698  0  2.446133  0
