# generated using pymatgen
data_CuH5C9N2O
_symmetry_space_group_name_H-M   'P 1'
_cell_length_a   24.97297037
_cell_length_b   25.18083936
_cell_length_c   25.77464869
_cell_angle_alpha   92.49759107
_cell_angle_beta   92.88607422
_cell_angle_gamma   91.09121901
_symmetry_Int_Tables_number   1
_chemical_formula_structural   CuH5C9N2O
_chemical_formula_sum   'Cu12 H60 C108 N24 O12'
_cell_volume   16168.53989228
_cell_formula_units_Z   12
loop_
 _symmetry_equiv_pos_site_id
 _symmetry_equiv_pos_as_xyz
  1  'x, y, z'
loop_
 _atom_site_type_symbol
 _atom_site_label
 _atom_site_symmetry_multiplicity
 _atom_site_fract_x
 _atom_site_fract_y
 _atom_site_fract_z
 _atom_site_occupancy
 _atom_site_pbe_bader_charge
 _atom_site_pbe_bader_spin_density
 _atom_site_pbe_cm5_charge
 _atom_site_pbe_ddec_charge
 _atom_site_pbe_ddec_spin_density
 _atom_site_pbe_ddec_sum_bond_order
 _atom_site_pbe_magmom
Cu  Cu0  1  0.21160294  0.20574844  0.18024853  1  0.547044  0  0.479734  0.208537  0  2.069007  0
Cu  Cu1  1  0.19899846  0.11338374  0.26405086  1  0.552011  0  0.485792  0.20581  0  2.120352  0
Cu  Cu2  1  0.14482431  0.21929716  0.28148971  1  0.554603  0  0.487475  0.204704  0  2.146061  0
Cu  Cu3  1  0.78830191  0.25157553  0.86291894  1  0.545376  0  0.486148  0.207699  0  2.104371  0
Cu  Cu4  1  0.74137712  0.15295233  0.79289498  1  0.542081  0  0.48421  0.203761  0  2.109525  0
Cu  Cu5  1  0.84685056  0.21425323  0.76196167  1  0.543718  0  0.487644  0.206113  0  2.116747  0
Cu  Cu6  1  0.25782213  0.78504350  0.85814356  1  0.543752  0  0.486383  0.207444  0  2.110332  0
Cu  Cu7  1  0.22396380  0.84425884  0.75708921  1  0.543283  0  0.490437  0.20645  0  2.128417  0
Cu  Cu8  1  0.15823814  0.74059794  0.78705244  1  0.544145  0  0.483019  0.204352  0  2.099004  0
Cu  Cu9  1  0.82434308  0.81740442  0.05644791  1  0.544701  0  0.491328  0.202748  0  2.157963  0
Cu  Cu10  1  0.80439715  0.88355585  0.15934633  1  0.548092  0  0.485677  0.209207  0  2.089203  0
Cu  Cu11  1  0.87466512  0.77615448  0.15888711  1  0.544032  0  0.486219  0.208258  0  2.106465  0
H  H12  1  0.31349241  0.16116689  0.12223175  1  0.103638  0  0.122822  0.117312  0  0.986342  0
H  H13  1  0.29123063  0.04009072  0.23401708  1  0.08415  0  0.120336  0.111649  0  0.988566  0
H  H14  1  0.08502866  0.32321113  0.26084142  1  0.084644  0  0.120286  0.111377  0  0.988807  0
H  H15  1  0.16355500  0.30426014  0.11521520  1  0.10501  0  0.123972  0.118717  0  0.984354  0
H  H16  1  0.14629185  0.04449372  0.35448179  1  0.119857  0  0.123915  0.117893  0  0.981831  0
H  H17  1  0.09691065  0.20493969  0.39290440  1  0.088963  0  0.120875  0.111788  0  0.989784  0
H  H18  1  0.69455205  0.26800175  0.94019627  1  0.089614  0  0.121975  0.113272  0  0.987205  0
H  H19  1  0.63524528  0.12668517  0.85197282  1  0.089239  0  0.120815  0.11349  0  0.989908  0
H  H20  1  0.94434971  0.29713375  0.76626894  1  0.096094  0  0.121545  0.112837  0  0.986961  0
H  H21  1  0.87506094  0.33646549  0.91355760  1  0.098863  0  0.124781  0.118896  0  0.982771  0
H  H22  1  0.73827268  0.05595161  0.71017513  1  0.071376  0  0.120886  0.111279  0  0.98933  0
H  H23  1  0.88005159  0.14120144  0.66573934  1  0.118581  0  0.123823  0.11764  0  0.985803  0
H  H24  1  0.34534141  0.86851488  0.91044369  1  0.113385  0  0.12487  0.119018  0  0.983006  0
H  H25  1  0.31223923  0.93710497  0.76112478  1  0.087998  0  0.122077  0.11355  0  0.986005  0
H  H26  1  0.13079039  0.63364374  0.84515107  1  0.078093  0  0.120821  0.113446  0  0.990693  0
H  H27  1  0.27085813  0.69350384  0.93712347  1  0.118953  0  0.122072  0.113233  0  0.987812  0
H  H28  1  0.14865272  0.88426784  0.66519082  1  0.113773  0  0.124614  0.118323  0  0.984156  0
H  H29  1  0.05865405  0.74487887  0.70674856  1  0.098638  0  0.12103  0.111679  0  0.989396  0
H  H30  1  0.74304173  0.86763217  0.97769001  1  0.101748  0  0.121246  0.111805  0  0.98813  0
H  H31  1  0.70474732  0.95528955  0.11906520  1  0.110432  0  0.124845  0.119088  0  0.983227  0
H  H32  1  0.93718429  0.67302408  0.11440408  1  0.108008  0  0.123888  0.117113  0  0.984806  0
H  H33  1  0.87741925  0.74294817  0.97254732  1  0.061575  0  0.121888  0.112851  0  0.987179  0
H  H34  1  0.83518110  0.92843602  0.27472512  1  0.11485  0  0.125088  0.119552  0  0.980271  0
H  H35  1  0.90369006  0.77183109  0.27873294  1  0.097082  0  0.121596  0.113449  0  0.987594  0
H  H36  1  0.94963457  0.07253291  0.54234371  1  0.052344  0  0.104689  0.11859  0  1.016163  0
H  H37  1  0.90484126  0.90619393  0.53245104  1  0.040826  0  0.101471  0.074997  0  1.013383  0
H  H38  1  0.06760799  0.96930980  0.54673581  1  0.101534  0  0.104632  0.122356  0  1.008668  0
H  H39  1  0.98557296  0.98838218  0.41395798  1  0.133616  0  0.108698  0.128008  0  1.007838  0
H  H40  1  0.53031611  0.99248763  0.08619298  1  0.083855  0  0.105006  0.120435  0  1.018377  0
H  H41  1  0.53405621  0.05905845  0.93465327  1  0.077886  0  0.10374  0.080935  0  1.005341  0
H  H42  1  0.47417877  0.13653993  0.07228578  1  0.058057  0  0.106557  0.122881  0  1.001352  0
H  H43  1  0.39088148  0.00990891  0.00909661  1  0.097313  0  0.10835  0.127377  0  0.998716  0
H  H44  1  0.14573659  0.47743196  0.07110103  1  0.076932  0  0.106782  0.122008  0  1.001275  0
H  H45  1  0.06267913  0.52513488  0.93010303  1  0.048892  0  0.104096  0.082876  0  0.998099  0
H  H46  1  0.99726907  0.52468896  0.08218017  1  0.069618  0  0.104297  0.119118  0  1.018716  0
H  H47  1  0.02249697  0.38481001  0.01272155  1  0.093127  0  0.108273  0.127616  0  0.998912  0
H  H48  1  0.39048542  0.00298576  0.21385157  1  0.083503  0  0.105441  0.132836  0  1.001916  0
H  H49  1  0.47090735  0.97874563  0.14945767  1  0.063924  0  0.106847  0.134324  0  1.005609  0
H  H50  1  0.58649710  0.27653667  0.97467281  1  0.083572  0  0.107406  0.134434  0  0.998717  0
H  H51  1  0.50763218  0.22694384  0.02555921  1  0.087487  0  0.109446  0.135756  0  0.995192  0
H  H52  1  0.42124187  0.98799017  0.78303832  1  0.057478  0  0.106494  0.134562  0  1.000956  0
H  H53  1  0.48466851  0.05048815  0.85157673  1  0.07759  0  0.106427  0.132397  0  1.004419  0
H  H54  1  0.68591023  0.94341861  0.92381741  1  0.059693  0  0.106764  0.134062  0  0.999607  0
H  H55  1  0.59383017  0.99869253  0.90868071  1  0.065896  0  0.106448  0.13  0  1.009231  0
H  H56  1  0.03698618  0.41033882  0.22754596  1  0.101228  0  0.105231  0.132905  0  1.003119  0
H  H57  1  0.00304217  0.48178121  0.15708471  1  0.068676  0  0.106148  0.133419  0  1.006962  0
H  H58  1  0.94410362  0.67609129  0.91806578  1  0.058963  0  0.106521  0.133564  0  1.000446  0
H  H59  1  0.00427005  0.58785074  0.90368562  1  0.08916  0  0.106885  0.130385  0  1.006863  0
H  H60  1  0.99848655  0.40301257  0.78439566  1  0.0981  0  0.10632  0.133936  0  1.001024  0
H  H61  1  0.06083904  0.46913020  0.85047147  1  0.079091  0  0.107087  0.133534  0  1.002078  0
H  H62  1  0.28072660  0.59102452  0.97379956  1  0.095404  0  0.10731  0.134581  0  0.998918  0
H  H63  1  0.23323513  0.51157578  0.02524608  1  0.059165  0  0.110312  0.136746  0  0.994757  0
H  H64  1  0.11150466  0.16431412  0.50147834  1  0.05761  0  0.105797  0.133471  0  1.003314  0
H  H65  1  0.04690590  0.10526997  0.56125841  1  0.102958  0  0.107427  0.135948  0  0.998121  0
H  H66  1  0.97546301  0.77483070  0.64302370  1  0.077298  0  0.106897  0.134254  0  0.999077  0
H  H67  1  0.92166429  0.83675765  0.57511216  1  0.07142  0  0.104274  0.126014  0  1.017866  0
H  H68  1  0.85846887  0.78432067  0.38816727  1  0.085903  0  0.107221  0.135416  0  0.999096  0
H  H69  1  0.89308251  0.83372392  0.48059797  1  0.072039  0  0.102562  0.124707  0  1.024885  0
H  H70  1  0.76075732  0.97563738  0.63595348  1  0.096473  0  0.106753  0.133971  0  0.999914  0
H  H71  1  0.82131310  0.92479538  0.56468812  1  0.071283  0  0.10642  0.131189  0  1.006741  0
C  C72  1  0.30046961  0.13601497  0.15252077  1  0.4983  0  0.006857  -0.043827  0  3.940965  0
C  C73  1  0.32291670  0.08903696  0.17061057  1  -0.007575  0  -0.039192  -0.064645  0  4.145284  0
C  C74  1  0.28923884  0.07423085  0.20977858  1  0.393317  0  0.004959  -0.047757  0  3.96111  0
C  C75  1  0.10898111  0.31136541  0.22849756  1  0.374326  0  0.005249  -0.046152  0  3.962596  0
C  C76  1  0.11218204  0.33357734  0.17970109  1  0.081111  0  -0.0396  -0.066385  0  4.145221  0
C  C77  1  0.14901454  0.30150144  0.15398286  1  0.4001  0  0.007411  -0.042732  0  3.936024  0
C  C78  1  0.13790548  0.08664345  0.35612689  1  0.386658  0  0.010001  -0.03898  0  3.945146  0
C  C79  1  0.11176205  0.11706685  0.39384015  1  0.062332  0  -0.039357  -0.066066  0  4.140617  0
C  C80  1  0.11338759  0.16895879  0.37601839  1  0.411388  0  0.007402  -0.044403  0  3.967721  0
C  C81  1  0.68726611  0.23424263  0.91297608  1  0.412155  0  0.007923  -0.043207  0  3.949942  0
C  C82  1  0.64449379  0.19695336  0.90937464  1  0.031993  0  -0.039052  -0.067713  0  4.142603  0
C  C83  1  0.65716554  0.16164387  0.86826203  1  0.43837  0  0.006512  -0.042992  0  3.949172  0
C  C84  1  0.92015453  0.30082586  0.79997807  1  0.395415  0  0.007177  -0.044158  0  3.955908  0
C  C85  1  0.92820284  0.33348660  0.84537825  1  0.047198  0  -0.038203  -0.066758  0  4.142294  0
C  C86  1  0.88495467  0.32034627  0.87560012  1  0.44514  0  0.009816  -0.038825  0  3.939426  0
C  C87  1  0.77141593  0.08355001  0.70559763  1  0.415809  0  0.007494  -0.042604  0  3.953086  0
C  C88  1  0.81276719  0.08089009  0.67059343  1  0.085809  0  -0.038569  -0.067782  0  4.145256  0
C  C89  1  0.84387667  0.12726937  0.68289455  1  0.362597  0  0.00714  -0.043042  0  3.943769  0
C  C90  1  0.33054165  0.87842689  0.87184377  1  0.381998  0  0.010721  -0.038014  0  3.94468  0
C  C91  1  0.34611303  0.92051406  0.84143250  1  0.106821  0  -0.038628  -0.068448  0  4.149483  0
C  C92  1  0.31422645  0.91320767  0.79515775  1  0.409247  0  0.007717  -0.043731  0  3.957699  0
C  C93  1  0.16554596  0.65559011  0.86233329  1  0.442654  0  0.005878  -0.044004  0  3.948421  0
C  C94  1  0.20013445  0.64341107  0.90469824  1  0.002203  0  -0.038325  -0.065693  0  4.141323  0
C  C95  1  0.23751617  0.68602900  0.90895800  1  0.413002  0  0.00791  -0.043575  0  3.953838  0
C  C96  1  0.13373727  0.84809332  0.68127842  1  0.435277  0  0.008602  -0.040016  0  3.943515  0
C  C97  1  0.08520657  0.81996655  0.66966996  1  0.000524  0  -0.039311  -0.069495  0  4.150121  0
C  C98  1  0.08758418  0.77690995  0.70262368  1  0.421212  0  0.007474  -0.044123  0  3.952763  0
C  C99  1  0.74105218  0.88518966  0.01672552  1  0.391112  0  0.007115  -0.044695  0  3.961575  0
C  C100  1  0.70570979  0.92304359  0.03603724  1  0.092541  0  -0.037712  -0.066631  0  4.144845  0
C  C101  1  0.72108901  0.92954417  0.08922899  1  0.398298  0  0.00939  -0.040148  0  3.936221  0
C  C102  1  0.91799700  0.69655655  0.08480769  1  0.469937  0  0.009361  -0.037768  0  3.937248  0
C  C103  1  0.91896347  0.69066764  0.03033198  1  -0.00107  0  -0.038659  -0.070059  0  4.150573  0
C  C104  1  0.88776570  0.73246364  0.01213488  1  0.426243  0  0.008323  -0.042315  0  3.957217  0
C  C105  1  0.84998717  0.88886733  0.26651839  1  0.400877  0  0.011005  -0.038525  0  3.943621  0
C  C106  1  0.87512075  0.85372087  0.30039869  1  0.068067  0  -0.039296  -0.068616  0  4.138041  0
C  C107  1  0.88423860  0.80842189  0.26863191  1  0.419848  0  0.007509  -0.045262  0  3.963268  0
C  C108  1  0.99951208  0.00982056  0.50099469  1  0.057705  0  0.005967  0.124421  0  3.880484  0
C  C109  1  0.95260532  0.03040912  0.53210540  1  0.012685  0  -0.096245  -0.19505  0  3.821309  0
C  C110  1  0.91783233  0.99198344  0.54414802  1  -0.00604  0  -0.022064  -0.001442  0  4.040645  0
C  C111  1  0.93360510  0.93701245  0.52302404  1  0.002911  0  -0.062079  -0.040201  0  3.816887  0
C  C112  1  0.02525927  0.96645289  0.53467886  1  -0.031347  0  -0.096967  -0.199371  0  3.792554  0
C  C113  1  0.99016651  0.92827057  0.54705607  1  -0.017144  0  -0.021721  0.000143  0  4.035161  0
C  C114  1  0.97377580  0.97945959  0.45269926  1  -0.037097  0  -0.094425  -0.189207  0  3.797403  0
C  C115  1  0.93941198  0.94038078  0.46440385  1  -0.023203  0  -0.023042  -0.00409  0  4.032018  0
C  C116  1  0.46460328  0.04706792  0.05453064  1  0.073963  0  0.00417  0.122533  0  3.909867  0
C  C117  1  0.51693354  0.01570715  0.05362315  1  -0.046263  0  -0.096617  -0.199653  0  3.80831  0
C  C118  1  0.54240916  0.01955798  0.00906056  1  -0.05  0  -0.018319  0.006795  0  4.022659  0
C  C119  1  0.51298228  0.05529407  0.97043408  1  -0.013214  0  -0.063051  -0.044263  0  3.810233  0
C  C120  1  0.48124313  0.10452460  0.04392222  1  0.04965  0  -0.094177  -0.194331  0  3.810755  0
C  C121  1  0.50787202  0.10893651  0.00009242  1  -0.104411  0  -0.019953  0.004294  0  4.013867  0
C  C122  1  0.43102066  0.02648611  0.00570615  1  -0.066089  0  -0.094458  -0.193557  0  3.80908  0
C  C123  1  0.45671971  0.03042494  0.96135157  1  0.061128  0  -0.023471  -0.002942  0  4.039817  0
C  C124  1  0.05611331  0.46176439  0.05405453  1  0.06173  0  0.003186  0.120524  0  3.913513  0
C  C125  1  0.11284684  0.48103855  0.04224798  1  -0.048769  0  -0.092993  -0.191161  0  3.8128  0
C  C126  1  0.11531970  0.50556306  0.99704281  1  0.029066  0  -0.02132  0.000666  0  4.022723  0
C  C127  1  0.06070171  0.50600668  0.96719614  1  0.021185  0  -0.061629  -0.042369  0  3.804164  0
C  C128  1  0.02128951  0.51131077  0.05034023  1  0.019168  0  -0.096662  -0.198709  0  3.810523  0
C  C129  1  0.02334224  0.53469361  0.00445535  1  -0.070046  0  -0.019823  0.004895  0  4.026163  0
C  C130  1  0.03680507  0.42512545  0.00718192  1  -0.020955  0  -0.093537  -0.191211  0  3.809777  0
C  C131  1  0.03882759  0.44855752  0.96134181  1  0.003337  0  -0.023277  -0.00552  0  4.032239  0
C  C132  1  0.36964865  0.06085776  0.15518655  1  0.401537  0  0.062804  0.185434  0  4.047669  0
C  C133  1  0.39836002  0.02094846  0.17742934  1  -0.054883  0  -0.133335  -0.243039  0  4.06001  0
C  C134  1  0.44072750  0.00865632  0.14396429  1  0.055724  0  -0.130765  -0.238625  0  4.083417  0
C  C135  1  0.43587461  0.04161028  0.10324159  1  0.318287  0  0.064481  0.160051  0  3.924396  0
C  C136  1  0.59937534  0.19601017  0.94201573  1  0.419541  0  0.065778  0.191615  0  4.038077  0
C  C137  1  0.57570505  0.23452769  0.97226489  1  0.000268  0  -0.126915  -0.237462  0  4.061782  0
C  C138  1  0.53453102  0.20883937  0.99851981  1  -0.037697  0  -0.12364  -0.22283  0  4.051283  0
C  C139  1  0.53477958  0.15564375  0.98339551  1  0.426647  0  0.064077  0.173891  0  4.019883  0
C  C140  1  0.38646589  0.96117990  0.85419938  1  0.372853  0  0.068962  0.196686  0  4.040016  0
C  C141  1  0.42005258  0.99040707  0.82509763  1  0.04896  0  -0.131262  -0.244442  0  4.063289  0
C  C142  1  0.45363693  0.02221082  0.86087355  1  -0.04285  0  -0.126376  -0.231225  0  4.057134  0
C  C143  1  0.43863768  0.01128714  0.91017124  1  0.356616  0  0.064131  0.174864  0  4.034877  0
C  C144  1  0.66493585  0.94890031  0.00559296  1  0.417891  0  0.07035  0.198607  0  4.041974  0
C  C145  1  0.65872591  0.95661092  0.95304915  1  0.023065  0  -0.130219  -0.242964  0  4.06048  0
C  C146  1  0.61131819  0.98608898  0.94537565  1  -0.086761  0  -0.122341  -0.220794  0  4.050693  0
C  C147  1  0.59041094  0.99471131  0.99354197  1  0.492932  0  0.064689  0.173893  0  4.035013  0
C  C148  1  0.08262459  0.37877940  0.16276222  1  0.398559  0  0.0633  0.187533  0  4.048972  0
C  C149  1  0.04812195  0.41210883  0.18750890  1  -0.030558  0  -0.133663  -0.244696  0  4.058572  0
C  C150  1  0.03036176  0.44949414  0.15058950  1  -0.006176  0  -0.130862  -0.238524  0  4.084205  0
C  C151  1  0.05479790  0.43719873  0.10540135  1  0.38816  0  0.064623  0.160049  0  3.925954  0
C  C152  1  0.94655612  0.65238283  0.99925053  1  0.459247  0  0.069498  0.197296  0  4.044631  0
C  C153  1  0.95705182  0.64862736  0.94723417  1  -0.024859  0  -0.129088  -0.240819  0  4.055955  0
C  C154  1  0.98884078  0.60300433  0.93989642  1  -0.015016  0  -0.12104  -0.219453  0  4.049144  0
C  C155  1  0.99606626  0.58073044  0.98771379  1  0.413429  0  0.064794  0.172755  0  4.038227  0
C  C156  1  0.96994938  0.37305801  0.85703933  1  0.408686  0  0.067891  0.193586  0  4.037573  0
C  C157  1  0.00022535  0.40426738  0.82658061  1  -0.051882  0  -0.130709  -0.242042  0  4.063949  0
C  C158  1  0.03188980  0.43929924  0.86100872  1  0.006077  0  -0.127106  -0.232814  0  4.062427  0
C  C159  1  0.01997747  0.42747170  0.91096708  1  0.345377  0  0.06507  0.176764  0  4.033512  0
C  C160  1  0.19966024  0.59907212  0.93812518  1  0.426984  0  0.065126  0.190353  0  4.038059  0
C  C161  1  0.23893615  0.57815527  0.97024180  1  -0.040276  0  -0.127508  -0.239021  0  4.063716  0
C  C162  1  0.21441009  0.53671173  0.99679465  1  -0.013642  0  -0.124223  -0.223313  0  4.051375  0
C  C163  1  0.16108265  0.53408186  0.98000585  1  0.369966  0  0.06414  0.174426  0  4.020989  0
C  C164  1  0.08887031  0.10237956  0.44173666  1  0.396112  0  0.060168  0.180537  0  4.044812  0
C  C165  1  0.08930521  0.12791295  0.48989526  1  -0.020067  0  -0.132632  -0.244479  0  4.078347  0
C  C166  1  0.05599263  0.09701861  0.52101806  1  -0.019025  0  -0.133297  -0.242666  0  4.076977  0
C  C167  1  0.03712753  0.05426636  0.49034734  1  0.373847  0  0.067944  0.170562  0  3.905436  0
C  C168  1  0.04106600  0.83282673  0.63495008  1  0.345888  0  0.071178  0.199979  0  4.039339  0
C  C169  1  0.99067282  0.81018438  0.62561720  1  0.019771  0  -0.129875  -0.240585  0  4.062966  0
C  C170  1  0.96272489  0.84264575  0.59023309  1  0.031834  0  -0.124206  -0.226538  0  4.065194  0
C  C171  1  0.99726759  0.88368796  0.57907400  1  0.36342  0  0.066019  0.174197  0  4.033243  0
C  C172  1  0.88577068  0.85866467  0.35603786  1  0.366019  0  0.068492  0.196521  0  4.026586  0
C  C173  1  0.87657056  0.82374568  0.39430673  1  0.021376  0  -0.130569  -0.242241  0  4.073158  0
C  C174  1  0.89341271  0.85004200  0.44238928  1  -0.042493  0  -0.128417  -0.231291  0  4.063591  0
C  C175  1  0.91283284  0.89976503  0.43125057  1  0.394826  0  0.064838  0.176493  0  4.031569  0
C  C176  1  0.82253948  0.03866922  0.63318483  1  0.396681  0  0.069097  0.19592  0  4.041075  0
C  C177  1  0.79741429  0.99036047  0.62024203  1  0.011244  0  -0.129557  -0.240376  0  4.058263  0
C  C178  1  0.82923881  0.96370404  0.58350351  1  -0.003981  0  -0.124395  -0.227234  0  4.059348  0
C  C179  1  0.87220763  0.99703632  0.57527690  1  0.332101  0  0.064825  0.175213  0  4.036855  0
N  N180  1  0.24992868  0.10970945  0.21472239  1  -0.778216  0  -0.33785  -0.139585  0  3.779511  0
N  N181  1  0.25677301  0.14818053  0.17929418  1  -0.768824  0  -0.332277  -0.140951  0  3.748041  0
N  N182  1  0.16619214  0.26297492  0.18543241  1  -0.778915  0  -0.331938  -0.14148  0  3.746866  0
N  N183  1  0.14130095  0.26932634  0.23154451  1  -0.769583  0  -0.34177  -0.14216  0  3.788658  0
N  N184  1  0.13876459  0.16941169  0.33118035  1  -0.773545  0  -0.343224  -0.143686  0  3.776835  0
N  N185  1  0.15400841  0.11845771  0.31878203  1  -0.783181  0  -0.337121  -0.141755  0  3.754145  0
N  N186  1  0.70390921  0.17712347  0.84885846  1  -0.774078  0  -0.336498  -0.140005  0  3.764899  0
N  N187  1  0.72259423  0.22203039  0.87668394  1  -0.777459  0  -0.336256  -0.138931  0  3.767939  0
N  N188  1  0.85345502  0.28280596  0.84977912  1  -0.76666  0  -0.336329  -0.140092  0  3.761572  0
N  N189  1  0.87535045  0.27064442  0.80299633  1  -0.78113  0  -0.338613  -0.142074  0  3.774174  0
N  N190  1  0.82253693  0.15515354  0.72237908  1  -0.768413  0  -0.337119  -0.137824  0  3.768758  0
N  N191  1  0.77769304  0.12803477  0.73647340  1  -0.758231  0  -0.336314  -0.139755  0  3.775419  0
N  N192  1  0.28214756  0.86988743  0.79788528  1  -0.779552  0  -0.340199  -0.14163  0  3.77802  0
N  N193  1  0.29230370  0.84826203  0.84531030  1  -0.78353  0  -0.337273  -0.140608  0  3.766252  0
N  N194  1  0.22608582  0.72074395  0.87190765  1  -0.763292  0  -0.337286  -0.139268  0  3.775069  0
N  N195  1  0.18155296  0.70193897  0.84287801  1  -0.771007  0  -0.334666  -0.139814  0  3.758158  0
N  N196  1  0.13390288  0.77951497  0.73181903  1  -0.772122  0  -0.335057  -0.138158  0  3.769727  0
N  N197  1  0.16254605  0.82355110  0.71852959  1  -0.768613  0  -0.338676  -0.140131  0  3.773457  0
N  N198  1  0.76280559  0.89789446  0.10039905  1  -0.770644  0  -0.332897  -0.138599  0  3.755663  0
N  N199  1  0.77494661  0.87046301  0.05544809  1  -0.785989  0  -0.342725  -0.140537  0  3.793964  0
N  N200  1  0.86978194  0.76104228  0.05276599  1  -0.772802  0  -0.341896  -0.139737  0  3.79086  0
N  N201  1  0.88841157  0.73894866  0.09779604  1  -0.78075  0  -0.335849  -0.141032  0  3.759976  0
N  N202  1  0.86574296  0.81595104  0.21954385  1  -0.769908  0  -0.337826  -0.142155  0  3.768946  0
N  N203  1  0.84424918  0.86580474  0.21823540  1  -0.78739  0  -0.334107  -0.139518  0  3.751472  0
O  O204  1  0.39239880  0.07392462  0.10956057  1  -1.047019  0  -0.127341  -0.148017  0  2.529898  0
O  O205  1  0.57413222  0.14769286  0.94792305  1  -1.054649  0  -0.126048  -0.156337  0  2.548833  0
O  O206  1  0.39732484  0.97379441  0.90623336  1  -1.051732  0  -0.123767  -0.146635  0  2.53157  0
O  O207  1  0.62329691  0.97187477  0.03079981  1  -1.049706  0  -0.124963  -0.147974  0  2.521746  0
O  O208  1  0.08704478  0.39384800  0.11228427  1  -1.057427  0  -0.127385  -0.147739  0  2.529682  0
O  O209  1  0.96995697  0.61092937  0.02431860  1  -1.060221  0  -0.124305  -0.146486  0  2.527679  0
O  O210  1  0.98195109  0.38666747  0.90872485  1  -1.050891  0  -0.124385  -0.147086  0  2.526921  0
O  O211  1  0.15191140  0.57187825  0.94318498  1  -1.051567  0  -0.127063  -0.15645  0  2.539251  0
O  O212  1  0.05720130  0.05665356  0.44170540  1  -1.046841  0  -0.125982  -0.149114  0  2.539774  0
O  O213  1  0.04574765  0.87759945  0.60642648  1  -1.048912  0  -0.125136  -0.146113  0  2.509843  0
O  O214  1  0.90806686  0.90548466  0.37813611  1  -1.04131  0  -0.125443  -0.1477  0  2.507787  0
O  O215  1  0.86802238  0.04339265  0.60551251  1  -1.046145  0  -0.124389  -0.146611  0  2.528098  0
