# generated using pymatgen
data_Zr3H24C44(BrO8)2
_symmetry_space_group_name_H-M   'P 1'
_cell_length_a   19.14411855
_cell_length_b   19.11690648
_cell_length_c   19.11636492
_cell_angle_alpha   59.78383311
_cell_angle_beta   59.95193433
_cell_angle_gamma   59.95297563
_symmetry_Int_Tables_number   1
_chemical_formula_structural   Zr3H24C44(BrO8)2
_chemical_formula_sum   'Zr6 H48 C88 Br4 O32'
_cell_volume   4935.34277204
_cell_formula_units_Z   2
loop_
 _symmetry_equiv_pos_site_id
 _symmetry_equiv_pos_as_xyz
  1  'x, y, z'
loop_
 _atom_site_type_symbol
 _atom_site_label
 _atom_site_symmetry_multiplicity
 _atom_site_fract_x
 _atom_site_fract_y
 _atom_site_fract_z
 _atom_site_occupancy
 _atom_site_pbe_bader_charge
 _atom_site_pbe_bader_spin_density
 _atom_site_pbe_cm5_charge
 _atom_site_pbe_ddec_charge
 _atom_site_pbe_ddec_spin_density
 _atom_site_pbe_ddec_sum_bond_order
 _atom_site_pbe_magmom
Zr  Zr0  1  0.90752318  0.40694065  0.59302579  1  2.635707  0  1.624445  2.373483  0  2.753999  0
Zr  Zr1  1  0.09253173  0.59244481  0.40755404  1  2.6328  0  1.62533  2.373895  0  2.755375  0
Zr  Zr2  1  0.09250489  0.40694252  0.59302367  1  2.63942  0  1.624413  2.373404  0  2.753959  0
Zr  Zr3  1  0.90746694  0.59244343  0.40755558  1  2.632957  0  1.625354  2.373895  0  2.755378  0
Zr  Zr4  1  0.90766394  0.59211490  0.59255359  1  2.633447  0  1.626198  2.373189  0  2.759568  0
Zr  Zr5  1  0.09234908  0.40748037  0.40781739  1  2.63366  0  1.626096  2.374089  0  2.759196  0
H  H6  1  0.92715440  0.42678940  0.71889810  1  0.588294  0  0.330252  0.420549  0  0.860243  0
H  H7  1  0.92709022  0.71831764  0.42749723  1  0.609953  0  0.33035  0.420461  0  0.861127  0
H  H8  1  0.21794209  0.42712346  0.42758188  1  0.613808  0  0.331504  0.422812  0  0.857667  0
H  H9  1  0.92734846  0.42712320  0.42758245  1  0.609041  0  0.33156  0.422885  0  0.857391  0
H  H10  1  0.32036082  0.61329706  0.17768814  1  0.085349  0  0.107141  0.111345  0  0.997216  0
H  H11  1  0.45005627  0.61301527  0.05022781  1  0.019918  0  0.100516  0.097148  0  1.019707  0
H  H12  1  0.67798018  0.38811018  0.82098252  1  0.107995  0  0.107372  0.11167  0  0.996726  0
H  H13  1  0.55035597  0.38636775  0.95055377  1  0.035112  0  0.100641  0.097447  0  1.019999  0
H  H14  1  0.67833575  0.61280780  0.82008901  1  0.089022  0  0.108025  0.112273  0  0.993877  0
H  H15  1  0.55069514  0.61283829  0.94970508  1  0.025914  0  0.100839  0.097615  0  1.018532  0
H  H16  1  0.32010973  0.38861438  0.17844174  1  0.112118  0  0.108139  0.112542  0  0.993574  0
H  H17  1  0.44981629  0.38657636  0.05093861  1  0.043577  0  0.100738  0.09769  0  1.018376  0
H  H18  1  0.11285838  0.82079321  0.38825052  1  0.079576  0  0.107243  0.111403  0  0.996804  0
H  H19  1  0.11267084  0.95039511  0.38639463  1  0.066387  0  0.100645  0.097146  0  1.019726  0
H  H20  1  0.88862247  0.17749952  0.61342467  1  0.111082  0  0.107303  0.111424  0  0.997227  0
H  H21  1  0.88665659  0.05010369  0.61303290  1  0.062236  0  0.100609  0.097565  0  1.019863  0
H  H22  1  0.11278565  0.17835554  0.38871655  1  0.110006  0  0.108194  0.112619  0  0.993794  0
H  H23  1  0.11263216  0.05088312  0.38657698  1  0.065527  0  0.100898  0.097876  0  1.018113  0
H  H24  1  0.88867775  0.82001920  0.61295808  1  0.077848  0  0.108038  0.112139  0  0.99393  0
H  H25  1  0.88671519  0.94965658  0.61286459  1  0.073418  0  0.100753  0.097788  0  1.018697  0
H  H26  1  0.32013891  0.17835344  0.38871925  1  0.113135  0  0.108227  0.112666  0  0.993898  0
H  H27  1  0.44990423  0.05088332  0.38657774  1  0.044862  0  0.100855  0.097834  0  1.018137  0
H  H28  1  0.67834381  0.82001908  0.61295768  1  0.086536  0  0.108011  0.112068  0  0.993907  0
H  H29  1  0.55076116  0.94965705  0.61286364  1  0.025777  0  0.100737  0.097738  0  1.018701  0
H  H30  1  0.67809245  0.82079218  0.38825010  1  0.108645  0  0.107222  0.111379  0  0.996753  0
H  H31  1  0.55053305  0.95039696  0.38639470  1  0.033461  0  0.100623  0.097134  0  1.019675  0
H  H32  1  0.32044976  0.17750067  0.61342332  1  0.085512  0  0.1073  0.111407  0  0.997292  0
H  H33  1  0.45020364  0.05010597  0.61303201  1  0.017762  0  0.100621  0.097573  0  1.019847  0
H  H34  1  0.88876321  0.61280846  0.82008939  1  0.079477  0  0.107998  0.112227  0  0.993897  0
H  H35  1  0.88675823  0.61283823  0.94970468  1  0.07045  0  0.100829  0.097588  0  1.018478  0
H  H36  1  0.11282945  0.38861424  0.17844186  1  0.108314  0  0.108172  0.112563  0  0.993612  0
H  H37  1  0.11266344  0.38657734  0.05093835  1  0.065176  0  0.100743  0.097728  0  1.018438  0
H  H38  1  0.88865031  0.61329778  0.17768728  1  0.109474  0  0.107169  0.111379  0  0.997279  0
H  H39  1  0.88669724  0.61301716  0.05022525  1  0.064064  0  0.100512  0.097172  0  1.019546  0
H  H40  1  0.11292330  0.38811291  0.82098191  1  0.076903  0  0.107391  0.111688  0  0.996772  0
H  H41  1  0.11271983  0.38637051  0.95055140  1  0.0643  0  0.100656  0.097498  0  1.020038  0
H  H42  1  0.11256781  0.82010866  0.17829135  1  0.113575  0  0.09888  0.111178  0  1.046893  0
H  H43  1  0.88902651  0.82010835  0.17829184  1  0.138262  0  0.098847  0.111154  0  1.046944  0
H  H44  1  0.88896498  0.17723116  0.82123367  1  0.124097  0  0.098477  0.110735  0  1.047473  0
H  H45  1  0.11256211  0.17723193  0.82123510  1  0.103619  0  0.098496  0.110794  0  1.047547  0
H  H46  1  0.32049213  0.38813273  0.61340458  1  0.071005  0  0.107912  0.112447  0  0.994061  0
H  H47  1  0.45006350  0.38623439  0.61314873  1  0.063119  0  0.100278  0.096559  0  1.020537  0
H  H48  1  0.67808252  0.61311644  0.38843422  1  0.108664  0  0.107875  0.112198  0  0.994837  0
H  H49  1  0.55065891  0.61303246  0.38637009  1  0.060708  0  0.10015  0.096667  0  1.019891  0
H  H50  1  0.67796657  0.38813592  0.61340199  1  0.105215  0  0.10793  0.112491  0  0.994064  0
H  H51  1  0.55054935  0.38623728  0.61314809  1  0.058382  0  0.10028  0.096578  0  1.020531  0
H  H52  1  0.32036249  0.61311527  0.38843535  1  0.075098  0  0.107888  0.112217  0  0.994757  0
H  H53  1  0.44993277  0.61303269  0.38637248  1  0.065162  0  0.100179  0.096678  0  1.019863  0
C  C54  1  0.76316581  0.50140014  0.73340145  1  1.526843  0  0.234832  0.638892  0  4.106985  0
C  C55  1  0.00199566  0.73310086  0.50173659  1  1.547957  0  0.234056  0.637832  0  4.105076  0
C  C56  1  0.23291333  0.50219151  0.26295906  1  1.528408  0  0.234533  0.638049  0  4.105805  0
C  C57  1  0.00198032  0.26265008  0.50247551  1  1.555145  0  0.234778  0.639199  0  4.104975  0
C  C58  1  0.00187758  0.26146503  0.73477401  1  1.552206  0  0.237866  0.640822  0  4.094666  0
C  C59  1  0.76297911  0.50172092  0.50217419  1  1.546072  0  0.235081  0.63863  0  4.104934  0
C  C60  1  0.00192376  0.73386719  0.26228012  1  1.591794  0  0.237633  0.641224  0  4.09532  0
C  C61  1  0.23312266  0.50172060  0.50217590  1  1.548152  0  0.235023  0.638627  0  4.104965  0
C  C62  1  0.00203094  0.50139948  0.73340011  1  1.550199  0  0.234775  0.638839  0  4.106765  0
C  C63  1  0.23288828  0.26264874  0.50247706  1  1.532599  0  0.234695  0.639082  0  4.105077  0
C  C64  1  0.00193027  0.50219088  0.26295970  1  1.542762  0  0.234694  0.638171  0  4.105579  0
C  C65  1  0.76316265  0.73310126  0.50173486  1  1.525972  0  0.234095  0.637949  0  4.105056  0
C  C66  1  0.31160757  0.50134522  0.18592760  1  0.03508  0  -0.019218  -0.045353  0  3.978541  0
C  C67  1  0.68598586  0.50083402  0.81192725  1  -0.03888  0  -0.020135  -0.046192  0  3.979552  0
C  C68  1  0.34946440  0.56397209  0.14904495  1  -0.062291  0  -0.081611  -0.083736  0  3.98776  0
C  C69  1  0.42277824  0.56306816  0.07708758  1  -0.041771  0  -0.089613  -0.130601  0  3.980769  0
C  C70  1  0.64916889  0.43716727  0.84989495  1  0.000743  0  -0.081355  -0.083444  0  3.987622  0
C  C71  1  0.57711139  0.43685105  0.92310782  1  -0.060616  0  -0.089384  -0.130708  0  3.981135  0
C  C72  1  0.64939111  0.56357775  0.84940065  1  -0.035599  0  -0.081235  -0.083276  0  3.987179  0
C  C73  1  0.57734968  0.56288685  0.92262274  1  -0.032693  0  -0.08972  -0.130829  0  3.980272  0
C  C74  1  0.34929402  0.43758337  0.14945988  1  -0.05383  0  -0.081596  -0.083616  0  3.987893  0
C  C75  1  0.42258453  0.43706360  0.07749618  1  -0.057209  0  -0.089651  -0.13123  0  3.981596  0
C  C76  1  0.46129985  0.49988491  0.03898893  1  0.069157  0  6e-06  0.075321  0  3.976764  0
C  C77  1  0.53889895  0.49978235  0.96144672  1  -0.001569  0  -0.000411  0.074594  0  3.975923  0
C  C78  1  0.00119418  0.81172889  0.50101724  1  0.057147  0  -0.019327  -0.045597  0  3.9782  0
C  C79  1  0.00110155  0.18574092  0.50149030  1  -0.00026  0  -0.019814  -0.046882  0  3.980696  0
C  C80  1  0.06369919  0.84972492  0.43729886  1  -0.065057  0  -0.081488  -0.083314  0  3.98688  0
C  C81  1  0.06286065  0.92298140  0.43690851  1  -0.024669  0  -0.089518  -0.130495  0  3.981023  0
C  C82  1  0.93748073  0.14888576  0.56407142  1  -0.067164  0  -0.081626  -0.082901  0  3.987991  0
C  C83  1  0.93701825  0.07697032  0.56311153  1  -0.019813  0  -0.089438  -0.131456  0  3.980736  0
C  C84  1  0.06362419  0.14935115  0.43766119  1  -0.072917  0  -0.081589  -0.083672  0  3.987966  0
C  C85  1  0.06281424  0.07741762  0.43708551  1  -0.009995  0  -0.089526  -0.130973  0  3.980295  0
C  C86  1  0.93756563  0.84929464  0.56369160  1  -0.067304  0  -0.081354  -0.083001  0  3.987407  0
C  C87  1  0.93709008  0.92255018  0.56293079  1  -0.023859  0  -0.089919  -0.131864  0  3.981705  0
C  C88  1  0.99982581  0.96135900  0.49981343  1  -0.027336  0  -0.000515  0.074687  0  3.976472  0
C  C89  1  0.99978422  0.03890617  0.49990648  1  -0.094974  0  -4.7e-05  0.075778  0  3.974967  0
C  C90  1  0.31166263  0.18574013  0.50149091  1  0.020262  0  -0.019871  -0.047069  0  3.980857  0
C  C91  1  0.68605782  0.81173023  0.50101558  1  0.00199  0  -0.01932  -0.045686  0  3.97832  0
C  C92  1  0.34935744  0.14935101  0.43766221  1  -0.050709  0  -0.081598  -0.083656  0  3.988026  0
C  C93  1  0.42267825  0.07741694  0.43708605  1  -0.05619  0  -0.089478  -0.130891  0  3.980248  0
C  C94  1  0.64944517  0.84929472  0.56369031  1  -0.038174  0  -0.081384  -0.083018  0  3.98747  0
C  C95  1  0.57742641  0.92254957  0.56293207  1  -0.032111  0  -0.089927  -0.131774  0  3.981483  0
C  C96  1  0.64927133  0.84972466  0.43729852  1  -0.043818  0  -0.081531  -0.083341  0  3.986812  0
C  C97  1  0.57724534  0.92297997  0.43690925  1  -0.054322  0  -0.089425  -0.130402  0  3.980989  0
C  C98  1  0.34955733  0.14888639  0.56407157  1  -0.04539  0  -0.081608  -0.082745  0  3.987943  0
C  C99  1  0.42289657  0.07697046  0.56311137  1  -0.04415  0  -0.089444  -0.131497  0  3.980666  0
C  C100  1  0.46140030  0.03890632  0.49990603  1  0.001273  0  -6.3e-05  0.075702  0  3.97507  0
C  C101  1  0.53900112  0.96135730  0.49981250  1  0.064796  0  -0.000501  0.074731  0  3.976383  0
C  C102  1  0.00125173  0.50083475  0.81192593  1  -0.025079  0  -0.020061  -0.046051  0  3.979518  0
C  C103  1  0.00111389  0.50134551  0.18592788  1  0.00184  0  -0.01929  -0.045374  0  3.978458  0
C  C104  1  0.93762910  0.56357715  0.84940073  1  -0.072157  0  -0.081245  -0.083308  0  3.987324  0
C  C105  1  0.93714054  0.56288719  0.92262249  1  -0.018658  0  -0.089712  -0.1308  0  3.980303  0
C  C106  1  0.06365800  0.43758253  0.14946177  1  -0.072919  0  -0.081525  -0.083504  0  3.987802  0
C  C107  1  0.06285208  0.43706316  0.07749571  1  -0.007045  0  -0.089715  -0.131384  0  3.981546  0
C  C108  1  0.93751351  0.56397285  0.14904502  1  -0.069508  0  -0.081688  -0.083839  0  3.987708  0
C  C109  1  0.93706080  0.56306908  0.07708637  1  -0.018396  0  -0.08959  -0.130632  0  3.980455  0
C  C110  1  0.06376714  0.43716868  0.84989329  1  0.024545  0  -0.081355  -0.083497  0  3.987573  0
C  C111  1  0.06292787  0.43685098  0.92310830  1  -0.024873  0  -0.089408  -0.130756  0  3.981114  0
C  C112  1  0.99986946  0.49978256  0.96144471  1  -0.090463  0  -0.000422  0.074599  0  3.975991  0
C  C113  1  0.99982230  0.49988540  0.03898839  1  -0.03739  0  3.8e-05  0.075378  0  3.976612  0
C  C114  1  0.06396366  0.85001336  0.14867333  1  -0.00576  0  -0.081221  -0.124641  0  3.921462  0
C  C115  1  0.06475907  0.92408042  0.07577164  1  0.024473  0  -0.009056  0.043279  0  4.010245  0
C  C116  1  0.12900246  0.96366794  0.03663439  1  -0.018355  0  -0.021297  0.013155  0  3.941079  0
C  C117  1  0.93734464  0.85001166  0.14867252  1  -0.054414  0  -0.081137  -0.12456  0  3.921559  0
C  C118  1  0.93538390  0.92407852  0.07577239  1  0.024111  0  -0.009104  0.043196  0  4.010433  0
C  C119  1  0.87069185  0.96366614  0.03663142  1  -0.017169  0  -0.021221  0.013205  0  3.941077  0
C  C120  1  0.93734681  0.14769615  0.85104160  1  0.013045  0  -0.081774  -0.126129  0  3.921836  0
C  C121  1  0.93539139  0.07476434  0.92511510  1  0.016334  0  -0.009011  0.044116  0  4.009629  0
C  C122  1  0.87071072  0.03565329  0.96462922  1  -0.077281  0  -0.021358  0.012696  0  3.941971  0
C  C123  1  0.06391048  0.14769576  0.85104357  1  0.044187  0  -0.081804  -0.126201  0  3.9219  0
C  C124  1  0.06472155  0.07476406  0.92511610  1  0.006023  0  -0.008913  0.044114  0  4.009657  0
C  C125  1  0.12900071  0.03565537  0.96463014  1  -0.081489  0  -0.021293  0.012814  0  3.94186  0
C  C126  1  0.00117847  0.81325857  0.18437863  1  -0.010244  0  -0.013575  -0.020148  0  3.975342  0
C  C127  1  0.99994946  0.96223305  0.03786236  1  -0.007912  0  0.006785  0.016693  0  3.909809  0
C  C128  1  0.00111837  0.18350597  0.81425122  1  -0.02496  0  -0.01245  -0.017803  0  3.972788  0
C  C129  1  0.99993698  0.03681370  0.96330503  1  -0.025655  0  0.007139  0.016135  0  3.909796  0
C  C130  1  0.31174234  0.50100378  0.50131580  1  0.024598  0  -0.01931  -0.045074  0  3.977297  0
C  C131  1  0.68593676  0.50100328  0.50131424  1  0.003136  0  -0.019319  -0.045078  0  3.977443  0
C  C132  1  0.34959690  0.43720599  0.56401645  1  -0.062601  0  -0.081517  -0.083973  0  3.988051  0
C  C133  1  0.42280250  0.43678946  0.56314711  1  -0.023341  0  -0.089732  -0.13075  0  3.98239  0
C  C134  1  0.64923930  0.56377285  0.43747462  1  -0.068382  0  -0.081478  -0.083282  0  3.987894  0
C  C135  1  0.57731535  0.56300361  0.43696279  1  -0.014788  0  -0.089316  -0.130922  0  3.981642  0
C  C136  1  0.64917945  0.43720967  0.56401366  1  -0.061894  0  -0.081581  -0.084092  0  3.988186  0
C  C137  1  0.57725891  0.43679025  0.56314669  1  -0.016764  0  -0.089693  -0.130699  0  3.982293  0
C  C138  1  0.34951079  0.56376946  0.43747786  1  -0.02823  0  -0.081483  -0.083295  0  3.98778  0
C  C139  1  0.42271605  0.56300096  0.43696595  1  -0.019742  0  -0.089315  -0.130888  0  3.98156  0
C  C140  1  0.46140973  0.49976769  0.49988429  1  -0.082339  0  -0.000491  0.074836  0  3.975741  0
C  C141  1  0.53893958  0.49976886  0.49988329  1  -0.031658  0  -0.000432  0.074954  0  3.975713  0
Br  Br142  1  0.21424217  0.08654948  0.91378727  1  -0.040108  0  0.03023  -0.050874  0  1.460939  0
Br  Br143  1  0.21428859  0.91290402  0.08744019  1  -0.035921  0  0.030003  -0.051299  0  1.460933  0
Br  Br144  1  0.78541676  0.08654877  0.91378609  1  -0.040653  0  0.030278  -0.050794  0  1.460916  0
Br  Br145  1  0.78536542  0.91289957  0.08743621  1  -0.035846  0  0.029985  -0.051307  0  1.460891  0
O  O146  1  0.79390109  0.44168924  0.70306930  1  -1.177923  0  -0.35771  -0.622134  0  2.282616  0
O  O147  1  0.06136280  0.70263803  0.44212732  1  -1.183263  0  -0.357534  -0.621967  0  2.281341  0
O  O148  1  0.20219852  0.56176017  0.29348849  1  -1.179006  0  -0.358198  -0.622623  0  2.281442  0
O  O149  1  0.94270852  0.29298935  0.56220546  1  -1.183766  0  -0.358107  -0.622931  0  2.281337  0
O  O150  1  0.06124478  0.29190006  0.70443551  1  -1.176835  0  -0.350702  -0.609946  0  2.273037  0
O  O151  1  0.79366841  0.56136611  0.44248354  1  -1.183855  0  -0.357442  -0.622268  0  2.280765  0
O  O152  1  0.94244588  0.70357459  0.29268771  1  -1.182703  0  -0.350785  -0.609645  0  2.276493  0
O  O153  1  0.20256260  0.44197043  0.56181731  1  -1.185526  0  -0.356929  -0.622006  0  2.280461  0
O  O154  1  0.94255955  0.56087297  0.70258338  1  -1.181013  0  -0.357892  -0.622459  0  2.284277  0
O  O155  1  0.20226182  0.29356214  0.44284643  1  -1.176516  0  -0.357572  -0.621778  0  2.28384  0
O  O156  1  0.06131223  0.44257416  0.29383543  1  -1.181597  0  -0.357565  -0.621851  0  2.283086  0
O  O157  1  0.79394888  0.70229908  0.56123140  1  -1.177642  0  -0.357558  -0.622256  0  2.282683  0
O  O158  1  0.20209265  0.29298756  0.56220688  1  -1.178138  0  -0.358024  -0.622813  0  2.281315  0
O  O159  1  0.94254861  0.56175838  0.29348902  1  -1.182687  0  -0.358249  -0.622681  0  2.281344  0
O  O160  1  0.79386808  0.70263823  0.44212669  1  -1.178045  0  -0.357564  -0.621983  0  2.281406  0
O  O161  1  0.06133647  0.44168821  0.70307060  1  -1.183081  0  -0.357709  -0.622154  0  2.282702  0
O  O162  1  0.94241262  0.29190009  0.70443314  1  -1.175586  0  -0.350635  -0.609932  0  2.272623  0
O  O163  1  0.20247870  0.56136723  0.44248294  1  -1.182207  0  -0.357459  -0.622313  0  2.280639  0
O  O164  1  0.06129006  0.70357194  0.29269027  1  -1.183882  0  -0.35081  -0.609657  0  2.276249  0
O  O165  1  0.79364752  0.44196898  0.56181874  1  -1.185798  0  -0.356982  -0.622034  0  2.280358  0
O  O166  1  0.06132409  0.29356153  0.44284784  1  -1.190672  0  -0.357599  -0.621865  0  2.283822  0
O  O167  1  0.79398218  0.56086846  0.70258649  1  -1.172812  0  -0.35795  -0.622506  0  2.284645  0
O  O168  1  0.94251605  0.70229860  0.56123067  1  -1.185012  0  -0.357528  -0.622201  0  2.28279  0
O  O169  1  0.20227296  0.44257479  0.29383467  1  -1.176663  0  -0.357508  -0.621806  0  2.283223  0
O  O170  1  0.94793234  0.44780542  0.44831516  1  -1.238404  0  -0.695936  -1.067305  0  2.366729  0
O  O171  1  0.15594278  0.44780756  0.44831376  1  -1.243884  0  -0.695924  -1.067345  0  2.367087  0
O  O172  1  0.94813553  0.65613798  0.44758741  1  -1.24116  0  -0.69495  -1.067289  0  2.367648  0
O  O173  1  0.94814878  0.44698630  0.65671080  1  -1.219357  0  -0.694455  -1.067044  0  2.364934  0
O  O174  1  0.03848028  0.53800451  0.53858253  1  -1.198127  0  -0.791275  -1.147435  0  2.127069  0
O  O175  1  0.88492849  0.53800258  0.53858507  1  -1.198098  0  -0.791271  -1.147469  0  2.127085  0
O  O176  1  0.03831246  0.53865525  0.38471794  1  -1.193471  0  -0.790434  -1.149957  0  2.12321  0
O  O177  1  0.03831018  0.38423027  0.53914285  1  -1.194386  0  -0.789995  -1.149167  0  2.1221  0
