# generated using pymatgen
data_Cu3H34C44(NO3)4
_symmetry_space_group_name_H-M   'P 1'
_cell_length_a   8.76738537
_cell_length_b   10.06573042
_cell_length_c   11.83433461
_cell_angle_alpha   89.60453681
_cell_angle_beta   68.78468756
_cell_angle_gamma   86.15223179
_symmetry_Int_Tables_number   1
_chemical_formula_structural   Cu3H34C44(NO3)4
_chemical_formula_sum   'Cu3 H34 C44 N4 O12'
_cell_volume   971.23665020
_cell_formula_units_Z   1
loop_
 _symmetry_equiv_pos_site_id
 _symmetry_equiv_pos_as_xyz
  1  'x, y, z'
loop_
 _atom_site_type_symbol
 _atom_site_label
 _atom_site_symmetry_multiplicity
 _atom_site_fract_x
 _atom_site_fract_y
 _atom_site_fract_z
 _atom_site_occupancy
 _atom_site_pbe_cm5_charge
 _atom_site_pbe_ddec_charge
 _atom_site_pbe_ddec_spin_density
 _atom_site_pbe_ddec_sum_bond_order
 _atom_site_pbe_magmom
Cu  Cu0  1  0.49999886  0.49999859  0.50000093  1  0.702122  0.906632  0.740711  2.102898  0.556
Cu  Cu1  1  0.62458279  0.23933755  0.23889049  1  0.757529  0.810006  -0.730402  2.289309  -0.561
Cu  Cu2  1  0.37542615  0.76065657  0.76110930  1  0.757562  0.810121  -0.730398  2.289137  -0.561
H  H3  1  0.18078515  0.44484952  0.89552033  1  0.091667  0.133812  8.8e-05  1.029741  0.0
H  H4  1  0.81921718  0.55515069  0.10448618  1  0.091651  0.133825  8.8e-05  1.029785  0.0
H  H5  1  0.15827317  0.27687999  0.86342409  1  0.09137  0.135427  -0.000146  0.991243  0.0
H  H6  1  0.84172670  0.72312118  0.13657798  1  0.091365  0.13541  -0.000146  0.991278  0.0
H  H7  1  0.03113516  0.35168618  0.00294867  1  0.093603  0.138486  3.5e-05  1.012965  0.0
H  H8  1  0.96886594  0.64831497  0.99705309  1  0.093594  0.138499  3.5e-05  1.01297  0.0
H  H9  1  0.08928516  0.63773807  0.54525714  1  0.088518  0.129781  -9.1e-05  1.04045  0.0
H  H10  1  0.91071683  0.36226709  0.45474770  1  0.088553  0.129821  -9.1e-05  1.040409  0.0
H  H11  1  0.90430579  0.73736371  0.61943655  1  0.086299  0.123143  1.2e-05  1.018967  0.0
H  H12  1  0.09569515  0.26263853  0.38057198  1  0.086281  0.123151  1.2e-05  1.018888  0.0
H  H13  1  0.91022674  0.61103096  0.51532774  1  0.093244  0.137867  -7.2e-05  1.022525  0.0
H  H14  1  0.08977354  0.38898026  0.48468253  1  0.093239  0.137823  -7.2e-05  1.022439  0.0
H  H15  1  0.44743696  0.42298301  0.95253959  1  0.094121  0.143602  -0.00028  1.020305  0.0
H  H16  1  0.55256287  0.57701820  0.04746588  1  0.094131  0.143629  -0.00028  1.020235  0.0
H  H17  1  0.52777292  0.25547939  0.91553750  1  0.085269  0.119247  -7.5e-05  1.032245  0.0
H  H18  1  0.47222963  0.74451783  0.08446815  1  0.085292  0.119315  -7.5e-05  1.032159  0.0
H  H19  1  0.47368042  0.35562710  0.80938474  1  0.090389  0.132322  6.3e-05  1.028864  0.0
H  H20  1  0.52631631  0.64436617  0.19062166  1  0.090381  0.132305  6.3e-05  1.028939  0.0
H  H21  1  0.36218687  0.26824931  0.12788727  1  0.125961  0.098687  -0.001515  1.00616  -0.002
H  H22  1  0.63781415  0.73176976  0.87211423  1  0.126026  0.09872  -0.001516  1.006125  -0.002
H  H23  1  0.14278261  0.12332221  0.11713984  1  0.12387  0.140828  -0.000692  0.960255  -0.001
H  H24  1  0.85720297  0.87670698  0.88286811  1  0.123879  0.140873  -0.000692  0.960349  -0.001
H  H25  1  0.12363138  0.89903556  0.21177775  1  0.112196  0.114605  -5e-05  1.003534  0.0
H  H26  1  0.87635475  0.10098752  0.78822001  1  0.112181  0.114635  -5e-05  1.003388  0.0
H  H27  1  0.31638081  0.82827454  0.31743298  1  0.113122  0.12797  -0.000607  1.010633  -0.001
H  H28  1  0.68360526  0.17173350  0.68255657  1  0.113129  0.128015  -0.000607  1.010553  -0.001
H  H29  1  0.52697634  0.77007318  0.36714254  1  0.11365  0.129651  -0.000697  1.036685  -0.001
H  H30  1  0.47301266  0.22992790  0.63284887  1  0.113639  0.129586  -0.000697  1.036805  -0.001
H  H31  1  0.74181703  0.74027120  0.45601351  1  0.111751  0.119687  -1.1e-05  1.03277  0.0
H  H32  1  0.25816073  0.25971605  0.54398193  1  0.111713  0.119633  -1.1e-05  1.032799  0.0
H  H33  1  0.90588887  0.93497232  0.46335584  1  0.10708  0.108214  -0.000517  1.005486  -0.001
H  H34  1  0.09410190  0.06500299  0.53664480  1  0.107068  0.108152  -0.000517  1.005546  -0.001
H  H35  1  0.84352528  0.15323719  0.37712924  1  0.120799  0.096244  -0.001197  1.018922  -0.002
H  H36  1  0.15648085  0.84674501  0.62287147  1  0.120786  0.096303  -0.001196  1.018894  -0.002
C  C37  1  0.75623557  0.28889274  0.00364618  1  0.193835  0.571218  -0.000181  4.229187  0.003
C  C38  1  0.24377552  0.71110535  0.99635384  1  0.193801  0.571134  -0.000181  4.229454  0.003
C  C39  1  0.80861315  0.37123713  0.89083753  1  -0.018946  -0.148915  -0.006357  3.917118  -0.007
C  C40  1  0.19139679  0.62875998  0.10916280  1  -0.018939  -0.148768  -0.006357  3.917144  -0.007
C  C41  1  0.96853549  0.41470896  0.84861545  1  -0.001648  0.135759  -0.001845  3.956094  -0.002
C  C42  1  0.03147073  0.58528915  0.15138416  1  -0.001644  0.135642  -0.001843  3.956156  -0.002
C  C43  1  0.09075366  0.37065838  0.90606816  1  -0.243735  -0.412606  6.2e-05  3.932393  0.0
C  C44  1  0.90925101  0.62934376  0.09393432  1  -0.243722  -0.412621  6.2e-05  3.93243  0.0
C  C45  1  0.01194035  0.50140102  0.75022107  1  -0.022147  -0.159066  0.00121  3.932596  0.001
C  C46  1  0.98806577  0.49859811  0.24978024  1  -0.0221  -0.158809  0.001211  3.932464  0.001
C  C47  1  0.18107549  0.55164211  0.70372579  1  0.228508  0.628408  -0.001824  4.150619  -0.003
C  C48  1  0.81893206  0.44835404  0.29627688  1  0.228419  0.628212  -0.001825  4.150717  -0.003
C  C49  1  0.90490503  0.53974667  0.69008554  1  -0.006838  0.126278  -0.00044  3.963866  0.0
C  C50  1  0.09509609  0.46025354  0.30992044  1  -0.00686  0.126123  -0.000438  3.964061  0.0
C  C51  1  0.95556769  0.63587494  0.58695678  1  -0.247996  -0.41611  -6.4e-05  3.941404  0.0
C  C52  1  0.04443418  0.36413128  0.41305230  1  -0.248021  -0.416082  -6.5e-05  3.941253  0.0
C  C53  1  0.75107326  0.48452163  0.72840639  1  -0.021663  -0.155354  0.005122  3.919291  0.005
C  C54  1  0.24892318  0.51547564  0.27160088  1  -0.021537  -0.155174  0.005122  3.919535  0.005
C  C55  1  0.64848607  0.51171610  0.65255931  1  0.207244  0.610559  -5.6e-05  4.155035  -0.002
C  C56  1  0.35151432  0.48827807  0.34744104  1  0.207162  0.610429  -5.6e-05  4.155577  -0.002
C  C57  1  0.69878175  0.40359143  0.83106332  1  -0.005638  0.130484  -0.000142  3.955924  0.0
C  C58  1  0.30122707  0.59640375  0.16894157  1  -0.005675  0.130452  -0.000141  3.955912  0.0
C  C59  1  0.52817399  0.35605247  0.87922824  1  -0.248923  -0.424397  -0.000209  3.954578  0.0
C  C60  1  0.47182722  0.64394673  0.12077605  1  -0.248952  -0.424518  -0.000208  3.954565  0.0
C  C61  1  0.34822341  0.16907437  0.16615833  1  0.060461  0.109474  0.000499  3.912548  0.002
C  C62  1  0.65178149  0.83094259  0.83383627  1  0.060391  0.109424  0.000499  3.91287  0.002
C  C63  1  0.22658118  0.08904114  0.16207696  1  -0.067637  -0.107779  -0.004732  3.90491  -0.006
C  C64  1  0.77341369  0.91097892  0.83792192  1  -0.067758  -0.10799  -0.004731  3.90536  -0.006
C  C65  1  0.21512115  0.96461320  0.21632301  1  -0.060521  -0.017338  0.002884  3.948377  0.003
C  C66  1  0.78486640  0.03540779  0.78366849  1  -0.060422  -0.017198  0.002884  3.948076  0.003
C  C67  1  0.32421904  0.92430935  0.27328085  1  -0.075116  -0.157243  -0.003097  3.926949  -0.003
C  C68  1  0.67577201  0.07569763  0.72670656  1  -0.075106  -0.157279  -0.003096  3.926899  -0.003
C  C69  1  0.44572736  0.00839862  0.27154877  1  0.121414  0.163978  -0.00113  3.991455  -0.001
C  C70  1  0.55427269  0.99160141  0.72844313  1  0.121342  0.163693  -0.00113  3.991698  -0.001
C  C71  1  0.56960938  0.97781971  0.32691634  1  0.120695  0.167863  -0.000775  3.984421  -0.001
C  C72  1  0.43038488  0.02217634  0.67307377  1  0.12066  0.167869  -0.000776  3.984458  -0.001
C  C73  1  0.59814661  0.85344709  0.37117468  1  -0.069793  -0.138893  -0.002124  3.881765  -0.002
C  C74  1  0.40184390  0.14654999  0.62881640  1  -0.069607  -0.138562  -0.002125  3.881581  -0.002
C  C75  1  0.72024463  0.83670744  0.42061372  1  -0.057226  -0.00207  0.002919  3.902124  0.003
C  C76  1  0.27975023  0.16328060  0.57937297  1  -0.057238  -0.002131  0.002919  3.902043  0.003
C  C77  1  0.81024157  0.94431312  0.42483954  1  -0.080647  -0.129337  -0.003431  3.973134  -0.004
C  C78  1  0.18976262  0.05566396  0.57514909  1  -0.0807  -0.129386  -0.003431  3.973343  -0.004
C  C79  1  0.77663632  0.06549876  0.37828893  1  0.053404  0.1028  0.000823  3.936721  0.002
C  C80  1  0.22336244  0.93448444  0.62170949  1  0.05342  0.102822  0.000823  3.936888  0.002
N  N81  1  0.45547410  0.12838662  0.21821599  1  -0.336561  -0.250096  -0.068682  3.595788  -0.088
N  N82  1  0.54453068  0.87161540  0.78177717  1  -0.336569  -0.249957  -0.068673  3.596038  -0.088
N  N83  1  0.65944602  0.08139189  0.33070713  1  -0.3445  -0.27712  -0.050007  3.612748  -0.064
N  N84  1  0.34055449  0.91860123  0.66928899  1  -0.344445  -0.277117  -0.050008  3.61274  -0.064
O  O85  1  0.64728670  0.35114754  0.09745802  1  -0.325615  -0.527591  -0.073018  2.287938  -0.101
O  O86  1  0.35273377  0.64885552  0.90254452  1  -0.325539  -0.527568  -0.073023  2.288085  -0.101
O  O87  1  0.81772361  0.17378111  0.00469563  1  -0.325367  -0.555535  -0.000692  2.09194  -0.002
O  O88  1  0.18228375  0.82621798  0.99530366  1  -0.325439  -0.555579  -0.000693  2.091944  -0.002
O  O89  1  0.29256381  0.47108229  0.63355736  1  -0.311462  -0.542121  0.050152  2.394019  0.067
O  O90  1  0.70743284  0.52891291  0.36644397  1  -0.311504  -0.542115  0.050147  2.393947  0.067
O  O91  1  0.19475516  0.66878208  0.73677059  1  -0.315467  -0.548467  -0.043483  2.386925  -0.059
O  O92  1  0.80525503  0.33120926  0.26324582  1  -0.315413  -0.548417  -0.043476  2.386843  -0.059
O  O93  1  0.59857456  0.62883080  0.63818878  1  -0.326473  -0.617532  0.000182  2.35926  0.0
O  O94  1  0.40142814  0.37116534  0.36181094  1  -0.326389  -0.617383  0.000182  2.359299  0.0
O  O95  1  0.62345686  0.41067704  0.59612523  1  -0.323144  -0.552218  0.064223  2.276899  0.086
O  O96  1  0.37654101  0.58931815  0.40387577  1  -0.323144  -0.552206  0.064227  2.277044  0.086
