# generated using pymatgen
data_Zn4H8C24S4O13
_symmetry_space_group_name_H-M   'P 1'
_cell_length_a   19.65350836
_cell_length_b   19.66211546
_cell_length_c   33.33657278
_cell_angle_alpha   79.28813208
_cell_angle_beta   79.31504055
_cell_angle_gamma   64.02543736
_symmetry_Int_Tables_number   1
_chemical_formula_structural   Zn4H8C24S4O13
_chemical_formula_sum   'Zn16 H32 C96 S16 O52'
_cell_volume   11300.02846651
_cell_formula_units_Z   4
loop_
 _symmetry_equiv_pos_site_id
 _symmetry_equiv_pos_as_xyz
  1  'x, y, z'
loop_
 _atom_site_type_symbol
 _atom_site_label
 _atom_site_symmetry_multiplicity
 _atom_site_fract_x
 _atom_site_fract_y
 _atom_site_fract_z
 _atom_site_occupancy
 _atom_site_pbe_bader_charge
 _atom_site_pbe_bader_spin_density
 _atom_site_pbe_cm5_charge
 _atom_site_pbe_ddec_charge
 _atom_site_pbe_ddec_spin_density
 _atom_site_pbe_ddec_sum_bond_order
 _atom_site_pbe_magmom
Zn  Zn0  1  0.05559090  0.40095193  0.47827580  1  1.315117  0  0.671382  0.968172  0  2.368844  0
Zn  Zn1  1  0.98327717  0.48318655  0.56023975  1  1.313097  0  0.670509  0.961367  0  2.376966  0
Zn  Zn2  1  0.06017631  0.56044017  0.48310853  1  1.317447  0  0.67084  0.965317  0  2.37162  0
Zn  Zn3  1  0.90102210  0.55527728  0.47834381  1  1.314266  0  0.671085  0.964786  0  2.372701  0
Zn  Zn4  1  0.69434165  0.34908621  0.27170722  1  1.314072  0  0.671359  0.968391  0  2.367486  0
Zn  Zn5  1  0.68977398  0.18957773  0.26685796  1  1.317196  0  0.670956  0.965283  0  2.370572  0
Zn  Zn6  1  0.76695633  0.26675218  0.18966959  1  1.313647  0  0.670916  0.965168  0  2.371759  0
Zn  Zn7  1  0.84873289  0.19477119  0.27173872  1  1.313771  0  0.670506  0.9616  0  2.375722  0
Zn  Zn8  1  0.26674084  0.76681765  0.68975669  1  1.3129  0  0.67035  0.961339  0  2.37653  0
Zn  Zn9  1  0.34897369  0.69468538  0.77167481  1  1.314126  0  0.670946  0.964958  0  2.371364  0
Zn  Zn10  1  0.19437078  0.84904626  0.77174725  1  1.314577  0  0.671252  0.968195  0  2.367765  0
Zn  Zn11  1  0.18980194  0.68955479  0.76690259  1  1.316812  0  0.670897  0.965314  0  2.370756  0
Zn  Zn12  1  0.56020725  0.06041889  0.98315229  1  1.317435  0  0.670917  0.965179  0  2.371494  0
Zn  Zn13  1  0.40127402  0.05518937  0.97827026  1  1.313729  0  0.670481  0.961185  0  2.377628  0
Zn  Zn14  1  0.55561877  0.90091187  0.97831589  1  1.314686  0  0.671518  0.968346  0  2.3687  0
Zn  Zn15  1  0.48305041  0.98326141  0.06032559  1  1.314148  0  0.670984  0.964921  0  2.371944  0
H  H16  1  0.79607474  0.50214237  0.39913473  1  0.087029  0  0.109742  0.115589  0  0.99206  0
H  H17  1  0.95392254  0.24786848  0.35088106  1  0.086593  0  0.109221  0.114715  0  0.992676  0
H  H18  1  0.74782851  0.45389307  0.35085375  1  0.086786  0  0.110154  0.116068  0  0.991571  0
H  H19  1  0.00219913  0.29611513  0.39914925  1  0.087195  0  0.109758  0.115553  0  0.99217  0
H  H20  1  0.15236139  0.65241324  0.54934611  1  0.087317  0  0.109759  0.115918  0  0.992549  0
H  H21  1  0.09764190  0.59757953  0.70066855  1  0.087345  0  0.109672  0.115689  0  0.99248  0
H  H22  1  0.20065775  0.70067166  0.59762070  1  0.090988  0  0.109193  0.114477  0  0.993104  0
H  H23  1  0.04934099  0.54931575  0.65239622  1  0.09178  0  0.109171  0.114347  0  0.99325  0
H  H24  1  0.28628723  0.51078079  0.40925118  1  0.128896  0  0.121017  0.147219  0  0.969214  0
H  H25  1  0.46367559  0.23920749  0.34072945  1  0.128638  0  0.121105  0.147226  0  0.969401  0
H  H26  1  0.77154809  0.54706245  0.64855797  1  0.107868  0  0.120848  0.14701  0  0.96941  0
H  H27  1  0.47849957  0.70294340  0.60142881  1  0.107038  0  0.120932  0.14724  0  0.969269  0
H  H28  1  0.04708841  0.27149241  0.64856189  1  0.108443  0  0.120837  0.147147  0  0.969137  0
H  H29  1  0.20293028  0.97854012  0.60142642  1  0.107899  0  0.121  0.147311  0  0.968889  0
H  H30  1  0.80065150  0.77919822  0.40221209  1  0.133085  0  0.121216  0.147081  0  0.969243  0
H  H31  1  0.94929768  0.97080689  0.34780947  1  0.132844  0  0.120544  0.146199  0  0.969929  0
H  H32  1  0.70069122  0.20064907  0.09762147  1  0.092145  0  0.10964  0.115114  0  0.992444  0
H  H33  1  0.54930721  0.04933675  0.15239533  1  0.091886  0  0.109538  0.114832  0  0.992617  0
H  H34  1  0.65237887  0.15241333  0.04935215  1  0.087365  0  0.109765  0.115833  0  0.992768  0
H  H35  1  0.59762354  0.09757601  0.20066414  1  0.087368  0  0.109623  0.115544  0  0.992586  0
H  H36  1  0.70296544  0.47852508  0.10143189  1  0.107467  0  0.121304  0.147803  0  0.968596  0
H  H37  1  0.54705154  0.77150704  0.14855718  1  0.109154  0  0.121169  0.147624  0  0.968732  0
H  H38  1  0.08702350  0.10855216  0.21002532  1  0.12797  0  0.120919  0.147141  0  0.969657  0
H  H39  1  0.16296948  0.14145440  0.03994612  1  0.127514  0  0.120673  0.146689  0  0.969785  0
H  H40  1  0.24782640  0.95389224  0.85085034  1  0.086305  0  0.109921  0.115732  0  0.992037  0
H  H41  1  0.50219576  0.79611420  0.89914499  1  0.087172  0  0.110015  0.115909  0  0.991864  0
H  H42  1  0.29609856  0.00214105  0.89911841  1  0.086591  0  0.109189  0.114841  0  0.992993  0
H  H43  1  0.45394439  0.74786859  0.85086447  1  0.08713  0  0.109773  0.115566  0  0.99167  0
H  H44  1  0.44931751  0.47080309  0.84779354  1  0.133141  0  0.121078  0.146833  0  0.96922  0
H  H45  1  0.30067020  0.27919645  0.90219577  1  0.132331  0  0.120656  0.146376  0  0.969905  0
H  H46  1  0.96367218  0.73920963  0.84073476  1  0.128718  0  0.121024  0.147228  0  0.969423  0
H  H47  1  0.78628466  0.01078146  0.90925659  1  0.128803  0  0.121099  0.147358  0  0.969199  0
C  C48  1  0.06125120  0.31595950  0.56167825  1  1.568178  0  0.217591  0.609869  0  4.219715  0
C  C49  1  0.06942038  0.56943059  0.56942201  1  1.549913  0  0.229203  0.604453  0  4.166299  0
C  C50  1  0.18425241  0.43899478  0.43858730  1  1.568453  0  0.218167  0.612308  0  4.215513  0
C  C51  1  0.93810995  0.68422904  0.43857855  1  1.541999  0  0.217826  0.610024  0  4.216383  0
C  C52  1  0.93057562  0.43057817  0.43059563  1  1.550703  0  0.22973  0.604821  0  4.164657  0
C  C53  1  0.81596801  0.56125017  0.56167167  1  1.567962  0  0.217639  0.609913  0  4.219531  0
C  C54  1  0.56566872  0.31100556  0.31142322  1  1.568252  0  0.218139  0.612342  0  4.215303  0
C  C55  1  0.68061646  0.18057857  0.18055320  1  1.547563  0  0.229446  0.604644  0  4.165458  0
C  C56  1  0.68880773  0.43405007  0.18833624  1  1.568473  0  0.217867  0.610354  0  4.218273  0
C  C57  1  0.93449090  0.18840914  0.18876368  1  1.527843  0  0.218542  0.612091  0  4.216684  0
C  C58  1  0.81943650  0.31941667  0.31941909  1  1.553023  0  0.229419  0.604693  0  4.163872  0
C  C59  1  0.81184869  0.06570475  0.31144972  1  1.543063  0  0.218197  0.610431  0  4.215363  0
C  C60  1  0.43405220  0.68879549  0.68833507  1  1.568186  0  0.217353  0.609537  0  4.219096  0
C  C61  1  0.31943896  0.81942122  0.81940861  1  1.552954  0  0.229611  0.604531  0  4.163798  0
C  C62  1  0.18880392  0.93404685  0.68833116  1  1.567281  0  0.217699  0.609979  0  4.219478  0
C  C63  1  0.06565236  0.81101898  0.81141681  1  1.567493  0  0.217924  0.61204  0  4.21573  0
C  C64  1  0.18061262  0.68058880  0.68055208  1  1.546951  0  0.229376  0.60468  0  4.165272  0
C  C65  1  0.31185627  0.56570715  0.81144011  1  1.542558  0  0.218139  0.610452  0  4.21586  0
C  C66  1  0.43811608  0.18423610  0.93856953  1  1.543907  0  0.217822  0.610213  0  4.216052  0
C  C67  1  0.43057751  0.93057880  0.93058683  1  1.549765  0  0.229599  0.604769  0  4.165025  0
C  C68  1  0.68423934  0.93900307  0.93858369  1  1.568545  0  0.218166  0.611967  0  4.216517  0
C  C69  1  0.56124282  0.81595863  0.06167365  1  1.568622  0  0.217717  0.610177  0  4.219122  0
C  C70  1  0.56941738  0.06944395  0.06941682  1  1.550941  0  0.229413  0.604628  0  4.165635  0
C  C71  1  0.31551376  0.06167876  0.06121923  1  1.52859  0  0.218105  0.611581  0  4.217562  0
C  C72  1  0.90189556  0.40188439  0.40182860  1  -0.043856  0  -0.011761  -0.02945  0  3.965498  0
C  C73  1  0.84820664  0.34821245  0.34810662  1  -0.04712  0  -0.011699  -0.029731  0  3.964986  0
C  C74  1  0.83011958  0.44662607  0.38832795  1  0.02234  0  -0.079429  -0.091388  0  3.967134  0
C  C75  1  0.91994729  0.30344349  0.36162872  1  -0.039677  0  -0.079646  -0.090991  0  3.967725  0
C  C76  1  0.80342340  0.41992147  0.36161111  1  -0.035749  0  -0.078892  -0.090178  0  3.966229  0
C  C77  1  0.94664804  0.33014464  0.38834514  1  0.025011  0  -0.078992  -0.090681  0  3.96702  0
C  C78  1  0.09815405  0.59814616  0.59815391  1  0.020987  0  -0.012008  -0.029099  0  3.965239  0
C  C79  1  0.15184359  0.65183815  0.65185117  1  0.022241  0  -0.011994  -0.028956  0  3.965626  0
C  C80  1  0.14077553  0.64078454  0.58252383  1  -0.065862  0  -0.079477  -0.092118  0  3.97177  0
C  C81  1  0.10922662  0.60920507  0.66749279  1  -0.066546  0  -0.07944  -0.091998  0  3.972078  0
C  C82  1  0.16748770  0.66749237  0.60922601  1  -0.018185  0  -0.079253  -0.090188  0  3.970287  0
C  C83  1  0.08251273  0.58249950  0.64079295  1  -0.018703  0  -0.079053  -0.089865  0  3.969765  0
C  C84  1  0.30359417  0.45390497  0.40121492  1  0.027759  0  -0.089013  -0.136523  0  3.971394  0
C  C85  1  0.44630768  0.29608956  0.34877280  1  0.033596  0  -0.088985  -0.136701  0  3.972715  0
C  C86  1  0.25901573  0.41364979  0.41364301  1  -0.171851  0  -0.025425  -0.119439  0  3.990927  0
C  C87  1  0.49088718  0.33634365  0.33637232  1  -0.183003  0  -0.025128  -0.118605  0  3.990402  0
C  C88  1  0.37811878  0.33874580  0.37239047  1  -0.126487  0  -0.021786  -0.007849  0  4.067944  0
C  C89  1  0.37175180  0.41120642  0.37760068  1  -0.149302  0  -0.021446  -0.007409  0  4.06771  0
C  C90  1  0.72637398  0.57613303  0.62879182  1  -0.00343  0  -0.088763  -0.136288  0  3.973168  0
C  C91  1  0.52365879  0.67391106  0.62120384  1  0.03411  0  -0.088939  -0.136854  0  3.972899  0
C  C92  1  0.74096888  0.58634972  0.58638165  1  -0.085018  0  -0.025555  -0.118356  0  3.989595  0
C  C93  1  0.50906055  0.66365232  0.66361080  1  -0.085437  0  -0.025501  -0.117886  0  3.988714  0
C  C94  1  0.60270743  0.64209423  0.60847247  1  -0.204646  0  -0.022041  -0.008285  0  4.069645  0
C  C95  1  0.64733951  0.60795057  0.64154258  1  -0.168914  0  -0.022008  -0.008511  0  4.070195  0
C  C96  1  0.07614294  0.22635286  0.62878943  1  0.031886  0  -0.088894  -0.136723  0  3.972592  0
C  C97  1  0.17391531  0.02366717  0.62120740  1  0.033424  0  -0.088881  -0.136551  0  3.972723  0
C  C98  1  0.08635325  0.24095120  0.58637498  1  -0.085335  0  -0.025512  -0.118541  0  3.989755  0
C  C99  1  0.16365832  0.00906557  0.66361733  1  -0.08583  0  -0.025633  -0.118594  0  3.989337  0
C  C100  1  0.14209236  0.10271261  0.60847998  1  -0.20617  0  -0.022156  -0.008887  0  4.070291  0
C  C101  1  0.10796068  0.14732450  0.64153597  1  -0.204373  0  -0.021971  -0.008496  0  4.069882  0
C  C102  1  0.84485210  0.79993736  0.39756517  1  0.090272  0  -0.088424  -0.134996  0  3.971145  0
C  C103  1  0.90513413  0.95001809  0.35246826  1  0.090492  0  -0.088498  -0.135079  0  3.971599  0
C  C104  1  0.91360351  0.75901598  0.41364477  1  -0.201069  0  -0.025247  -0.118561  0  3.989092  0
C  C105  1  0.83637304  0.99091811  0.33639771  1  -0.207083  0  -0.025581  -0.118599  0  3.989108  0
C  C106  1  0.90838971  0.88046073  0.37471670  1  -0.177601  0  -0.022166  -0.008889  0  4.069293  0
C  C107  1  0.84171582  0.86941521  0.37526476  1  -0.173883  0  -0.021862  -0.008322  0  4.068834  0
C  C108  1  0.65184116  0.15183831  0.15185064  1  0.02219  0  -0.011921  -0.028808  0  3.965509  0
C  C109  1  0.59815561  0.09814466  0.09815314  1  0.020167  0  -0.012089  -0.029258  0  3.96538  0
C  C110  1  0.66749665  0.16749190  0.10922882  1  -0.018235  0  -0.079257  -0.090435  0  3.969912  0
C  C111  1  0.58250177  0.08249754  0.14078908  1  -0.018325  0  -0.079001  -0.089908  0  3.969225  0
C  C112  1  0.64078506  0.14078228  0.08252618  1  -0.065964  0  -0.079316  -0.091864  0  3.971622  0
C  C113  1  0.60921509  0.10920490  0.16748968  1  -0.06639  0  -0.079212  -0.091621  0  3.971423  0
C  C114  1  0.67392401  0.52366018  0.12120732  1  0.034382  0  -0.088648  -0.13644  0  3.972086  0
C  C115  1  0.57613226  0.72636068  0.12878894  1  0.03186  0  -0.088529  -0.136331  0  3.971667  0
C  C116  1  0.66365562  0.50906437  0.16361755  1  -0.085024  0  -0.025494  -0.118485  0  3.988889  0
C  C117  1  0.58635568  0.74095459  0.08637386  1  -0.08533  0  -0.025473  -0.118686  0  3.989645  0
C  C118  1  0.60795570  0.64732839  0.14153498  1  -0.204165  0  -0.021905  -0.0084  0  4.06939  0
C  C119  1  0.64209764  0.60270755  0.10848156  1  -0.205779  0  -0.022088  -0.008777  0  4.069996  0
C  C120  1  0.07996942  0.12485529  0.17755231  1  0.025128  0  -0.088763  -0.136357  0  3.973552  0
C  C121  1  0.17002872  0.12512739  0.07241965  1  0.026282  0  -0.088499  -0.135556  0  3.973312  0
C  C122  1  0.00906964  0.16362653  0.16361852  1  -0.120677  0  -0.025406  -0.119565  0  3.989954  0
C  C123  1  0.24093013  0.08640980  0.08635017  1  -0.121612  0  -0.025639  -0.119908  0  3.990646  0
C  C124  1  0.11136233  0.13915980  0.10555511  1  -0.208877  0  -0.021943  -0.008532  0  4.069546  0
C  C125  1  0.13861481  0.11077734  0.14441262  1  -0.208394  0  -0.021694  -0.007571  0  4.06933  0
C  C126  1  0.34820739  0.84819956  0.84810450  1  -0.047127  0  -0.011625  -0.02947  0  3.96433  0
C  C127  1  0.40189346  0.90187061  0.90182748  1  -0.042251  0  -0.011814  -0.029411  0  3.965607  0
C  C128  1  0.30341958  0.91991203  0.86160881  1  -0.035412  0  -0.079196  -0.090633  0  3.96696  0
C  C129  1  0.44664309  0.83013464  0.88834272  1  0.025253  0  -0.078985  -0.090809  0  3.966612  0
C  C130  1  0.33012261  0.94661483  0.88832211  1  0.021512  0  -0.079689  -0.091629  0  3.968426  0
C  C131  1  0.41995090  0.80343150  0.86162199  1  -0.039697  0  -0.079192  -0.090609  0  3.966158  0
C  C132  1  0.40513910  0.45003130  0.85246260  1  0.091719  0  -0.088264  -0.134811  0  3.970423  0
C  C133  1  0.34485820  0.29995009  0.89756184  1  0.090582  0  -0.088624  -0.135216  0  3.97221  0
C  C134  1  0.33637914  0.49093343  0.83639470  1  -0.20645  0  -0.025287  -0.118182  0  3.98832  0
C  C135  1  0.41360847  0.25903280  0.91364352  1  -0.202486  0  -0.025263  -0.118527  0  3.988894  0
C  C136  1  0.34171225  0.36942940  0.87526021  1  -0.173786  0  -0.022001  -0.008652  0  4.069386  0
C  C137  1  0.40838670  0.38047572  0.87471260  1  -0.178137  0  -0.021956  -0.008533  0  4.068669  0
C  C138  1  0.94630257  0.79609502  0.84877494  1  0.033583  0  -0.089064  -0.136905  0  3.972765  0
C  C139  1  0.80358963  0.95390864  0.90121629  1  0.02799  0  -0.08907  -0.136768  0  3.971375  0
C  C140  1  0.99088436  0.83634869  0.83637066  1  -0.183387  0  -0.025205  -0.118682  0  3.990872  0
C  C141  1  0.75901348  0.91365303  0.91364148  1  -0.171772  0  -0.025206  -0.118926  0  3.990191  0
C  C142  1  0.87174783  0.91120985  0.87760232  1  -0.149445  0  -0.021453  -0.007271  0  4.067678  0
C  C143  1  0.87811424  0.83874842  0.87239255  1  -0.126638  0  -0.021802  -0.007965  0  4.068026  0
S  S144  1  0.29950324  0.32402462  0.39682288  1  0.267802  0  0.082192  0.120374  0  2.730024  0
S  S145  1  0.45038426  0.42594202  0.35321319  1  0.269739  0  0.082426  0.120291  0  2.730278  0
S  S146  1  0.65905284  0.63454210  0.56180233  1  0.26308  0  0.081899  0.12  0  2.730025  0
S  S147  1  0.59097082  0.61547677  0.68820423  1  0.262645  0  0.081878  0.11981  0  2.73009  0
S  S148  1  0.13453984  0.15908065  0.56180801  1  0.264284  0  0.082507  0.121021  0  2.729582  0
S  S149  1  0.11548934  0.09093128  0.68819853  1  0.263489  0  0.082433  0.120825  0  2.729186  0
S  S150  1  0.97460055  0.80453590  0.40182911  1  0.264678  0  0.081098  0.118996  0  2.730953  0
S  S151  1  0.77545533  0.94533419  0.34818892  1  0.271098  0  0.081761  0.1198  0  2.731266  0
S  S152  1  0.61547753  0.59093596  0.18819759  1  0.262956  0  0.082239  0.120489  0  2.729214  0
S  S153  1  0.63455310  0.65907486  0.06180881  1  0.264051  0  0.082318  0.120715  0  2.729641  0
S  S154  1  0.01319575  0.18315387  0.11037269  1  0.290878  0  0.081423  0.120081  0  2.730545  0
S  S155  1  0.23679323  0.06685693  0.13959932  1  0.2908  0  0.081133  0.119585  0  2.730134  0
S  S156  1  0.27545231  0.44535124  0.84818550  1  0.269797  0  0.080985  0.118759  0  2.731563  0
S  S157  1  0.47459582  0.30455469  0.90182750  1  0.2661  0  0.081658  0.119735  0  2.730389  0
S  S158  1  0.95037915  0.92594592  0.85321580  1  0.269741  0  0.082178  0.120015  0  2.730292  0
S  S159  1  0.79949814  0.82402749  0.89682470  1  0.268082  0  0.082504  0.120758  0  2.729906  0
O  O160  1  0.00003186  0.49994653  0.49997231  1  -1.230361  0  -0.570909  -1.028997  0  2.525152  0
O  O161  1  0.07741820  0.31581777  0.52266195  1  -1.178787  0  -0.319895  -0.547515  0  2.334538  0
O  O162  1  0.03097822  0.53102906  0.58569290  1  -1.160995  0  -0.314898  -0.547097  0  2.342885  0
O  O163  1  0.15690824  0.50541052  0.44998548  1  -1.173116  0  -0.317185  -0.540483  0  2.312302  0
O  O164  1  0.02574998  0.37422351  0.58121601  1  -1.173418  0  -0.317609  -0.540024  0  2.313791  0
O  O165  1  0.15339135  0.39181876  0.44660388  1  -1.18347  0  -0.320772  -0.548985  0  2.333689  0
O  O166  1  0.08565751  0.58565228  0.53099559  1  -1.174245  0  -0.314152  -0.546063  0  2.340994  0
O  O167  1  0.00474427  0.65688463  0.45000103  1  -1.17333  0  -0.320929  -0.549114  0  2.334739  0
O  O168  1  0.88698238  0.49631012  0.44168138  1  -1.167981  0  -0.314702  -0.546545  0  2.341735  0
O  O169  1  0.89109036  0.65341627  0.44658666  1  -1.155975  0  -0.316543  -0.538286  0  2.311478  0
O  O170  1  0.99630426  0.38701394  0.44172131  1  -1.167981  0  -0.314229  -0.545658  0  2.340646  0
O  O171  1  0.87427503  0.52571645  0.58120232  1  -1.173989  0  -0.317116  -0.539423  0  2.313871  0
O  O172  1  0.81575779  0.57746408  0.52265178  1  -1.178236  0  -0.320419  -0.548383  0  2.335361  0
O  O173  1  0.74990757  0.25009970  0.24999259  1  -1.229504  0  -0.570702  -1.028862  0  2.523836  0
O  O174  1  0.59652859  0.35818770  0.30342111  1  -1.181473  0  -0.320482  -0.548835  0  2.332463  0
O  O175  1  0.66438959  0.16433911  0.21898674  1  -1.173959  0  -0.3144  -0.546333  0  2.341841  0
O  O176  1  0.72430893  0.37576270  0.16881570  1  -1.173925  0  -0.31702  -0.539621  0  2.312628  0
O  O177  1  0.59302659  0.24460280  0.30001256  1  -1.172663  0  -0.317087  -0.540456  0  2.312118  0
O  O178  1  0.67261105  0.43422641  0.22735680  1  -1.178722  0  -0.320266  -0.547994  0  2.334525  0
O  O179  1  0.71905973  0.21898581  0.16428817  1  -1.160037  0  -0.314668  -0.546814  0  2.341023  0
O  O180  1  0.87605015  0.22402697  0.16916007  1  -1.170113  0  -0.32116  -0.549521  0  2.334664  0
O  O181  1  0.86304280  0.25365170  0.30836069  1  -1.168717  0  -0.315038  -0.547359  0  2.342032  0
O  O182  1  0.93464554  0.17224480  0.22768583  1  -1.142375  0  -0.317358  -0.540218  0  2.313378  0
O  O183  1  0.75368682  0.36291248  0.30831536  1  -1.167467  0  -0.313974  -0.545485  0  2.34011  0
O  O184  1  0.74524867  0.09309458  0.30000554  1  -1.172397  0  -0.32056  -0.548762  0  2.333721  0
O  O185  1  0.85891216  0.09649456  0.30344175  1  -1.156576  0  -0.31756  -0.539789  0  2.311511  0
O  O186  1  0.24995946  0.75005901  0.75003866  1  -1.229771  0  -0.570759  -1.028843  0  2.523925  0
O  O187  1  0.37574347  0.72433097  0.66880081  1  -1.173391  0  -0.316952  -0.53939  0  2.314034  0
O  O188  1  0.36301965  0.75366284  0.80834236  1  -1.168666  0  -0.314699  -0.546666  0  2.341049  0
O  O189  1  0.17261186  0.93418352  0.72734740  1  -1.178721  0  -0.320034  -0.5476  0  2.334294  0
O  O190  1  0.43425332  0.67256207  0.72735774  1  -1.178738  0  -0.320205  -0.548191  0  2.33479  0
O  O191  1  0.22431256  0.87578081  0.66878862  1  -1.172226  0  -0.317352  -0.540009  0  2.313971  0
O  O192  1  0.25368922  0.86295791  0.80830587  1  -1.167344  0  -0.314268  -0.545562  0  2.340427  0
O  O193  1  0.09652022  0.85819780  0.80341029  1  -1.181608  0  -0.320548  -0.548926  0  2.332987  0
O  O194  1  0.16438399  0.66438422  0.71898444  1  -1.173229  0  -0.314133  -0.545934  0  2.34079  0
O  O195  1  0.09300854  0.74461591  0.79999946  1  -1.172184  0  -0.317136  -0.540593  0  2.312416  0
O  O196  1  0.21905824  0.71898740  0.66426793  1  -1.159709  0  -0.315072  -0.547423  0  2.34226  0
O  O197  1  0.35888328  0.59652566  0.80342518  1  -1.155996  0  -0.316958  -0.539021  0  2.311438  0
O  O198  1  0.24524893  0.59304780  0.79999363  1  -1.172776  0  -0.320829  -0.549156  0  2.334147  0
O  O199  1  0.50007581  0.99990446  0.00001061  1  -1.229752  0  -0.570859  -1.028865  0  2.525086  0
O  O200  1  0.50474523  0.15684253  0.94998877  1  -1.173736  0  -0.320755  -0.548942  0  2.334372  0
O  O201  1  0.38695638  0.99631933  0.94166476  1  -1.168369  0  -0.315124  -0.547164  0  2.342677  0
O  O202  1  0.65338343  0.89182389  0.94659556  1  -1.182787  0  -0.320751  -0.548772  0  2.333726  0
O  O203  1  0.39106401  0.15345089  0.94656917  1  -1.156997  0  -0.317063  -0.539174  0  2.312384  0
O  O204  1  0.65689318  0.00542116  0.94997046  1  -1.173078  0  -0.316962  -0.54014  0  2.312608  0
O  O205  1  0.49630381  0.88705694  0.94171209  1  -1.168037  0  -0.313944  -0.545377  0  2.340372  0
O  O206  1  0.57741673  0.81577575  0.02265354  1  -1.178229  0  -0.320371  -0.548069  0  2.334901  0
O  O207  1  0.53097872  0.03103331  0.08566612  1  -1.161707  0  -0.314585  -0.546561  0  2.341604  0
O  O208  1  0.52573936  0.87424593  0.08118994  1  -1.17483  0  -0.316824  -0.539167  0  2.312391  0
O  O209  1  0.58566072  0.08570081  0.03098984  1  -1.17478  0  -0.314518  -0.546461  0  2.341464  0
O  O210  1  0.31535176  0.07780582  0.02229890  1  -1.142825  0  -0.317001  -0.539547  0  2.31412  0
O  O211  1  0.37395223  0.02606448  0.08082120  1  -1.171256  0  -0.320815  -0.549217  0  2.334808  0
