# generated using pymatgen
data_SmP4H27C18(NO6)2
_symmetry_space_group_name_H-M   'P 1'
_cell_length_a   7.97956512
_cell_length_b   12.69229715
_cell_length_c   13.49800000
_cell_angle_alpha   115.52944820
_cell_angle_beta   92.51386595
_cell_angle_gamma   92.99543366
_symmetry_Int_Tables_number   1
_chemical_formula_structural   SmP4H27C18(NO6)2
_chemical_formula_sum   'Sm2 P8 H54 C36 N4 O24'
_cell_volume   1228.55675282
_cell_formula_units_Z   2
loop_
 _symmetry_equiv_pos_site_id
 _symmetry_equiv_pos_as_xyz
  1  'x, y, z'
loop_
 _atom_site_type_symbol
 _atom_site_label
 _atom_site_symmetry_multiplicity
 _atom_site_fract_x
 _atom_site_fract_y
 _atom_site_fract_z
 _atom_site_occupancy
 _atom_site_hle17_bader_spin_density
 _atom_site_hle17_ddec_charge
 _atom_site_hle17_ddec_spin_density
 _atom_site_hle17_ddec_sum_bond_order
 _atom_site_hle17_magmom
 _atom_site_hse06_10hf_bader_spin_density
 _atom_site_hse06_10hf_ddec_charge
 _atom_site_hse06_10hf_ddec_spin_density
 _atom_site_hse06_10hf_ddec_sum_bond_order
 _atom_site_hse06_10hf_magmom
 _atom_site_hse06_bader_spin_density
 _atom_site_hse06_ddec_charge
 _atom_site_hse06_ddec_spin_density
 _atom_site_hse06_ddec_sum_bond_order
 _atom_site_hse06_magmom
 _atom_site_pbe_bader_charge
 _atom_site_pbe_bader_spin_density
 _atom_site_pbe_cm5_charge
 _atom_site_pbe_ddec_charge
 _atom_site_pbe_ddec_spin_density
 _atom_site_pbe_ddec_sum_bond_order
 _atom_site_pbe_magmom
Sm  Sm0  1  0.78773315  0.89125793  0.51268093  1  0  2.375869  0  1.602881  0  0  2.297521  0  1.942731  0  0  2.333581  0  1.903991  0  2.232677  0  1.578914  2.21804  0  2.067828  0
Sm  Sm1  1  0.21226555  0.10874079  0.48731815  1  0  2.375875  0  1.602873  0  0  2.297539  0  1.94272  0  0  2.3336  0  1.903982  0  2.232674  0  1.578921  2.218064  0  2.067808  0
P  P2  1  0.13988360  0.98117297  0.63737407  1  0  1.411037  0  5.044334  0  0  1.255418  0  5.566524  0  0  1.305361  0  5.525284  0  3.351444  0  0.257286  1.223295  0  5.579311  0
P  P3  1  0.86011645  0.01882664  0.36262614  1  0  1.411027  0  5.044342  0  0  1.255415  0  5.56653  0  0  1.305358  0  5.525292  0  3.351537  0  0.257273  1.223293  0  5.579317  0
P  P4  1  0.54685308  0.68676800  0.59200980  1  0  1.53413  0  4.758915  0  0  1.375633  0  5.270019  0  0  1.426152  0  5.227819  0  3.391005  0  0.376655  1.340208  0  5.296458  0
P  P5  1  0.45314823  0.31323160  0.40799044  1  0  1.534066  0  4.758984  0  0  1.375569  0  5.270081  0  0  1.426089  0  5.22788  0  3.391003  0  0.376661  1.340145  0  5.296519  0
P  P6  1  0.58896700  0.15969051  0.66500528  1  0  1.535584  0  4.790735  0  0  1.382885  0  5.304235  0  0  1.432935  0  5.26136  0  3.392392  0  0.364653  1.348108  0  5.327175  0
P  P7  1  0.41103296  0.84030821  0.33499383  1  0  1.535613  0  4.790614  0  0  1.382901  0  5.304118  0  0  1.432947  0  5.26125  0  3.3924  0  0.364673  1.348125  0  5.32706  0
P  P8  1  0.02841219  0.39327480  0.58662036  1  0  1.532826  0  4.772425  0  0  1.373384  0  5.288089  0  0  1.423745  0  5.245307  0  3.388003  0  0.377928  1.338286  0  5.314184  0
P  P9  1  0.97158545  0.60672567  0.41337866  1  0  1.532972  0  4.772328  0  0  1.373532  0  5.287977  0  0  1.423892  0  5.245192  0  3.387793  0  0.377997  1.338442  0  5.314068  0
H  H10  1  0.19322895  0.74351154  0.61053363  1  0  0.291258  0  0.902695  0  0  0.272322  0  0.963046  0  0  0.280451  0  0.957543  0  0.539579  0  0.316853  0.266594  0  0.967004  0
H  H11  1  0.80677120  0.25648894  0.38946693  1  0  0.291297  0  0.90262  0  0  0.272346  0  0.962992  0  0  0.280477  0  0.957487  0  0.539566  0  0.316854  0.26662  0  0.966942  0
H  H12  1  0.66634566  0.35362282  0.61641762  1  0  0.29694  0  0.870155  0  0  0.278874  0  0.929374  0  0  0.287077  0  0.923747  0  0.545192  0  0.31913  0.272961  0  0.933699  0
H  H13  1  0.33365324  0.64637766  0.38358291  1  0  0.296954  0  0.870118  0  0  0.278907  0  0.929305  0  0  0.287108  0  0.92368  0  0.545196  0  0.319144  0.272993  0  0.933631  0
H  H14  1  0.14095583  0.04485811  0.89516670  1  0  0.092437  0  0.961916  0  0  0.104878  0  1.02264  0  0  0.107496  0  1.021498  0  0.064748  0  0.102085  0.102884  0  1.023712  0
H  H15  1  0.85904673  0.95514150  0.10483357  1  0  0.09244  0  0.961939  0  0  0.104881  0  1.022656  0  0  0.107499  0  1.021515  0  0.064718  0  0.102088  0.102886  0  1.023728  0
H  H16  1  0.23099656  0.15428207  0.09414207  1  0  0.075894  0  0.965626  0  0  0.090636  0  1.020774  0  0  0.092899  0  1.020083  0  0.001095  0  0.09577  0.088987  0  1.0214  0
H  H17  1  0.76900349  0.84571753  0.90585888  1  0  0.075876  0  0.965663  0  0  0.09063  0  1.020798  0  0  0.092892  0  1.020109  0  0.001079  0  0.095772  0.08898  0  1.021426  0
H  H18  1  0.31359533  0.04593366  0.20316759  1  0  0.111578  0  0.955968  0  0  0.119528  0  1.019712  0  0  0.122708  0  1.018041  0  0.108328  0  0.109359  0.117268  0  1.020839  0
H  H19  1  0.68640472  0.95406594  0.79683336  1  0  0.111591  0  0.955971  0  0  0.119538  0  1.019724  0  0  0.122717  0  1.018053  0  0.108343  0  0.10937  0.117277  0  1.02085  0
H  H20  1  0.32665472  0.83136655  0.10938387  1  0  0.093212  0  0.983894  0  0  0.10272  0  1.045749  0  0  0.105697  0  1.044111  0  0.078826  0  0.098814  0.10048  0  1.047189  0
H  H21  1  0.67334649  0.16863218  0.89061676  1  0  0.093229  0  0.983937  0  0  0.102715  0  1.045805  0  0  0.10569  0  1.044169  0  0.078851  0  0.09882  0.100477  0  1.047243  0
H  H22  1  0.23843467  0.72144947  0.90948984  1  0  0.078371  0  0.972724  0  0  0.089349  0  1.036339  0  0  0.091908  0  1.035341  0  0.070361  0  0.093148  0.087544  0  1.03702  0
H  H23  1  0.76156518  0.27854838  0.09051040  1  0  0.078345  0  0.972688  0  0  0.089333  0  1.036306  0  0  0.091893  0  1.035306  0  0.070391  0  0.093133  0.087527  0  1.036988  0
H  H24  1  0.02063173  0.84844496  0.74776245  1  0  0.127598  0  0.951684  0  0  0.139586  0  1.009155  0  0  0.14212  0  1.007762  0  0.16292  0  0.12674  0.137613  0  1.010283  0
H  H25  1  0.97937083  0.15155464  0.25223857  1  0  0.12758  0  0.951684  0  0  0.139574  0  1.009158  0  0  0.142104  0  1.007766  0  0.162896  0  0.126725  0.1376  0  1.010287  0
H  H26  1  0.08880123  0.71754401  0.75023263  1  0  0.090411  0  0.928133  0  0  0.103959  0  0.990551  0  0  0.105483  0  0.98917  0  0.041357  0  0.113172  0.102769  0  0.99168  0
H  H27  1  0.91119998  0.28245472  0.24976652  1  0  0.090406  0  0.928132  0  0  0.103954  0  0.99055  0  0  0.105475  0  0.989168  0  0.041366  0  0.113162  0.102764  0  0.991678  0
H  H28  1  0.41070167  0.90242779  0.63133195  1  0  0.156161  0  0.943359  0  0  0.163551  0  1.00743  0  0  0.167117  0  1.005307  0  0.168534  0  0.135285  0.161158  0  1.008664  0
H  H29  1  0.58929848  0.09757269  0.36866788  1  0  0.156159  0  0.94336  0  0  0.163539  0  1.007461  0  0  0.167104  0  1.005339  0  0.168549  0  0.135283  0.161145  0  1.008696  0
H  H30  1  0.35720030  0.97762660  0.76901509  1  0  0.135039  0  0.931616  0  0  0.146898  0  0.989952  0  0  0.149211  0  0.990028  0  0.091131  0  0.122975  0.145113  0  0.990407  0
H  H31  1  0.64280110  0.02237387  0.23098477  1  0  0.135034  0  0.93163  0  0  0.1469  0  0.98997  0  0  0.149211  0  0.990049  0  0.091133  0  0.122981  0.145115  0  0.990424  0
H  H32  1  0.35335361  0.66432931  0.71402755  1  0  0.135045  0  0.948182  0  0  0.145434  0  1.009619  0  0  0.148202  0  1.008012  0  0.10855  0  0.121362  0.143378  0  1.010983  0
H  H33  1  0.64664644  0.33567029  0.28597192  1  0  0.135036  0  0.94817  0  0  0.145432  0  1.009598  0  0  0.148197  0  1.007993  0  0.108565  0  0.12137  0.143377  0  1.010961  0
H  H34  1  0.47655325  0.80091899  0.78155925  1  0  0.130997  0  0.943304  0  0  0.142864  0  1.003911  0  0  0.144844  0  1.004425  0  0.082478  0  0.120399  0.141382  0  1.003812  0
H  H35  1  0.52344796  0.19907974  0.21844063  1  0  0.130954  0  0.943288  0  0  0.142816  0  1.003914  0  0  0.144795  0  1.004427  0  0.082475  0  0.120383  0.141333  0  1.003815  0
H  H36  1  0.76552889  0.66777407  0.88243038  1  0  0.083163  0  0.968207  0  0  0.095284  0  1.028991  0  0  0.098004  0  1.027516  0  0.022947  0  0.096962  0.093296  0  1.030134  0
H  H37  1  0.23446866  0.33222553  0.11756902  1  0  0.083122  0  0.968276  0  0  0.095268  0  1.029027  0  0  0.097988  0  1.027551  0  0.023115  0  0.096942  0.093266  0  1.030184  0
H  H38  1  0.88563523  0.77157851  0.07686460  1  0  0.09166  0  0.953639  0  0  0.104637  0  1.009371  0  0  0.107215  0  1.008707  0  0.096781  0  0.102962  0.102716  0  1.010077  0
H  H39  1  0.11436377  0.22842284  0.92313407  1  0  0.09158  0  0.953605  0  0  0.104546  0  1.009364  0  0  0.107119  0  1.008713  0  0.096806  0  0.102913  0.102624  0  1.010072  0
H  H40  1  0.86767131  0.67332441  0.20040711  1  0  0.104198  0  0.962106  0  0  0.114677  0  1.023984  0  0  0.117478  0  1.022615  0  0.125636  0  0.106909  0.112502  0  1.025227  0
H  H41  1  0.13232788  0.32667870  0.79959228  1  0  0.104147  0  0.962065  0  0  0.11464  0  1.023943  0  0  0.117445  0  1.022567  0  0.126133  0  0.106868  0.112464  0  1.025187  0
H  H42  1  0.74419808  0.46746725  0.12701948  1  0  0.078284  0  0.957262  0  0  0.093721  0  1.010996  0  0  0.096148  0  1.010097  0  0.0235  0  0.097261  0.091921  0  1.011828  0
H  H43  1  0.25580236  0.53253585  0.87298216  1  0  0.078309  0  0.957218  0  0  0.093735  0  1.010969  0  0  0.096166  0  1.010055  0  0.023467  0  0.097292  0.091934  0  1.011801  0
H  H44  1  0.62318118  0.36397374  0.93279656  1  0  0.10481  0  0.967342  0  0  0.116508  0  1.026798  0  0  0.119152  0  1.025935  0  0.115768  0  0.10431  0.114566  0  1.027495  0
H  H45  1  0.37681927  0.63602936  0.06720656  1  0  0.104794  0  0.967311  0  0  0.116474  0  1.026809  0  0  0.119125  0  1.025923  0  0.115744  0  0.104286  0.114543  0  1.027472  0
H  H46  1  0.57501563  0.51381082  0.74934572  1  0  0.098255  0  0.930619  0  0  0.111641  0  0.991071  0  0  0.113452  0  0.989551  0  0.09098  0  0.116895  0.110271  0  0.99222  0
H  H47  1  0.42498317  0.48618878  0.25065372  1  0  0.098261  0  0.930634  0  0  0.111617  0  0.991115  0  0  0.113428  0  0.989594  0  0.091001  0  0.116896  0.110247  0  0.992263  0
H  H48  1  0.50456509  0.38893491  0.76915486  1  0  0.108643  0  0.939989  0  0  0.120743  0  1.001179  0  0  0.122847  0  0.999776  0  0.121771  0  0.124056  0.119096  0  1.002434  0
H  H49  1  0.49543486  0.61106381  0.23084499  1  0  0.108657  0  0.939989  0  0  0.120753  0  1.001181  0  0  0.122856  0  0.99978  0  0.121781  0  0.124055  0.119104  0  1.002439  0
H  H50  1  0.82356084  0.29003267  0.78712603  1  0  0.136538  0  0.930574  0  0  0.147979  0  0.988816  0  0  0.150115  0  0.989041  0  0.09632  0  0.123817  0.146352  0  0.988973  0
H  H51  1  0.17643911  0.70996606  0.21287234  1  0  0.13653  0  0.930562  0  0  0.147977  0  0.988785  0  0  0.150126  0  0.989  0  0.096306  0  0.123806  0.146348  0  0.988945  0
H  H52  1  0.86560054  0.22403565  0.64508468  1  0  0.171678  0  0.952103  0  0  0.180717  0  1.008888  0  0  0.184378  0  1.006816  0  0.183508  0  0.138089  0.178047  0  1.010294  0
H  H53  1  0.13439952  0.77596395  0.35491405  1  0  0.171684  0  0.952118  0  0  0.180723  0  1.008895  0  0  0.184384  0  1.006824  0  0.183515  0  0.138089  0.178053  0  1.010302  0
H  H54  1  0.96118477  0.47167401  0.77787332  1  0  0.128353  0  0.952676  0  0  0.138997  0  1.016324  0  0  0.140858  0  1.017076  0  0.107448  0  0.119199  0.137635  0  1.016011  0
H  H55  1  0.03881528  0.52832559  0.22212615  1  0  0.128337  0  0.952683  0  0  0.13897  0  1.016341  0  0  0.140832  0  1.017091  0  0.107451  0  0.119196  0.137609  0  1.016028  0
H  H56  1  0.84729424  0.53252009  0.70092347  1  0  0.142847  0  0.947062  0  0  0.153514  0  1.007166  0  0  0.156405  0  1.005566  0  0.115973  0  0.124624  0.151356  0  1.008562  0
H  H57  1  0.15270591  0.46748039  0.29907710  1  0  0.142849  0  0.947065  0  0  0.153512  0  1.007166  0  0  0.156403  0  1.005566  0  0.115991  0  0.124634  0.151355  0  1.00856  0
H  H58  1  0.60427024  0.50986681  0.57368821  1  0  0.434513  0  0.875581  0  0  0.398197  0  0.948055  0  0  0.410044  0  0.931219  0  0.653653  0  0.305323  0.389889  0  0.959848  0
H  H59  1  0.39573232  0.49013279  0.42631207  1  0  0.434505  0  0.875594  0  0  0.398194  0  0.94806  0  0  0.410041  0  0.931223  0  0.653687  0  0.305328  0.389884  0  0.959856  0
H  H60  1  0.36290352  0.17448819  0.74751703  1  0  0.439597  0  0.86761  0  0  0.408425  0  0.931638  0  0  0.419732  0  0.9155  0  0.661672  0  0.311649  0.400446  0  0.942911  0
H  H61  1  0.63709528  0.82551141  0.25248241  1  0  0.439558  0  0.867674  0  0  0.408371  0  0.93172  0  0  0.419669  0  0.915595  0  0.661684  0  0.311634  0.400404  0  0.942977  0
H  H62  1  0.12121832  0.55152978  0.57265059  1  0  0.434625  0  0.872279  0  0  0.399036  0  0.943433  0  0  0.41062  0  0.926951  0  0.64849  0  0.308368  0.390903  0  0.954997  0
H  H63  1  0.87878183  0.44847070  0.42734998  1  0  0.434655  0  0.872241  0  0  0.399065  0  0.943397  0  0  0.410647  0  0.926916  0  0.648487  0  0.308392  0.390932  0  0.95496  0
C  C64  1  0.18759111  0.99851589  0.94126459  1  0  -0.113292  0  3.746282  0  0  -0.135177  0  3.992666  0  0  -0.137578  0  4.015712  0  0.04204  0  -0.090082  -0.133418  0  3.977065  0
C  C65  1  0.81241135  0.00148283  0.05873533  1  0  -0.113329  0  3.746271  0  0  -0.135192  0  3.992686  0  0  -0.137593  0  4.015736  0  0.042104  0  -0.090075  -0.133431  0  3.977084  0
C  C66  1  0.23609567  0.05947448  0.05335316  1  0  -0.069673  0  3.785915  0  0  -0.081543  0  4.035065  0  0  -0.084455  0  4.05809  0  -0.023029  0  -0.092288  -0.079559  0  4.019409  0
C  C67  1  0.76390303  0.94052425  0.94664740  1  0  -0.069623  0  3.785838  0  0  -0.081496  0  4.034981  0  0  -0.084408  0  4.058007  0  -0.023116  0  -0.09225  -0.079512  0  4.019325  0
C  C68  1  0.28433858  0.99952226  0.11443734  1  0  -0.053926  0  3.716838  0  0  -0.070065  0  3.967088  0  0  -0.070912  0  3.987111  0  -0.091897  0  -0.083647  -0.069468  0  3.953771  0
C  C69  1  0.71566147  0.00047734  0.88556361  1  0  -0.053948  0  3.716794  0  0  -0.07009  0  3.967038  0  0  -0.070936  0  3.98706  0  -0.091898  0  -0.083679  -0.069492  0  3.953722  0
C  C70  1  0.28705667  0.87782310  0.06199916  1  0  -0.063656  0  3.764196  0  0  -0.074728  0  4.008601  0  0  -0.077047  0  4.030091  0  -0.026525  0  -0.092371  -0.073176  0  3.994194  0
C  C71  1  0.71294453  0.12217563  0.93800073  1  0  -0.063704  0  3.76424  0  0  -0.074757  0  4.008647  0  0  -0.077074  0  4.030132  0  -0.026535  0  -0.092376  -0.073205  0  3.994235  0
C  C72  1  0.23976120  0.81684827  0.94981000  1  0  -0.129773  0  3.776163  0  0  -0.148151  0  4.018465  0  0  -0.151372  0  4.042181  0  -0.046965  0  -0.09639  -0.145785  0  4.002166  0
C  C73  1  0.76023750  0.18315045  0.05018982  1  0  -0.129802  0  3.776107  0  0  -0.148165  0  4.018422  0  0  -0.151384  0  4.042135  0  -0.04688  0  -0.096412  -0.145796  0  4.002122  0
C  C74  1  0.18876264  0.87619838  0.88818233  1  0  0.051251  0  3.786884  0  0  0.073906  0  4.02467  0  0  0.071739  0  4.051287  0  -0.135236  0  -0.022893  0.075337  0  4.006575  0
C  C75  1  0.81123741  0.12380122  0.11181788  1  0  0.051393  0  3.786801  0  0  0.073964  0  4.024704  0  0  0.071794  0  4.051322  0  -0.13532  0  -0.022886  0.075395  0  4.006607  0
C  C76  1  0.12650402  0.80902420  0.76966277  1  0  -0.071341  0  3.533396  0  0  -0.135191  0  3.778238  0  0  -0.131609  0  3.787141  0  0.196728  0  -0.064142  -0.137551  0  3.772576  0
C  C77  1  0.87349729  0.19097540  0.23033747  1  0  -0.07137  0  3.533402  0  0  -0.135196  0  3.778241  0  0  -0.131605  0  3.78714  0  0.196731  0  -0.064121  -0.137558  0  3.772582  0
C  C78  1  0.30750038  0.91580219  0.68571327  1  0  -0.323292  0  3.45946  0  0  -0.354099  0  3.691423  0  0  -0.359385  0  3.697005  0  -0.308734  0  -0.065511  -0.351254  0  3.688991  0
C  C79  1  0.69250083  0.08419653  0.31428661  1  0  -0.323284  0  3.459409  0  0  -0.354106  0  3.691391  0  0  -0.359392  0  3.696975  0  -0.308789  0  -0.065511  -0.351261  0  3.688959  0
C  C80  1  0.40491397  0.74110993  0.70465286  1  0  -0.35285  0  3.516039  0  0  -0.392432  0  3.761668  0  0  -0.397304  0  3.767287  0  -0.264868  0  -0.074159  -0.389213  0  3.758542  0
C  C81  1  0.59508724  0.25888880  0.29534702  1  0  -0.352731  0  3.515903  0  0  -0.392323  0  3.761548  0  0  -0.397186  0  3.767158  0  -0.264861  0  -0.07415  -0.389104  0  3.758422  0
C  C82  1  0.76381966  0.62328996  0.93589837  1  0  -0.123604  0  3.759525  0  0  -0.143619  0  4.001884  0  0  -0.146397  0  4.02487  0  -0.015962  0  -0.092434  -0.141548  0  3.986128  0
C  C83  1  0.23617808  0.37671139  0.06410100  1  0  -0.123647  0  3.759609  0  0  -0.143655  0  4.001951  0  0  -0.146432  0  4.024936  0  -0.016169  0  -0.092431  -0.141571  0  3.986196  0
C  C84  1  0.83031165  0.68173442  0.04480018  1  0  -0.056749  0  3.760243  0  0  -0.06934  0  4.007808  0  0  -0.071723  0  4.029648  0  -0.047982  0  -0.089003  -0.067763  0  3.993052  0
C  C85  1  0.16968474  0.31826605  0.95519733  1  0  -0.056624  0  3.760262  0  0  -0.069201  0  4.007809  0  0  -0.071586  0  4.02965  0  -0.048463  0  -0.088938  -0.067623  0  3.99305  0
C  C86  1  0.82361052  0.62557508  0.11379111  1  0  -0.059448  0  3.73108  0  0  -0.077526  0  3.983067  0  0  -0.078135  0  4.003289  0  -0.117156  0  -0.08737  -0.077035  0  3.969606  0
C  C87  1  0.17639158  0.37443153  0.88621051  1  0  -0.059371  0  3.731195  0  0  -0.077466  0  3.983183  0  0  -0.078077  0  4.003407  0  -0.117156  0  -0.087326  -0.076975  0  3.969722  0
C  C88  1  0.75244560  0.51052721  0.07250157  1  0  -0.070908  0  3.780505  0  0  -0.083198  0  4.032541  0  0  -0.086358  0  4.055298  0  0.002807  0  -0.092051  -0.081056  0  4.01705  0
C  C89  1  0.24755842  0.48947414  0.92749723  1  0  -0.071062  0  3.780556  0  0  -0.083348  0  4.032609  0  0  -0.086508  0  4.055371  0  0.002738  0  -0.092138  -0.081207  0  4.01712  0
C  C90  1  0.68589259  0.45174379  0.96342896  1  0  -0.114803  0  3.736104  0  0  -0.137965  0  3.982017  0  0  -0.140198  0  4.00506  0  -0.086168  0  -0.089973  -0.136276  0  3.9663  0
C  C91  1  0.31410631  0.54825669  0.03657157  1  0  -0.114723  0  3.736007  0  0  -0.137857  0  3.981921  0  0  -0.140086  0  4.004969  0  -0.086481  0  -0.089924  -0.136164  0  3.96621  0
C  C92  1  0.69075226  0.50793642  0.89390148  1  0  0.051816  0  3.770282  0  0  0.077323  0  4.004058  0  0  0.07504  0  4.030486  0  -0.052454  0  -0.020359  0.078827  0  3.986058  0
C  C93  1  0.30925155  0.49206318  0.10609735  1  0  0.051932  0  3.770195  0  0  0.077383  0  4.00404  0  0  0.0751  0  4.030467  0  -0.052019  0  -0.020323  0.078886  0  3.986036  0
C  C94  1  0.61340260  0.44916438  0.77769400  1  0  -0.06119  0  3.525591  0  0  -0.125871  0  3.770033  0  0  -0.122096  0  3.779111  0  0.160226  0  -0.058927  -0.128368  0  3.764185  0
C  C95  1  0.38659609  0.55083435  0.22230508  1  0  -0.061252  0  3.525617  0  0  -0.125888  0  3.770049  0  0  -0.122113  0  3.779127  0  0.160226  0  -0.058933  -0.128381  0  3.764196  0
C  C96  1  0.77122682  0.26652631  0.70309375  1  0  -0.349738  0  3.464664  0  0  -0.380912  0  3.693846  0  0  -0.386562  0  3.69921  0  -0.332312  0  -0.065118  -0.377378  0  3.691642  0
C  C97  1  0.22877333  0.73347417  0.29690608  1  0  -0.349772  0  3.464687  0  0  -0.380936  0  3.693872  0  0  -0.386602  0  3.699227  0  -0.332339  0  -0.065123  -0.377403  0  3.691671  0
C  C98  1  0.88915344  0.45102734  0.69981886  1  0  -0.358986  0  3.517884  0  0  -0.399045  0  3.765319  0  0  -0.404013  0  3.770955  0  -0.288438  0  -0.075222  -0.395835  0  3.762308  0
C  C99  1  0.11084671  0.54897314  0.30018171  1  0  -0.358993  0  3.517919  0  0  -0.399024  0  3.765313  0  0  -0.403989  0  3.770947  0  -0.288448  0  -0.075234  -0.395814  0  3.762301  0
N  N100  1  0.25714742  0.80119751  0.68745443  1  0  -0.016453  0  3.347576  0  0  0.067573  0  3.552173  0  0  0.056551  0  3.571316  0  -0.997354  0  -0.3345  0.074947  0  3.53958  0
N  N101  1  0.74285388  0.19880209  0.31254582  1  0  -0.016535  0  3.347481  0  0  0.067515  0  3.552069  0  0  0.056486  0  3.571217  0  -0.997352  0  -0.334527  0.07489  0  3.539479  0
N  N102  1  0.73325839  0.37628835  0.69348169  1  0  -0.004841  0  3.338674  0  0  0.07823  0  3.542448  0  0  0.067257  0  3.561558  0  -0.99333  0  -0.329057  0.085518  0  3.530044  0
N  N103  1  0.26674050  0.62371213  0.30651810  1  0  -0.004853  0  3.338703  0  0  0.078203  0  3.542478  0  0  0.067233  0  3.561584  0  -0.993319  0  -0.329065  0.085491  0  3.530075  0
O  O104  1  0.97274903  0.95905922  0.67817445  1  0  -0.881551  0  1.950041  0  0  -0.818077  0  2.210912  0  0  -0.84174  0  2.19231  0  -1.459137  0  -0.438686  -0.795235  0  2.222014  0
O  O105  1  0.02724967  0.04093950  0.32182463  1  0  -0.881536  0  1.950037  0  0  -0.81807  0  2.210915  0  0  -0.841733  0  2.192314  0  -1.459207  0  -0.438676  -0.795229  0  2.222018  0
O  O106  1  0.20216769  0.11098738  0.67708661  1  0  -0.903505  0  1.997792  0  0  -0.827913  0  2.248491  0  0  -0.852922  0  2.228649  0  -1.46175  0  -0.408898  -0.804828  0  2.25991  0
O  O107  1  0.79783236  0.88901223  0.32291286  1  0  -0.903518  0  1.997779  0  0  -0.827917  0  2.24847  0  0  -0.85292  0  2.22863  0  -1.461756  0  -0.408918  -0.804837  0  2.259886  0
O  O108  1  0.12265241  0.92600422  0.50993984  1  0  -1.012876  0  2.04345  0  0  -0.95166  0  2.314907  0  0  -0.975154  0  2.294859  0  -1.472881  0  -0.453716  -0.923919  0  2.324157  0
O  O109  1  0.87734880  0.07399450  0.49005930  1  0  -1.01288  0  2.043487  0  0  -0.951648  0  2.314909  0  0  -0.975136  0  2.29485  0  -1.473001  0  -0.453709  -0.923907  0  2.324158  0
O  O110  1  0.44068312  0.62093652  0.48356625  1  0  -0.839471  0  1.983978  0  0  -0.757519  0  2.224758  0  0  -0.78332  0  2.206012  0  -1.45749  0  -0.360512  -0.739441  0  2.237376  0
O  O111  1  0.55931683  0.37906220  0.51643360  1  0  -0.839478  0  1.984037  0  0  -0.757517  0  2.224827  0  0  -0.783319  0  2.206082  0  -1.457484  0  -0.360509  -0.73944  0  2.237444  0
O  O112  1  0.64393535  0.59709208  0.62196203  1  0  -0.761319  0  2.000223  0  0  -0.68937  0  2.230031  0  0  -0.710926  0  2.20413  0  -1.426232  0  -0.391505  -0.674321  0  2.247944  0
O  O113  1  0.35606596  0.40290752  0.37803747  1  0  -0.761265  0  2.000244  0  0  -0.689331  0  2.230062  0  0  -0.710884  0  2.204157  0  -1.426268  0  -0.39149  -0.674281  0  2.247975  0
O  O114  1  0.66804320  0.78755247  0.60471190  1  0  -0.918283  0  1.974676  0  0  -0.858143  0  2.254253  0  0  -0.881886  0  2.232533  0  -1.467266  0  -0.449854  -0.833463  0  2.269925  0
O  O115  1  0.33195685  0.21244713  0.39528757  1  0  -0.918324  0  1.974704  0  0  -0.85818  0  2.254284  0  0  -0.881925  0  2.232567  0  -1.467265  0  -0.449888  -0.833501  0  2.269956  0
O  O116  1  0.48599521  0.20788565  0.77267760  1  0  -0.767852  0  2.003821  0  0  -0.698673  0  2.226584  0  0  -0.720022  0  2.203295  0  -1.431129  0  -0.388261  -0.683946  0  2.242895  0
O  O117  1  0.51400494  0.79211483  0.22732148  1  0  -0.767839  0  2.003832  0  0  -0.69864  0  2.226614  0  0  -0.71998  0  2.203337  0  -1.431169  0  -0.388262  -0.683924  0  2.242904  0
O  O118  1  0.65104738  0.04259225  0.64563819  1  0  -0.918019  0  1.977004  0  0  -0.856193  0  2.252625  0  0  -0.880386  0  2.23231  0  -1.465473  0  -0.451653  -0.8315  0  2.266959  0
O  O119  1  0.34895007  0.95740647  0.35436012  1  0  -0.918012  0  1.976885  0  0  -0.856207  0  2.25254  0  0  -0.880401  0  2.232226  0  -1.465461  0  -0.451665  -0.831514  0  2.266873  0
O  O120  1  0.48846460  0.16611320  0.56979765  1  0  -0.953021  0  1.981313  0  0  -0.895802  0  2.263981  0  0  -0.918545  0  2.241696  0  -1.47104  0  -0.459319  -0.871406  0  2.278965  0
O  O121  1  0.51153545  0.83388640  0.43020182  1  0  -0.953036  0  1.981334  0  0  -0.895795  0  2.263981  0  0  -0.918538  0  2.241697  0  -1.47103  0  -0.459316  -0.871398  0  2.278964  0
O  O122  1  0.12063791  0.29686701  0.59572258  1  0  -0.926572  0  1.966917  0  0  -0.869691  0  2.247674  0  0  -0.892785  0  2.225136  0  -1.468955  0  -0.447076  -0.844916  0  2.263512  0
O  O123  1  0.87936099  0.70313346  0.40427573  1  0  -0.926621  0  1.966893  0  0  -0.869756  0  2.247664  0  0  -0.892849  0  2.225128  0  -1.468778  0  -0.447117  -0.84498  0  2.263498  0
O  O124  1  0.15424436  0.50555845  0.61632838  1  0  -0.74853  0  1.987511  0  0  -0.67571  0  2.213959  0  0  -0.696987  0  2.188237  0  -1.414435  0  -0.387456  -0.660957  0  2.231775  0
O  O125  1  0.84575579  0.49444202  0.38367218  1  0  -0.748585  0  1.987488  0  0  -0.675753  0  2.21393  0  0  -0.697028  0  2.188207  0  -1.414442  0  -0.38746  -0.661011  0  2.23175  0
O  O126  1  0.92695244  0.36459298  0.47877634  1  0  -0.83906  0  2.005039  0  0  -0.758902  0  2.251128  0  0  -0.784181  0  2.231758  0  -1.4606  0  -0.358494  -0.741046  0  2.263667  0
O  O127  1  0.07304781  0.63540838  0.52122310  1  0  -0.83909  0  2.005019  0  0  -0.758951  0  2.251123  0  0  -0.784231  0  2.231752  0  -1.46057  0  -0.358533  -0.7411  0  2.263665  0
