# generated using pymatgen
data_AlH7C14O5F
_symmetry_space_group_name_H-M   'P 1'
_cell_length_a   6.70168478
_cell_length_b   11.13549049
_cell_length_c   17.59545413
_cell_angle_alpha   83.13140041
_cell_angle_beta   83.30415711
_cell_angle_gamma   71.97938843
_symmetry_Int_Tables_number   1
_chemical_formula_structural   AlH7C14O5F
_chemical_formula_sum   'Al2 H14 C28 O10 F2'
_cell_volume   1235.29892153
_cell_formula_units_Z   2
loop_
 _symmetry_equiv_pos_site_id
 _symmetry_equiv_pos_as_xyz
  1  'x, y, z'
loop_
 _atom_site_type_symbol
 _atom_site_label
 _atom_site_symmetry_multiplicity
 _atom_site_fract_x
 _atom_site_fract_y
 _atom_site_fract_z
 _atom_site_occupancy
 _atom_site_pbe_bader_charge
 _atom_site_pbe_bader_spin_density
 _atom_site_pbe_cm5_charge
 _atom_site_pbe_ddec_charge
 _atom_site_pbe_ddec_spin_density
 _atom_site_pbe_ddec_sum_bond_order
 _atom_site_pbe_magmom
Al  Al0  1  0.49695700  0.49821759  0.50323666  1  2.503289  0  0.399026  1.647776  0  2.576018  0
Al  Al1  1  0.99667190  0.49782399  0.50291051  1  2.504049  0  0.399935  1.640662  0  2.571964  0
H  H2  1  0.29480837  0.36122389  0.56930284  1  0.617659  0  0.3571  0.435639  0  0.843474  0
H  H3  1  0.68700385  0.65025211  0.45755646  1  0.631738  0  0.34303  0.416498  0  0.885337  0
H  H4  1  0.65150544  0.48164540  0.28573946  1  0.146681  0  0.112976  0.126697  0  1.010141  0
H  H5  1  0.74524638  0.47991897  0.14474999  1  0.102572  0  0.10146  0.104836  0  1.01937  0
H  H6  1  0.10129193  0.50719780  0.11335763  1  0.09902  0  0.112813  0.137439  0  0.991171  0
H  H7  1  0.89862439  0.48945326  0.89204411  1  0.090446  0  0.112731  0.137122  0  0.992395  0
H  H8  1  0.34326152  0.51688710  0.72157198  1  0.138921  0  0.112172  0.125063  0  1.014045  0
H  H9  1  0.25237287  0.51938657  0.86263311  1  0.090125  0  0.102199  0.105645  0  1.018175  0
H  H10  1  0.21284691  0.24339529  0.40029973  1  0.066213  0  0.105983  0.114335  0  1.037984  0
H  H11  1  0.53999539  0.13289866  0.32635223  1  0.070063  0  0.103248  0.100827  0  0.989257  0
H  H12  1  0.42859000  0.77410918  0.39671065  1  0.114065  0  0.106855  0.107888  0  1.03357  0
H  H13  1  0.64691002  0.89715145  0.32373619  1  0.066992  0  0.104515  0.102415  0  0.98457  0
H  H14  1  0.77195053  0.87614931  0.55220558  1  0.076159  0  0.112833  0.11871  0  0.981417  0
H  H15  1  0.65283741  0.11295903  0.54761809  1  0.091912  0  0.110296  0.113481  0  0.989  0
C  C16  1  0.86065886  0.27266296  0.49309673  1  1.568826  0  0.274275  0.656365  0  4.073335  0
C  C17  1  0.70944962  0.49708307  0.64152425  1  1.603933  0  0.265198  0.656548  0  4.102022  0
C  C18  1  0.13668032  0.72602514  0.49913644  1  1.523993  0  0.272708  0.654399  0  4.081213  0
C  C19  1  0.28481570  0.49857697  0.36464634  1  1.610288  0  0.265464  0.650418  0  4.104993  0
C  C20  1  0.32911209  0.49352180  0.27973641  1  -0.011579  0  -0.020764  -0.159557  0  3.958241  0
C  C21  1  0.53394898  0.48587723  0.24694449  1  0.011637  0  -0.074137  -0.059604  0  3.97515  0
C  C22  1  0.58567056  0.48530564  0.16842605  1  -0.059006  0  -0.087574  -0.14388  0  3.954538  0
C  C23  1  0.43064273  0.49356773  0.11847644  1  0.080358  0  0.007767  0.174436  0  4.120712  0
C  C24  1  0.22495334  0.50015947  0.15017056  1  0.056991  0  -0.094906  -0.264357  0  3.939854  0
C  C25  1  0.17874246  0.49970429  0.22905679  1  0.409569  0  0.110355  0.287816  0  4.051321  0
C  C26  1  0.47906795  0.49707553  0.03798178  1  -0.469389  0  -0.039243  -0.098358  0  4.095597  0
C  C27  1  0.52088570  0.50138539  0.96848742  1  0.163469  0  -0.038881  -0.098336  0  4.095912  0
C  C28  1  0.56832191  0.50437811  0.88795024  1  0.116315  0  0.007433  0.174815  0  4.120802  0
C  C29  1  0.77394415  0.49657220  0.85566333  1  -0.026318  0  -0.094686  -0.263744  0  3.93903  0
C  C30  1  0.81884591  0.49587214  0.77673958  1  0.431701  0  0.111025  0.289676  0  4.049003  0
C  C31  1  0.66707263  0.50251155  0.72652014  1  0.001156  0  -0.02097  -0.158008  0  3.951504  0
C  C32  1  0.46226669  0.51174508  0.75993811  1  -0.026932  0  -0.074126  -0.056733  0  3.974889  0
C  C33  1  0.41194823  0.51304560  0.83849812  1  0.010753  0  -0.0886  -0.146111  0  3.955812  0
C  C34  1  0.93549485  0.13344204  0.48516680  1  -0.016284  0  -0.005741  -0.081327  0  3.930744  0
C  C35  1  0.13288521  0.07228746  0.44496388  1  -0.000181  0  0.001097  0.059814  0  3.942953  0
C  C36  1  0.80559379  0.06351302  0.52001925  1  -0.033117  0  -0.080036  -0.091268  0  4.00377  0
C  C37  1  0.26135562  0.14062464  0.40118707  1  -0.014054  0  -0.089833  -0.130391  0  3.961021  0
C  C38  1  0.44400889  0.07853716  0.35952317  1  -0.04183  0  -0.090406  -0.07774  0  4.034301  0
C  C39  1  0.06714214  0.86728294  0.48823197  1  -0.006589  0  -0.006519  -0.080861  0  3.940662  0
C  C40  1  0.87166740  0.93075053  0.52216397  1  0.001824  0  -0.079952  -0.093204  0  4.001564  0
C  C41  1  0.19822347  0.93616183  0.44548903  1  0.030274  0  0.001445  0.062183  0  3.946615  0
C  C42  1  0.38465537  0.87607973  0.40011061  1  -0.04701  0  -0.094  -0.142763  0  3.987659  0
C  C43  1  0.50520538  0.94543474  0.35838717  1  -0.103534  0  -0.090492  -0.078889  0  4.043701  0
O  O44  1  0.66430495  0.32761408  0.48945394  1  -1.263157  0  -0.233235  -0.59082  0  2.332711  0
O  O45  1  0.88405139  0.50781568  0.60952799  1  -1.246013  0  -0.236895  -0.591191  0  2.342177  0
O  O46  1  0.99774840  0.67084891  0.49538400  1  -1.253263  0  -0.233402  -0.59517  0  2.341914  0
O  O47  1  0.42882213  0.51746812  0.39872799  1  -1.261357  0  -0.236457  -0.593399  0  2.365205  0
O  O48  1  0.32790832  0.67091964  0.51241467  1  -1.256057  0  -0.235093  -0.594161  0  2.346115  0
O  O49  1  0.11154980  0.48537688  0.39638903  1  -1.246836  0  -0.234622  -0.584033  0  2.352798  0
O  O50  1  0.99529528  0.32594625  0.50573150  1  -1.263269  0  -0.233004  -0.595684  0  2.354518  0
O  O51  1  0.56235366  0.48073236  0.60780996  1  -1.26186  0  -0.237866  -0.600522  0  2.352444  0
O  O52  1  0.26610434  0.43968157  0.53639323  1  -1.420389  0  -0.44778  -0.99051  0  2.193828  0
O  O53  1  0.72615782  0.55908484  0.46993143  1  -1.436725  0  -0.450152  -0.985227  0  2.185507  0
F  F54  1  0.97673927  0.50885272  0.25582123  1  -0.634076  0  -0.081314  -0.126019  0  1.397394  0
F  F55  1  0.02113742  0.48524811  0.74956586  1  -0.632163  0  -0.083254  -0.129637  0  1.397697  0
