# generated using pymatgen
data_KPH9C7NO7
_symmetry_space_group_name_H-M   'P 1'
_cell_length_a   7.39552335
_cell_length_b   9.53527799
_cell_length_c   16.32848390
_cell_angle_alpha   85.04320647
_cell_angle_beta   88.98990487
_cell_angle_gamma   84.13145011
_symmetry_Int_Tables_number   1
_chemical_formula_structural   KPH9C7NO7
_chemical_formula_sum   'K4 P4 H36 C28 N4 O28'
_cell_volume   1141.09474718
_cell_formula_units_Z   4
loop_
 _symmetry_equiv_pos_site_id
 _symmetry_equiv_pos_as_xyz
  1  'x, y, z'
loop_
 _atom_site_type_symbol
 _atom_site_label
 _atom_site_symmetry_multiplicity
 _atom_site_fract_x
 _atom_site_fract_y
 _atom_site_fract_z
 _atom_site_occupancy
 _atom_site_hle17_bader_spin_density
 _atom_site_hle17_ddec_charge
 _atom_site_hle17_ddec_spin_density
 _atom_site_hle17_ddec_sum_bond_order
 _atom_site_hle17_magmom
 _atom_site_hse06_10hf_bader_charge
 _atom_site_hse06_10hf_bader_spin_density
 _atom_site_hse06_10hf_ddec_charge
 _atom_site_hse06_10hf_ddec_spin_density
 _atom_site_hse06_10hf_ddec_sum_bond_order
 _atom_site_hse06_10hf_magmom
 _atom_site_hse06_bader_spin_density
 _atom_site_hse06_ddec_charge
 _atom_site_hse06_ddec_spin_density
 _atom_site_hse06_ddec_sum_bond_order
 _atom_site_hse06_magmom
 _atom_site_pbe_bader_spin_density
 _atom_site_pbe_cm5_charge
 _atom_site_pbe_ddec_charge
 _atom_site_pbe_ddec_spin_density
 _atom_site_pbe_ddec_sum_bond_order
 _atom_site_pbe_magmom
K  K0  1  0.32226533  0.64973233  0.92138661  1  0  0.946263  0  0.445666  0  0.894223  0  0.902629  0  0.616037  0  0  0.916187  0  0.593766  0  0  0.804064  0.892086  0  0.632286  0
K  K1  1  0.67774152  0.35025475  0.07860908  1  0  0.946259  0  0.445666  0  0.894219  0  0.902652  0  0.616002  0  0  0.916224  0  0.593718  0  0  0.804077  0.892107  0  0.63227  0
K  K2  1  0.67662971  0.83660621  0.06641441  1  0  0.945778  0  0.440383  0  0.893565  0  0.90307  0  0.610589  0  0  0.916345  0  0.589118  0  0  0.818544  0.892715  0  0.626336  0
K  K3  1  0.32336754  0.16339254  0.93358318  1  0  0.945776  0  0.440397  0  0.893562  0  0.903059  0  0.610612  0  0  0.91634  0  0.589128  0  0  0.818536  0.892709  0  0.626359  0
P  P4  1  0.79933454  0.58882489  0.89079444  1  0  1.697872  0  4.905562  0  3.678909  0  1.517368  0  5.437457  0  0  1.576916  0  5.380651  0  0  0.41651  1.474392  0  5.477618  0
P  P5  1  0.20066662  0.41117494  0.10920551  1  0  1.697787  0  4.905545  0  3.679065  0  1.517263  0  5.437463  0  0  1.576811  0  5.380664  0  0  0.416494  1.474286  0  5.477622  0
P  P6  1  0.20336144  0.90468994  0.08342279  1  0  1.70305  0  4.932679  0  3.687251  0  1.52168  0  5.468508  0  0  1.580551  0  5.411048  0  0  0.384479  1.478913  0  5.509415  0
P  P7  1  0.79663715  0.09530883  0.91657723  1  0  1.703023  0  4.93269  0  3.687332  0  1.521646  0  5.468524  0  0  1.580518  0  5.411071  0  0  0.384479  1.478882  0  5.509425  0
H  H8  1  0.90762910  0.79932324  0.89164054  1  0  0.470571  0  0.828709  0  0.702795  0  0.433136  0  0.901035  0  0  0.445132  0  0.883723  0  0  0.318169  0.423018  0  0.915522  0
H  H9  1  0.09236936  0.20067659  0.10835881  1  0  0.470561  0  0.828723  0  0.702787  0  0.433126  0  0.901044  0  0  0.445119  0  0.883736  0  0  0.31817  0.42301  0  0.91553  0
H  H10  1  0.37265907  0.66354389  0.72466657  1  0  0.121156  0  0.934732  0  0.071273  0  0.13378  0  0.988396  0  0  0.13737  0  0.987121  0  0  0.120407  0.131205  0  0.989488  0
H  H11  1  0.62734154  0.33646018  0.27533438  1  0  0.121159  0  0.934727  0  0.071302  0  0.133808  0  0.988352  0  0  0.137366  0  0.987118  0  0  0.120411  0.131235  0  0.989445  0
H  H12  1  0.38436107  0.66135545  0.57178191  1  0  0.118032  0  0.956032  0  0.115329  0  0.121435  0  1.023592  0  0  0.124837  0  1.020862  0  0  0.113266  0.118958  0  1.025673  0
H  H13  1  0.61563807  0.33864968  0.42821838  1  0  0.117956  0  0.956101  0  0.115313  0  0.121396  0  1.023624  0  0  0.124798  0  1.020895  0  0  0.11325  0.118921  0  1.025698  0
H  H14  1  0.96924149  0.60959914  0.57924105  1  0  0.126543  0  0.952634  0  0.184715  0  0.130093  0  1.019206  0  0  0.133971  0  1.015463  0  0  0.116139  0.12714  0  1.02217  0
H  H15  1  0.03075723  0.39039857  0.42075842  1  0  0.126557  0  0.952651  0  0.184697  0  0.130115  0  1.019204  0  0  0.133994  0  1.015461  0  0  0.116152  0.127162  0  1.022168  0
H  H16  1  0.95830986  0.61718464  0.73189587  1  0  0.122347  0  0.957836  0  0.107427  0  0.132249  0  1.015711  0  0  0.135914  0  1.014128  0  0  0.116245  0.129394  0  1.017327  0
H  H17  1  0.04169170  0.38281202  0.26810425  1  0  0.122339  0  0.95785  0  0.107727  0  0.132255  0  1.015711  0  0  0.13592  0  1.01413  0  0  0.116272  0.1294  0  1.017326  0
H  H18  1  0.08390789  0.69938916  0.10622860  1  0  0.457389  0  0.848192  0  0.687976  0  0.421155  0  0.918825  0  0  0.433151  0  0.901484  0  0  0.316554  0.411132  0  0.933234  0
H  H19  1  0.91609056  0.30061067  0.89377136  1  0  0.457427  0  0.84814  0  0.687974  0  0.421199  0  0.918766  0  0  0.433195  0  0.901426  0  0  0.31656  0.411176  0  0.933175  0
H  H20  1  0.15416464  0.68842834  0.26286142  1  0  0.126945  0  0.945537  0  0.123343  0  0.134046  0  1.008355  0  0  0.137156  0  1.00835  0  0  0.111086  0.13224  0  1.007626  0
H  H21  1  0.84583666  0.31157042  0.73713798  1  0  0.1269  0  0.945596  0  0.123374  0  0.134033  0  1.008382  0  0  0.137142  0  1.008377  0  0  0.111087  0.132227  0  1.007653  0
H  H22  1  0.09636758  0.72356053  0.41225950  1  0  0.122578  0  0.955085  0  0.159848  0  0.125499  0  1.0242  0  0  0.128925  0  1.021285  0  0  0.113518  0.12312  0  1.026245  0
H  H23  1  0.90363223  0.27643930  0.58774045  1  0  0.122576  0  0.955063  0  0.159855  0  0.125504  0  1.024172  0  0  0.128929  0  1.021258  0  0  0.113531  0.123127  0  1.026215  0
H  H24  1  0.39306144  0.09052960  0.38783919  1  0  0.102046  0  0.987789  0  0.153844  0  0.104686  0  1.061169  0  0  0.106833  0  1.061102  0  0  0.10577  0.103346  0  1.060749  0
H  H25  1  0.60693959  0.90947127  0.61215947  1  0  0.101996  0  0.987884  0  0.153978  0  0.104664  0  1.061214  0  0  0.106813  0  1.061146  0  0  0.10576  0.103317  0  1.060809  0
H  H26  1  0.44415494  0.05865144  0.23694382  1  0  0.130025  0  0.939506  0  0.105053  0  0.138851  0  0.998746  0  0  0.142827  0  0.996705  0  0  0.119178  0.135929  0  1.000695  0
H  H27  1  0.55584514  0.94134627  0.76305563  1  0  0.130022  0  0.93952  0  0.105048  0  0.138854  0  0.998754  0  0  0.142829  0  0.996716  0  0  0.119208  0.135937  0  1.000692  0
H  H28  1  0.11532845  0.94092451  0.85868216  1  0  0.358452  0  0.917087  0  0.630192  0  0.339948  0  0.982037  0  0  0.348668  0  0.97274  0  0  0.296512  0.333854  0  0.98854  0
H  H29  1  0.88467433  0.05907320  0.14131789  1  0  0.358602  0  0.916934  0  0.630201  0  0.340058  0  0.981971  0  0  0.348783  0  0.972655  0  0  0.296535  0.333966  0  0.988468  0
H  H30  1  0.28113406  0.91455771  0.70051910  1  0  0.071362  0  0.97083  0  0.035597  0  0.086217  0  1.043824  0  0  0.086216  0  1.044068  0  0  0.090969  0.08609  0  1.043765  0
H  H31  1  0.71886440  0.08544212  0.29948026  1  0  0.071365  0  0.970833  0  0.035504  0  0.086219  0  1.043828  0  0  0.086221  0  1.044067  0  0  0.090971  0.086094  0  1.043771  0
H  H32  1  0.06393109  0.86219332  0.73191328  1  0  0.062178  0  0.953057  0  0.01551  0  0.07803  0  1.024503  0  0  0.078519  0  1.024557  0  0  0.08423  0.077702  0  1.024224  0
H  H33  1  0.93606871  0.13780652  0.26808729  1  0  0.06219  0  0.953055  0  0.01552  0  0.078043  0  1.024498  0  0  0.078532  0  1.024552  0  0  0.084232  0.077715  0  1.024218  0
H  H34  1  0.10147525  0.04502299  0.72106639  1  0  0.059121  0  0.978362  0  0.05657  0  0.074812  0  1.049443  0  0  0.074895  0  1.050369  0  0  0.083512  0.074538  0  1.049038  0
H  H35  1  0.89852320  0.95497685  0.27893419  1  0  0.059124  0  0.978374  0  0.056583  0  0.074815  0  1.049449  0  0  0.074896  0  1.050381  0  0  0.083509  0.074542  0  1.049041  0
H  H36  1  0.12076542  0.43645470  0.84083631  1  0  0.36318  0  0.934869  0  0.629239  0  0.342867  0  1.000102  0  0  0.351899  0  0.990563  0  0  0.293345  0.336565  0  1.006769  0
H  H37  1  0.87923425  0.56354619  0.15916359  1  0  0.363174  0  0.93489  0  0.62924  0  0.342864  0  1.000109  0  0  0.351893  0  0.99058  0  0  0.293363  0.336563  0  1.006774  0
H  H38  1  0.19889219  0.43586769  0.70172869  1  0  0.065761  0  0.970274  0  0.043557  0  0.080395  0  1.042582  0  0  0.080932  0  1.042048  0  0  0.086894  0.079788  0  1.043322  0
H  H39  1  0.80111398  0.56413530  0.29827106  1  0  0.065708  0  0.970317  0  0.043546  0  0.08038  0  1.042605  0  0  0.080918  0  1.042067  0  0  0.086878  0.079773  0  1.043347  0
H  H40  1  0.23097025  0.26078780  0.75022571  1  0  0.060893  0  0.946982  0  0.046811  0  0.080245  0  1.012838  0  0  0.080982  0  1.012333  0  0  0.09089  0.079595  0  1.0133  0
H  H41  1  0.76903605  0.73921412  0.24977287  1  0  0.060926  0  0.946896  0  0.046723  0  0.080288  0  1.012745  0  0  0.081026  0  1.012239  0  0  0.090921  0.079638  0  1.013207  0
H  H42  1  0.41972927  0.36271113  0.73297321  1  0  0.082482  0  0.953194  0  0.072928  0  0.09922  0  1.019949  0  0  0.099307  0  1.021015  0  0  0.096489  0.099095  0  1.01914  0
H  H43  1  0.58027540  0.63729294  0.26702833  1  0  0.08251  0  0.953099  0  0.072989  0  0.099257  0  1.019849  0  0  0.099343  0  1.020914  0  0  0.096504  0.099134  0  1.019042  0
C  C44  1  0.66401394  0.63938534  0.73693074  1  0  0.358926  0  3.754276  0  0.434368  0  0.343207  0  4.014997  0  0  0.356978  0  4.030133  0  0  0.10969  0.334161  0  4.00398  0
C  C45  1  0.33598586  0.36061450  0.26306984  1  0  0.359045  0  3.754087  0  0.434406  0  0.343221  0  4.014951  0  0  0.356997  0  4.030079  0  0  0.109708  0.334173  0  4.003939  0
C  C46  1  0.50231499  0.65262751  0.69212984  1  0  -0.167982  0  3.702237  0  0.029955  0  -0.185587  0  3.955555  0  0  -0.19327  0  3.974926  0  0  -0.084451  -0.180985  0  3.942927  0
C  C47  1  0.49768563  0.34737657  0.30787172  1  0  -0.167983  0  3.702208  0  0.029973  0  -0.185561  0  3.955546  0  0  -0.193223  0  3.974926  0  0  -0.084415  -0.18096  0  3.942923  0
C  C48  1  0.50855384  0.65054218  0.60742775  1  0  -0.060014  0  3.732199  0  0.081233  0  -0.089089  0  3.99622  0  0  -0.085639  0  4.013161  0  0  -0.072941  -0.091493  0  3.985049  0
C  C49  1  0.49144529  0.34946295  0.39257316  1  0  -0.059983  0  3.73233  0  0.081278  0  -0.089072  0  3.996364  0  0  -0.08562  0  4.013292  0  0  -0.072943  -0.091476  0  3.985194  0
C  C50  1  0.67807141  0.63431088  0.56827982  1  0  0.056022  0  3.723461  0  0.247264  0  0.040217  0  3.984267  0  0  0.036104  0  4.006633  0  0  0.071096  0.043733  0  3.968663  0
C  C51  1  0.32192811  0.36569109  0.43172187  1  0  0.056091  0  3.723482  0  0.247219  0  0.040262  0  3.984378  0  0  0.036163  0  4.006736  0  0  0.071094  0.043779  0  3.968775  0
C  C52  1  0.84018683  0.62127872  0.61201864  1  0  -0.047291  0  3.70166  0  -0.066326  0  -0.073366  0  3.959641  0  0  -0.07035  0  3.977335  0  0  -0.067576  -0.075144  0  3.946532  0
C  C53  1  0.15981284  0.37872217  0.38798126  1  0  -0.047381  0  3.701759  0  -0.066321  0  -0.073444  0  3.959735  0  0  -0.07043  0  3.977428  0  0  -0.067613  -0.07522  0  3.946622  0
C  C54  1  0.83344625  0.62468904  0.69693741  1  0  -0.19018  0  3.715272  0  0.045692  0  -0.208041  0  3.967406  0  0  -0.216196  0  3.987951  0  0  -0.092672  -0.202626  0  3.952582  0
C  C55  1  0.16655368  0.37530974  0.30306322  1  0  -0.190182  0  3.715295  0  0.045414  0  -0.20802  0  3.967444  0  0  -0.216176  0  3.987989  0  0  -0.092697  -0.202603  0  3.952619  0
C  C56  1  0.29969857  0.87374437  0.24260495  1  0  0.345011  0  3.758416  0  0.438238  0  0.330581  0  4.020384  0  0  0.342135  0  4.036123  0  0  0.105029  0.323027  0  4.009616  0
C  C57  1  0.70030111  0.12625652  0.75739434  1  0  0.344953  0  3.758508  0  0.438328  0  0.330492  0  4.020536  0  0  0.342047  0  4.036273  0  0  0.105015  0.32294  0  4.009767  0
C  C58  1  0.20295191  0.77734806  0.29048344  1  0  -0.169949  0  3.687357  0  0.009151  0  -0.188663  0  3.941142  0  0  -0.195657  0  3.96089  0  0  -0.086818  -0.183967  0  3.926827  0
C  C59  1  0.79704803  0.22265071  0.70951596  1  0  -0.16992  0  3.687496  0  0.009138  0  -0.18865  0  3.941293  0  0  -0.195645  0  3.961043  0  0  -0.086819  -0.183954  0  3.926978  0
C  C60  1  0.17218488  0.79590644  0.37337391  1  0  -0.050599  0  3.698379  0  -0.008215  0  -0.077637  0  3.95676  0  0  -0.074727  0  3.973913  0  0  -0.067257  -0.079641  0  3.945038  0
C  C61  1  0.82781371  0.20409233  0.62662550  1  0  -0.050527  0  3.698374  0  -0.008216  0  -0.077533  0  3.956791  0  0  -0.074627  0  3.97394  0  0  -0.067218  -0.079538  0  3.94507  0
C  C62  1  0.24108126  0.90960690  0.40658120  1  0  0.06324  0  3.708657  0  0.244058  0  0.046469  0  3.958849  0  0  0.041401  0  3.981578  0  0  0.074591  0.049648  0  3.943713  0
C  C63  1  0.75891855  0.09039292  0.59341815  1  0  0.063247  0  3.708578  0  0.244051  0  0.046374  0  3.958908  0  0  0.041321  0  3.981618  0  0  0.074559  0.049553  0  3.94377  0
C  C64  1  0.33894389  0.00523701  0.35916118  1  0  -0.057835  0  3.732455  0  -0.017384  0  -0.084057  0  3.988765  0  0  -0.082018  0  4.00966  0  0  -0.071741  -0.084795  0  3.97344  0
C  C65  1  0.66105470  0.99476176  0.64083823  1  0  -0.057853  0  3.73249  0  -0.017535  0  -0.084046  0  3.988822  0  0  -0.082009  0  4.009706  0  0  -0.071726  -0.084783  0  3.973489  0
C  C66  1  0.36730687  0.98749813  0.27624286  1  0  -0.164925  0  3.690212  0  -0.003753  0  -0.185213  0  3.942524  0  0  -0.192246  0  3.962656  0  0  -0.085045  -0.181011  0  3.929002  0
C  C67  1  0.63269307  0.01250064  0.72375716  1  0  -0.164917  0  3.690243  0  -0.003732  0  -0.185203  0  3.942562  0  0  -0.192237  0  3.962698  0  0  -0.085118  -0.181004  0  3.929029  0
C  C68  1  0.16354698  0.93788677  0.74048639  1  0  -0.026709  0  3.701816  0  0.419485  0  -0.119261  0  3.979675  0  0  -0.112668  0  3.983081  0  0  -0.16195  -0.123452  0  3.97711  0
C  C69  1  0.83645283  0.06211306  0.25951357  1  0  -0.026742  0  3.701864  0  0.419556  0  -0.119289  0  3.97971  0  0  -0.112699  0  3.983116  0  0  -0.161951  -0.123479  0  3.977142  0
C  C70  1  0.27537770  0.36795443  0.74974792  1  0  -0.029396  0  3.703955  0  0.376708  0  -0.1221  0  3.982837  0  0  -0.115631  0  3.986104  0  0  -0.165735  -0.126401  0  3.980819  0
C  C71  1  0.72462833  0.63204963  0.25025238  1  0  -0.029415  0  3.703884  0  0.376781  0  -0.122165  0  3.98277  0  0  -0.115693  0  3.986032  0  0  -0.165771  -0.126469  0  3.980755  0
N  N72  1  0.68522487  0.63085937  0.47944381  1  0  0.47561  0  3.949939  0  0.302704  0  0.519054  0  4.229817  0  0  0.537502  0  4.239568  0  0  0.055367  0.50486  0  4.223813  0
N  N73  1  0.31477073  0.36914154  0.52055734  1  0  0.475655  0  3.949765  0  0.302742  0  0.519005  0  4.229834  0  0  0.537418  0  4.239598  0  0  0.055473  0.504812  0  4.223824  0
N  N74  1  0.21589604  0.92731469  0.49420110  1  0  0.472243  0  3.938243  0  0.34593  0  0.528659  0  4.19495  0  0  0.550391  0  4.202657  0  0  0.053748  0.51407  0  4.189952  0
N  N75  1  0.78410499  0.07268618  0.50579757  1  0  0.472309  0  3.938139  0  0.345954  0  0.528764  0  4.194847  0  0  0.550491  0  4.202551  0  0  0.053855  0.514175  0  4.18985  0
O  O76  1  0.64336875  0.64471550  0.82035684  1  0  -0.557151  0  2.295524  0  -1.349119  0  -0.476423  0  2.539628  0  0  -0.498423  0  2.529224  0  0  -0.223157  -0.460708  0  2.54638  0
O  O77  1  0.35663145  0.35528117  0.17964390  1  0  -0.557178  0  2.295399  0  -1.349136  0  -0.476425  0  2.539556  0  0  -0.498424  0  2.529144  0  0  -0.223131  -0.460707  0  2.546308  0
O  O78  1  0.94829100  0.69620563  0.87925828  1  0  -0.827137  0  2.0136  0  -1.469388  0  -0.757942  0  2.253721  0  0  -0.780055  0  2.225453  0  0  -0.426936  -0.740718  0  2.274598  0
O  O79  1  0.05170880  0.30379420  0.12074168  1  0  -0.827125  0  2.013573  0  -1.469387  0  -0.757926  0  2.253719  0  0  -0.780042  0  2.225457  0  0  -0.42696  -0.7407  0  2.274594  0
O  O80  1  0.89281612  0.44965501  0.86644254  1  0  -0.871712  0  2.001711  0  -1.495635  0  -0.786567  0  2.238304  0  0  -0.812914  0  2.215313  0  0  -0.351647  -0.767  0  2.254887  0
O  O81  1  0.10718774  0.55034483  0.13355861  1  0  -0.871723  0  2.001661  0  -1.495778  0  -0.786557  0  2.238247  0  0  -0.812903  0  2.215257  0  0  -0.351678  -0.766992  0  2.25483  0
O  O82  1  0.69368819  0.59483470  0.96964284  1  0  -0.957152  0  1.867495  0  -1.505171  0  -0.897196  0  2.122541  0  0  -0.922092  0  2.099398  0  0  -0.499788  -0.878844  0  2.138057  0
O  O83  1  0.30631053  0.40516302  0.03035724  1  0  -0.957078  0  1.867582  0  -1.505162  0  -0.897106  0  2.1226  0  0  -0.922002  0  2.09946  0  0  -0.499737  -0.878754  0  2.138117  0
O  O84  1  0.54019806  0.65373148  0.44090781  1  0  -0.354592  0  1.780574  0  -0.48818  0  -0.340688  0  1.987178  0  0  -0.351862  0  1.987443  0  0  -0.127195  -0.332408  0  1.987151  0
O  O85  1  0.45979727  0.34627155  0.55909446  1  0  -0.354607  0  1.780455  0  -0.488157  0  -0.340639  0  1.987107  0  0  -0.351798  0  1.987374  0  0  -0.127228  -0.332365  0  1.987082  0
O  O86  1  0.83630918  0.60370147  0.44622998  1  0  -0.368471  0  1.787761  0  -0.483761  0  -0.350391  0  1.993801  0  0  -0.361983  0  1.989825  0  0  -0.128813  -0.341912  0  1.99673  0
O  O87  1  0.16368548  0.39629626  0.55377074  1  0  -0.368529  0  1.787724  0  -0.483885  0  -0.350413  0  1.993788  0  0  -0.361989  0  1.989814  0  0  -0.128882  -0.341936  0  1.996718  0
O  O88  1  0.34108956  0.85357845  0.16109896  1  0  -0.576626  0  2.288419  0  -1.352307  0  -0.493862  0  2.531128  0  0  -0.51374  0  2.519558  0  0  -0.228764  -0.479405  0  2.538681  0
O  O89  1  0.65891025  0.14642138  0.83890039  1  0  -0.57654  0  2.288391  0  -1.35237  0  -0.493768  0  2.531106  0  0  -0.513645  0  2.519536  0  0  -0.228739  -0.479313  0  2.538659  0
O  O90  1  0.04395939  0.80639889  0.09486366  1  0  -0.829323  0  2.019751  0  -1.475016  0  -0.761358  0  2.262114  0  0  -0.783036  0  2.233853  0  0  -0.447439  -0.744544  0  2.283264  0
O  O91  1  0.95603771  0.19360095  0.90513632  1  0  -0.829394  0  2.019795  0  -1.475093  0  -0.761439  0  2.262151  0  0  -0.783119  0  2.233893  0  0  -0.447426  -0.744621  0  2.283298  0
O  O92  1  0.11554921  0.05297300  0.09177016  1  0  -0.89742  0  1.978422  0  -1.505937  0  -0.813807  0  2.220828  0  0  -0.839886  0  2.197443  0  0  -0.373616  -0.794128  0  2.237379  0
O  O93  1  0.88444925  0.94702682  0.90822920  1  0  -0.897376  0  1.97846  0  -1.505959  0  -0.813756  0  2.220841  0  0  -0.83984  0  2.197464  0  0  -0.373596  -0.794076  0  2.237388  0
O  O94  1  0.32323077  0.87922963  0.01003129  1  0  -0.975215  0  1.891754  0  -1.502437  0  -0.913299  0  2.149987  0  0  -0.938553  0  2.127619  0  0  -0.53958  -0.895032  0  2.165473  0
O  O95  1  0.67676796  0.12076808  0.98996817  1  0  -0.975238  0  1.891749  0  -1.502447  0  -0.913323  0  2.149981  0  0  -0.938581  0  2.127618  0  0  -0.539647  -0.895057  0  2.165467  0
O  O96  1  0.27961218  0.02834269  0.52273070  1  0  -0.349137  0  1.744324  0  -0.472937  0  -0.342661  0  1.93667  0  0  -0.354247  0  1.934416  0  0  -0.133922  -0.334933  0  1.938189  0
O  O97  1  0.72038749  0.97165819  0.47726859  1  0  -0.349135  0  1.744319  0  -0.472969  0  -0.342699  0  1.936661  0  0  -0.354285  0  1.934408  0  0  -0.133967  -0.334969  0  1.938178  0
O  O98  1  0.13254998  0.83912205  0.53667598  1  0  -0.372979  0  1.754084  0  -0.499032  0  -0.362392  0  1.9503  0  0  -0.376145  0  1.9475  0  0  -0.13935  -0.353063  0  1.95218  0
O  O99  1  0.86744970  0.16087884  0.46332392  1  0  -0.372992  0  1.754021  0  -0.499063  0  -0.362426  0  1.950273  0  0  -0.376177  0  1.947473  0  0  -0.139387  -0.353097  0  1.952154  0
O  O100  1  0.22538332  0.92704787  0.82405237  1  0  -0.579666  0  2.070899  0  -1.185121  0  -0.529832  0  2.304462  0  0  -0.544738  0  2.293725  0  0  -0.473043  -0.519078  0  2.311319  0
O  O101  1  0.77461919  0.07295195  0.17594696  1  0  -0.579805  0  2.070779  0  -1.185141  0  -0.529949  0  2.304339  0  0  -0.544857  0  2.293603  0  0  -0.473074  -0.519194  0  2.311192  0
O  O102  1  0.25318273  0.42239190  0.82901449  1  0  -0.603635  0  2.093608  0  -1.191002  0  -0.550201  0  2.329293  0  0  -0.566011  0  2.318719  0  0  -0.51687  -0.539071  0  2.336352  0
O  O103  1  0.74681815  0.57761006  0.17098596  1  0  -0.603591  0  2.093625  0  -1.191052  0  -0.550177  0  2.329359  0  0  -0.565987  0  2.31878  0  0  -0.516867  -0.539045  0  2.336417  0
