# generated using pymatgen
data_CdH16C22(N3O2)2
_symmetry_space_group_name_H-M   'P 1'
_cell_length_a   8.04703801
_cell_length_b   10.44894621
_cell_length_c   13.77292462
_cell_angle_alpha   68.28065385
_cell_angle_beta   74.04068523
_cell_angle_gamma   70.85358414
_symmetry_Int_Tables_number   1
_chemical_formula_structural   CdH16C22(N3O2)2
_chemical_formula_sum   'Cd2 H32 C44 N12 O8'
_cell_volume   1000.65980493
_cell_formula_units_Z   2
loop_
 _symmetry_equiv_pos_site_id
 _symmetry_equiv_pos_as_xyz
  1  'x, y, z'
loop_
 _atom_site_type_symbol
 _atom_site_label
 _atom_site_symmetry_multiplicity
 _atom_site_fract_x
 _atom_site_fract_y
 _atom_site_fract_z
 _atom_site_occupancy
 _atom_site_pbe_bader_spin_density
 _atom_site_pbe_cm5_charge
 _atom_site_pbe_ddec_charge
 _atom_site_pbe_ddec_spin_density
 _atom_site_pbe_ddec_sum_bond_order
 _atom_site_pbe_magmom
Cd  Cd0  1  0.73986789  0.03591566  0.44888589  1  0  0.794463  0.968396  0  2.08044  0
Cd  Cd1  1  0.26013540  0.96408195  0.55111517  1  0  0.794462  0.96841  0  2.080407  0
H  H2  1  0.70624830  0.70154941  0.17236066  1  0  0.112245  0.076428  0  0.996779  0
H  H3  1  0.29374036  0.29845778  0.82763848  1  0  0.112267  0.076432  0  0.996901  0
H  H4  1  0.78462338  0.06719795  0.21101037  1  0  0.119771  0.095128  0  0.9934  0
H  H5  1  0.21537309  0.93280497  0.78898878  1  0  0.119786  0.095167  0  0.993402  0
H  H6  1  0.89482643  0.78852707  0.00630363  1  0  0.09199  0.085096  0  1.043531  0
H  H7  1  0.10516676  0.21147376  0.99369952  1  0  0.091958  0.08504  0  1.043569  0
H  H8  1  0.87901020  0.91192880  0.81653940  1  0  0.095882  0.103769  0  1.073863  0
H  H9  1  0.12098250  0.08806561  0.18346275  1  0  0.095871  0.103739  0  1.073927  0
H  H10  1  0.56941151  0.29744785  0.89040945  1  0  0.094276  0.087144  0  1.037512  0
H  H11  1  0.43059568  0.70255397  0.10958690  1  0  0.094269  0.087162  0  1.037494  0
H  H12  1  0.58412732  0.17407129  0.08029178  1  0  0.094254  0.092056  0  1.034179  0
H  H13  1  0.41587236  0.82593375  0.91970626  1  0  0.09424  0.092023  0  1.034203  0
H  H14  1  0.66381016  0.01735994  0.69255687  1  0  0.11347  0.083601  0  1.024212  0
H  H15  1  0.33618983  0.98263982  0.30744553  1  0  0.113464  0.083596  0  1.024195  0
H  H16  1  0.77759900  0.37851153  0.71708526  1  0  0.112941  0.0838  0  0.98895  0
H  H17  1  0.22241013  0.62148394  0.28291550  1  0  0.112954  0.083815  0  0.98894  0
H  H18  1  0.48489029  0.58133645  0.84341561  1  0  0.101152  0.101014  0  1.027162  0
H  H19  1  0.51511238  0.41865903  0.15658615  1  0  0.101136  0.101005  0  1.027206  0
H  H20  1  0.67980703  0.41550196  0.97604381  1  0  0.100046  0.098212  0  1.02261  0
H  H21  1  0.32019813  0.58449779  0.02395781  1  0  0.100037  0.098188  0  1.022645  0
H  H22  1  0.98845418  0.43914293  0.95141337  1  0  0.098671  0.090273  0  1.038655  0
H  H23  1  0.01155010  0.56085572  0.04858578  1  0  0.098664  0.090237  0  1.038687  0
H  H24  1  0.09520552  0.63031994  0.79733912  1  0  0.108269  0.117038  0  0.994361  0
H  H25  1  0.90480121  0.36967544  0.20265478  1  0  0.108261  0.11706  0  0.99429  0
H  H26  1  0.78687101  0.56966392  0.50944477  1  0  0.289804  0.288044  0  1.033525  0
H  H27  1  0.21313005  0.43033684  0.49055283  1  0  0.289802  0.28804  0  1.033522  0
H  H28  1  0.84581461  0.71764753  0.51823054  1  0  0.294369  0.31088  0  1.008094  0
H  H29  1  0.15418643  0.28235324  0.48176778  1  0  0.294391  0.310889  0  1.008071  0
H  H30  1  0.70234154  0.49823118  0.38234863  1  0  0.290234  0.28725  0  1.031651  0
H  H31  1  0.29765589  0.50176857  0.61765345  1  0  0.290221  0.287216  0  1.03169  0
H  H32  1  0.64453881  0.35292192  0.37171745  1  0  0.29817  0.317151  0  1.008623  0
H  H33  1  0.35545929  0.64707570  0.62828513  1  0  0.29814  0.317127  0  1.008615  0
C  C34  1  0.77773901  0.74801804  0.37880616  1  0  0.342928  0.5639  0  4.081825  0
C  C35  1  0.22225877  0.25198487  0.62119206  1  0  0.342953  0.563919  0  4.081923  0
C  C36  1  0.73500874  0.75538039  0.21819251  1  0  0.064137  0.098355  0  4.005318  0
C  C37  1  0.26498352  0.24462359  0.78180698  1  0  0.064122  0.098293  0  4.005636  0
C  C38  1  0.75205819  0.89591871  0.17017279  1  0  -0.028033  -0.076175  0  4.049434  0
C  C39  1  0.24793568  0.10408421  0.82982748  1  0  -0.028007  -0.076041  0  4.049421  0
C  C40  1  0.77472570  0.95712222  0.23890825  1  0  0.062917  0.106689  0  3.936619  0
C  C41  1  0.22527077  0.04288070  0.76109090  1  0  0.062879  0.10655  0  3.936652  0
C  C42  1  0.74185129  0.97183090  0.05760894  1  0  -0.011538  0.07787  0  4.03348  0
C  C43  1  0.25814648  0.02817201  0.94239001  1  0  -0.011541  0.077875  0  4.033378  0
C  C44  1  0.82035665  0.89974439  0.98147233  1  0  -0.093861  -0.124108  0  3.991076  0
C  C45  1  0.17963950  0.10025536  0.01852922  1  0  -0.093845  -0.124073  0  3.99106  0
C  C46  1  0.81068267  0.96851372  0.87471696  1  0  -0.095687  -0.12992  0  3.97259  0
C  C47  1  0.18931254  0.03148495  0.12528432  1  0  -0.095689  -0.129881  0  3.97259  0
C  C48  1  0.72188620  0.11346053  0.83958329  1  0  -0.013518  0.07358  0  4.034513  0
C  C49  1  0.27811385  0.88653920  0.16041694  1  0  -0.013521  0.07353  0  4.034508  0
C  C50  1  0.64288769  0.18589890  0.91551410  1  0  -0.097894  -0.141489  0  4.01999  0
C  C51  1  0.35711431  0.81410294  0.08448378  1  0  -0.097904  -0.141532  0  4.020011  0
C  C52  1  0.65234188  0.11658670  0.02253560  1  0  -0.09601  -0.128635  0  3.987881  0
C  C53  1  0.34765849  0.88341620  0.97746222  1  0  -0.095985  -0.128576  0  3.987811  0
C  C54  1  0.71491120  0.18678545  0.72619993  1  0  -0.027176  -0.074442  0  4.045313  0
C  C55  1  0.28508952  0.81321215  0.27380080  1  0  -0.027185  -0.07442  0  4.045365  0
C  C56  1  0.68627068  0.12372745  0.66052636  1  0  0.062141  0.118778  0  3.938381  0
C  C57  1  0.31373004  0.87627015  0.33947437  1  0  0.06218  0.118833  0  3.938409  0
C  C58  1  0.70029495  0.32434734  0.51550432  1  0  0.344777  0.573542  0  4.064859  0
C  C59  1  0.29970703  0.67565027  0.48449767  1  0  0.344747  0.573555  0  4.064806  0
C  C60  1  0.74401843  0.32311743  0.67422399  1  0  0.064962  0.108787  0  3.95676  0
C  C61  1  0.25598616  0.67688017  0.32577687  1  0  0.065002  0.108832  0  3.956772  0
C  C62  1  0.54495398  0.78957796  0.67385451  1  0  0.203546  0.569971  0  4.208792  0
C  C63  1  0.45504639  0.21042071  0.32614669  1  0  0.203518  0.569898  0  4.208887  0
C  C64  1  0.67987993  0.69532785  0.74527535  1  0  -0.013829  -0.056478  0  3.903225  0
C  C65  1  0.32012207  0.30466976  0.25472591  1  0  -0.013788  -0.056428  0  3.90304  0
C  C66  1  0.62032219  0.58928461  0.83440404  1  0  -0.088926  -0.106378  0  4.004454  0
C  C67  1  0.37967780  0.41071514  0.16559836  1  0  -0.088972  -0.106455  0  4.004488  0
C  C68  1  0.72869562  0.49766978  0.90844641  1  0  -0.092375  -0.086281  0  4.022758  0
C  C69  1  0.27130698  0.50232996  0.09155487  1  0  -0.092338  -0.086201  0  4.022775  0
C  C70  1  0.90132886  0.51094006  0.89470257  1  0  -0.090447  -0.08144  0  4.027704  0
C  C71  1  0.09867246  0.48905968  0.10529819  1  0  -0.09044  -0.081417  0  4.027773  0
C  C72  1  0.96175060  0.61689017  0.80846255  1  0  -0.083623  -0.094341  0  3.955236  0
C  C73  1  0.03825147  0.38310740  0.19153581  1  0  -0.083593  -0.094339  0  3.955192  0
C  C74  1  0.85419723  0.70921982  0.73264481  1  0  -0.006154  -0.034293  0  3.895078  0
C  C75  1  0.14580153  0.29077991  0.26735561  1  0  -0.006189  -0.034353  0  3.895045  0
C  C76  1  0.94172315  0.81451332  0.64160490  1  0  0.209935  0.570801  0  4.226928  0
C  C77  1  0.05827725  0.18548533  0.35839486  1  0  0.209919  0.570818  0  4.226768  0
N  N78  1  0.78500137  0.88748380  0.34122233  1  0  -0.334092  -0.373005  0  3.36739  0
N  N79  1  0.21499805  0.11251805  0.65877594  1  0  -0.334056  -0.372918  0  3.367439  0
N  N80  1  0.74710090  0.68208917  0.31894833  1  0  -0.320092  -0.377  0  3.305404  0
N  N81  1  0.25289398  0.31791479  0.68104931  1  0  -0.320105  -0.377036  0  3.30559  0
N  N82  1  0.80070348  0.67311603  0.47819015  1  0  -0.56853  -0.624357  0  3.346313  0
N  N83  1  0.19929467  0.32688579  0.52180687  1  0  -0.568567  -0.624375  0  3.346332  0
N  N84  1  0.68142215  0.18768486  0.55706074  1  0  -0.334086  -0.387594  0  3.372484  0
N  N85  1  0.31857853  0.81231275  0.44294145  1  0  -0.334093  -0.387692  0  3.372557  0
N  N86  1  0.73644862  0.39124736  0.57224580  1  0  -0.31666  -0.363505  0  3.300448  0
N  N87  1  0.26355433  0.60875131  0.42775500  1  0  -0.316706  -0.363563  0  3.300462  0
N  N88  1  0.68372204  0.39642832  0.41459508  1  0  -0.56982  -0.630982  0  3.354627  0
N  N89  1  0.31627733  0.60356931  0.58540802  1  0  -0.569773  -0.630923  0  3.354604  0
O  O90  1  0.56477635  0.90780972  0.60560472  1  0  -0.327224  -0.585533  0  2.382625  0
O  O91  1  0.43522437  0.09218788  0.39439601  1  0  -0.327212  -0.585491  0  2.382666  0
O  O92  1  0.40406473  0.74912670  0.68928995  1  0  -0.321506  -0.563457  0  2.266649  0
O  O93  1  0.59593564  0.25087197  0.31071126  1  0  -0.321496  -0.563423  0  2.266637  0
O  O94  1  0.93238080  0.83126360  0.54690990  1  0  -0.322347  -0.569436  0  2.374635  0
O  O95  1  0.06761927  0.16873612  0.45308961  1  0  -0.322342  -0.569438  0  2.37451  0
O  O96  1  0.02765417  0.87571998  0.66754365  1  0  -0.311923  -0.538702  0  2.326276  0
O  O97  1  0.97234657  0.12427761  0.33245635  1  0  -0.311899  -0.538676  0  2.3262  0
