# generated using pymatgen
data_Zn4H46C73N20
_symmetry_space_group_name_H-M   'P 1'
_cell_length_a   20.24999876
_cell_length_b   19.75202138
_cell_length_c   21.53724899
_cell_angle_alpha   108.95493247
_cell_angle_beta   105.01669877
_cell_angle_gamma   111.70612671
_symmetry_Int_Tables_number   1
_chemical_formula_structural   Zn4H46C73N20
_chemical_formula_sum   'Zn4 H46 C73 N20'
_cell_volume   6828.34999559
_cell_formula_units_Z   1
loop_
 _symmetry_equiv_pos_site_id
 _symmetry_equiv_pos_as_xyz
  1  'x, y, z'
loop_
 _atom_site_type_symbol
 _atom_site_label
 _atom_site_symmetry_multiplicity
 _atom_site_fract_x
 _atom_site_fract_y
 _atom_site_fract_z
 _atom_site_occupancy
 _atom_site_pbe_bader_charge
 _atom_site_pbe_bader_spin_density
 _atom_site_pbe_cm5_charge
 _atom_site_pbe_ddec_charge
 _atom_site_pbe_ddec_spin_density
 _atom_site_pbe_ddec_sum_bond_order
 _atom_site_pbe_magmom
Zn  Zn0  1  0.59975583  0.59382990  0.50404656  1  1.177561  0  0.741372  0.608556  0  2.476821  0
Zn  Zn1  1  0.36389910  0.36906405  0.46782315  1  1.163863  0  0.780968  0.692074  0  2.2981  0
Zn  Zn2  1  0.50703139  0.57502782  0.61351875  1  1.174256  0  0.748185  0.677408  0  2.216539  0
Zn  Zn3  1  0.48357604  0.38970414  0.37976758  1  1.206077  0  0.75775  0.68309  0  2.251133  0
H  H4  1  0.75166769  0.78491955  0.61214613  1  0.077315  0  0.117814  0.105614  0  0.995336  0
H  H5  1  0.52612503  0.76299988  0.65372303  1  0.105565  0  0.124805  0.113857  0  0.981535  0
H  H6  1  0.33440095  0.30608604  0.21066120  1  0.074439  0  0.120406  0.105618  0  0.998857  0
H  H7  1  0.22229524  0.35480579  0.35263649  1  0.080677  0  0.121517  0.110952  0  1.003571  0
H  H8  1  0.53546540  0.69048395  0.44486251  1  0.096246  0  0.121356  0.117269  0  0.989755  0
H  H9  1  0.46786242  0.40798715  0.24128176  1  0.066624  0  0.112286  0.097263  0  1.019287  0
H  H10  1  0.37060468  0.61878746  0.61635339  1  0.084785  0  0.119639  0.109729  0  0.995175  0
H  H11  1  0.01757243  0.57056310  0.70226538  1  0.063159  0  0.099098  0.086288  0  0.993618  0
H  H12  1  0.04546545  0.43649211  0.65476311  1  0.059605  0  0.098171  0.08507  0  0.994708  0
H  H13  1  0.10054917  0.64034298  0.63142188  1  0.067115  0  0.098346  0.085115  0  0.993604  0
H  H14  1  0.43088589  0.29218669  0.56562232  1  0.118273  0  0.122652  0.115718  0  1.016472  0
H  H15  1  0.95762420  0.55352286  0.50349273  1  0.063228  0  0.09856  0.085758  0  0.990993  0
H  H16  1  0.98580101  0.41905657  0.45554285  1  0.043088  0  0.096624  0.082693  0  0.99676  0
H  H17  1  0.90246980  0.34927288  0.52683741  1  0.060292  0  0.097139  0.083884  0  0.995524  0
H  H18  1  0.70993609  0.16291520  0.61264346  1  0.065466  0  0.098881  0.085961  0  0.993944  0
H  H19  1  0.65335874  0.08932771  0.69436009  1  0.089048  0  0.100692  0.088813  0  0.990811  0
H  H20  1  0.63480108  0.00462410  0.49156340  1  0.061265  0  0.097201  0.083089  0  0.997657  0
H  H21  1  0.49739104  0.01723684  0.44331509  1  0.051939  0  0.098217  0.08506  0  0.991441  0
H  H22  1  0.44020808  0.94279880  0.52543067  1  0.043954  0  0.098584  0.086079  0  0.991094  0
H  H23  1  0.67657384  0.58187703  0.86269944  1  0.056298  0  0.09918  0.101345  0  0.997929  0
H  H24  1  0.63583021  0.56818689  0.73226658  1  0.108675  0  0.112871  0.105793  0  1.025079  0
H  H25  1  0.71319877  0.57888854  0.98070743  1  0.073688  0  0.103449  0.104983  0  1.013779  0
H  H26  1  0.70949860  0.64537858  0.17086701  1  0.100593  0  0.104541  0.106183  0  0.997184  0
H  H27  1  0.67550618  0.65448127  0.27526098  1  0.035273  0  0.098644  0.099493  0  1.001476  0
H  H28  1  0.50666523  0.32230115  0.75334446  1  0.062977  0  0.098709  0.098979  0  1.003691  0
H  H29  1  0.58038782  0.38099880  0.07041054  1  0.095109  0  0.102893  0.103585  0  1.018427  0
H  H30  1  0.54407887  0.32005681  0.87213524  1  0.063121  0  0.103442  0.105124  0  0.999001  0
H  H31  1  0.54796282  0.38868073  0.17519340  1  0.056505  0  0.095094  0.093999  0  1.007104  0
H  H32  1  0.23564960  0.30314193  0.11978352  1  0.035128  0  0.09986  0.099482  0  1.000159  0
H  H33  1  0.11190602  0.22205133  0.00608040  1  0.077116  0  0.104691  0.105058  0  1.016229  0
H  H34  1  0.97203388  0.04036527  0.81970013  1  0.100856  0  0.104492  0.105777  0  0.997705  0
H  H35  1  0.65971466  0.37496420  0.40054257  1  0.075988  0  0.123026  0.11228  0  0.982253  0
H  H36  1  0.87321291  0.89849428  0.71958227  1  0.055423  0  0.098986  0.099967  0  1.001636  0
H  H37  1  0.82842609  0.01899166  0.93587662  1  0.070409  0  0.103346  0.104081  0  1.015524  0
H  H38  1  0.97670399  0.20009633  0.12972214  1  0.083496  0  0.105878  0.108955  0  0.994951  0
H  H39  1  0.72828775  0.87776542  0.83566016  1  0.036725  0  0.098262  0.09862  0  1.000566  0
H  H40  1  0.42099764  0.36111097  0.68885013  1  0.061815  0  0.110938  0.09615  0  0.996537  0
H  H41  1  0.71122233  0.56198342  0.60863400  1  0.13148  0  0.124585  0.124147  0  0.994782  0
H  H42  1  0.54937952  0.27663063  0.42514867  1  0.085206  0  0.121723  0.108706  0  1.001718  0
H  H43  1  0.67884404  0.72365284  0.76781803  1  0.082488  0  0.11208  0.098934  0  1.007285  0
H  H44  1  0.67680008  0.64503073  0.39232768  1  0.095415  0  0.120509  0.108774  0  0.991028  0
H  H45  1  0.17572132  0.31150454  0.52075748  1  0.069758  0  0.104399  0.14894  0  0.969625  0
H  H46  1  0.13261953  0.33175752  0.45127796  1  0.069848  0  0.100607  0.142511  0  0.983117  0
H  H47  1  0.19489254  0.28816339  0.44266696  1  0.027852  0  0.091614  0.120552  0  1.010516  0
H  H48  1  0.51634990  0.10207535  0.64699459  1  0.069195  0  0.098305  0.084672  0  0.994756  0
H  H49  1  0.09983372  0.27810121  0.24410771  1  0.058246  0  0.098918  0.099533  0  1.003298  0
C  C50  1  0.72583650  0.75643843  0.64161300  1  0.440554  0  0.007821  -0.049815  0  3.988584  0
C  C51  1  0.50423001  0.26626735  0.50846249  1  0.135016  0  -0.022292  0.053414  0  4.174901  0
C  C52  1  0.54799936  0.45988975  0.73610612  1  0.006479  0  -0.041259  -0.048755  0  4.078841  0
C  C53  1  0.71647068  0.46811358  0.51914334  1  0.080001  0  -0.028223  0.043097  0  4.192249  0
C  C54  1  0.62204562  0.58664030  0.36450421  1  0.395607  0  0.012965  -0.044803  0  3.958813  0
C  C55  1  0.25564916  0.41724563  0.51871499  1  0.458796  0  0.096785  0.211468  0  3.975853  0
C  C56  1  0.52558239  0.73163780  0.60165668  1  0.444358  0  0.022792  -0.035613  0  3.930586  0
C  C57  1  0.31813971  0.32155453  0.25540875  1  0.41884  0  0.016766  -0.030576  0  3.959609  0
C  C58  1  0.25991107  0.34514327  0.32697517  1  0.417358  0  0.011971  -0.041293  0  3.956825  0
C  C59  1  0.53010416  0.69473763  0.49467588  1  0.420057  0  0.009263  -0.050952  0  3.942601  0
C  C60  1  0.51618493  0.46522550  0.28801787  1  0.368262  0  -0.002879  -0.065565  0  4.002412  0
C  C61  1  0.45262583  0.29295889  0.52478227  1  0.414041  0  0.02185  -0.025348  0  3.914735  0
C  C62  1  0.34096820  0.55224716  0.58388047  1  0.487314  0  0.014167  -0.03905  0  3.973485  0
C  C63  1  0.58379505  0.52527616  0.29137078  1  0.040734  0  -0.034428  -0.035008  0  4.078019  0
C  C64  1  0.26191870  0.49330713  0.56004082  1  0.05683  0  -0.032313  -0.020885  0  4.177354  0
C  C65  1  0.53714210  0.76132492  0.55171465  1  0.097531  0  -0.028814  0.04695  0  4.200779  0
C  C66  1  0.24827450  0.32179735  0.25437380  1  0.050043  0  -0.029855  -0.032927  0  4.057497  0
C  C67  1  0.02531702  0.46226749  0.62092899  1  -0.024087  0  -0.073706  -0.080679  0  3.637646  0
C  C68  1  0.01066439  0.53684889  0.64732593  1  -0.030735  0  -0.073659  -0.080841  0  3.635882  0
C  C69  1  0.79024882  0.47358150  0.54764079  1  -0.583295  0  -0.065511  -0.11407  0  4.213808  0
C  C70  1  0.20033425  0.50305665  0.57237368  1  -0.485386  0  -0.068042  -0.108121  0  4.235572  0
C  C71  1  0.94711965  0.41389568  0.54974588  1  -0.036265  0  -0.075664  -0.082428  0  3.647755  0
C  C72  1  0.57644462  0.51920427  0.71342686  1  0.35245  0  -0.004706  -0.064517  0  3.978538  0
C  C73  1  0.93059749  0.48826313  0.57584141  1  0.10447  0  0.004728  0.136863  0  3.802106  0
C  C74  1  0.99185449  0.45248045  0.51018309  1  -0.002948  0  -0.075618  -0.081215  0  3.646635  0
C  C75  1  0.07227083  0.50097844  0.58133100  1  0.116928  0  0.002822  0.136034  0  3.803413  0
C  C76  1  0.97807409  0.52739256  0.53678950  1  -0.026392  0  -0.072979  -0.076678  0  3.636676  0
C  C77  1  0.05607311  0.57555134  0.60800670  1  -0.038572  0  -0.07347  -0.079804  0  3.638533  0
C  C78  1  0.85560402  0.48021569  0.56606822  1  0.23843  0  -0.064272  -0.142049  0  4.147518  0
C  C79  1  0.14287811  0.50436399  0.57964621  1  0.087903  0  -0.064855  -0.147165  0  4.154785  0
C  C80  1  0.61832569  0.07336207  0.63846066  1  -0.050536  0  -0.072578  -0.07993  0  3.628584  0
C  C81  1  0.64979439  0.11372751  0.59302422  1  -0.047522  0  -0.072929  -0.081031  0  3.631377  0
C  C82  1  0.53621073  0.22465341  0.53684931  1  -0.100507  0  -0.063105  -0.114225  0  4.19739  0
C  C83  1  0.65970629  0.42013088  0.44570979  1  0.462047  0  0.019473  -0.039835  0  3.96717  0
C  C84  1  0.55399993  0.84022549  0.55950551  1  -0.017351  0  -0.067474  -0.119517  0  4.218967  0
C  C85  1  0.54207008  0.07936473  0.61204395  1  -0.028676  0  -0.073352  -0.078681  0  3.64212  0
C  C86  1  0.57288113  0.12075079  0.56606500  1  0.096396  0  0.005125  0.135858  0  3.794869  0
C  C87  1  0.49980651  0.99259923  0.54452196  1  -0.019021  0  -0.073263  -0.077994  0  3.638906  0
C  C88  1  0.57592168  0.98436596  0.57084000  1  0.112498  0  0.004666  0.135066  0  3.803097  0
C  C89  1  0.53158364  0.03178551  0.49893118  1  -0.010909  0  -0.072905  -0.075542  0  3.639214  0
C  C90  1  0.60800944  0.02649626  0.52573513  1  -0.022297  0  -0.07478  -0.082076  0  3.648068  0
C  C91  1  0.56101193  0.18368507  0.55625865  1  -0.225756  0  -0.060936  -0.135485  0  4.129669  0
C  C92  1  0.57003913  0.90966881  0.56831081  1  -0.358786  0  -0.063921  -0.13821  0  4.146188  0
C  C93  1  0.60798360  0.52220302  0.23264118  1  -0.00541  0  -0.008137  0.089432  0  4.031724  0
C  C94  1  0.46617918  0.41247246  0.68870039  1  0.463448  0  0.000844  -0.050393  0  4.044092  0
C  C95  1  0.58292258  0.44540401  0.17429720  1  -0.040958  0  -0.09684  -0.131489  0  3.99539  0
C  C96  1  0.60155539  0.44037686  0.11603468  1  -0.020779  0  -0.087798  -0.133675  0  3.968245  0
C  C97  1  0.64688249  0.51301081  0.11414363  1  0.354411  0  0.080364  0.165493  0  4.058356  0
C  C98  1  0.67501644  0.58969050  0.17332281  1  -0.04663  0  -0.084939  -0.1358  0  3.980995  0
C  C99  1  0.65576924  0.59423613  0.23144435  1  -0.055065  0  -0.098187  -0.137996  0  4.002051  0
C  C100  1  0.66858523  0.52295387  0.93047201  1  -0.063617  0  -0.08775  -0.136297  0  3.972703  0
C  C101  1  0.64784052  0.52407998  0.86444465  1  0.008306  0  -0.091059  -0.125931  0  3.980707  0
C  C102  1  0.62741768  0.45011006  0.93411999  1  0.348523  0  0.077095  0.159622  0  4.062132  0
C  C103  1  0.58498078  0.45353668  0.80008705  1  -0.018182  0  0.000188  0.106896  0  4.015153  0
C  C104  1  0.55189552  0.37872743  0.80309242  1  0.004644  0  -0.097228  -0.138842  0  3.995142  0
C  C105  1  0.68626732  0.51524161  0.55268669  1  0.4274  0  0.018835  -0.027668  0  3.911077  0
C  C106  1  0.57292710  0.37684906  0.86897066  1  -0.061025  0  -0.085689  -0.13772  0  3.987817  0
C  C107  1  0.79399291  0.87694283  0.77075453  1  -0.007455  0  -0.001  0.103613  0  4.026846  0
C  C108  1  0.78192866  0.91321553  0.83210306  1  0.029737  0  -0.093833  -0.129864  0  3.986601  0
C  C109  1  0.83690056  0.99218892  0.88776343  1  -0.0645  0  -0.085961  -0.131677  0  3.964477  0
C  C110  1  0.90670458  0.03822341  0.88394471  1  0.411503  0  0.079539  0.159651  0  4.064257  0
C  C111  1  0.91745257  0.00427320  0.82152272  1  -0.125016  0  -0.084628  -0.13548  0  3.99016  0
C  C112  1  0.86212595  0.92518608  0.76600590  1  -0.001844  0  -0.096049  -0.136108  0  3.996185  0
C  C113  1  0.11031119  0.23572794  0.05873391  1  -0.054222  0  -0.085501  -0.132103  0  3.969446  0
C  C114  1  0.17906032  0.28001872  0.12253314  1  0.027784  0  -0.092956  -0.127186  0  3.989635  0
C  C115  1  0.03658963  0.20285134  0.06075944  1  0.341167  0  0.081784  0.165522  0  4.051598  0
C  C116  1  0.51303695  0.28568536  0.45250201  1  0.435686  0  0.021678  -0.022269  0  3.934684  0
C  C117  1  0.17724853  0.29254584  0.19043705  1  -0.050209  0  -0.006595  0.086636  0  4.029752  0
C  C118  1  0.10338911  0.26759353  0.19242368  1  -0.026554  0  -0.095443  -0.132331  0  3.995366  0
C  C119  1  0.03412394  0.22387979  0.12868923  1  -0.034033  0  -0.084471  -0.138032  0  3.976682  0
C  C120  1  0.68731997  0.72509495  0.72032025  1  0.389138  0  -0.001492  -0.063986  0  4.02148  0
C  C121  1  0.73899627  0.79192483  0.71483252  1  -0.010052  0  -0.040991  -0.048917  0  4.096433  0
C  C122  1  0.18626981  0.33280323  0.48114869  1  -0.058724  0  -0.227279  -0.420468  0  3.992066  0
N  N123  1  0.67107902  0.67607444  0.60759361  1  -0.824436  0  -0.285667  -0.176485  0  3.644305  0
N  N124  1  0.32664132  0.43246418  0.51994626  1  -0.796086  0  -0.291821  -0.240804  0  3.689745  0
N  N125  1  0.51347829  0.65453925  0.57578176  1  -0.802262  0  -0.281068  -0.165108  0  3.667958  0
N  N126  1  0.36608129  0.34104640  0.32233319  1  -0.793582  0  -0.27406  -0.18783  0  3.579842  0
N  N127  1  0.33010270  0.35613067  0.36699205  1  -0.808265  0  -0.284699  -0.20516  0  3.604107  0
N  N128  1  0.51640862  0.63070850  0.50981840  1  -0.779591  0  -0.286792  -0.225626  0  3.501719  0
N  N129  1  0.51476453  0.48833165  0.35384738  1  -0.769858  0  -0.279953  -0.220436  0  3.509006  0
N  N130  1  0.37947015  0.51496426  0.55978397  1  -0.780508  0  -0.267396  -0.204522  0  3.538734  0
N  N131  1  0.65990492  0.51600453  0.05368211  1  -0.510351  0  -0.166154  -0.160301  0  3.30066  0
N  N132  1  0.62792402  0.44602278  0.99817522  1  -0.509767  0  -0.162922  -0.153781  0  3.306744  0
N  N133  1  0.97237634  0.11206084  0.94152803  1  -0.526476  0  -0.161262  -0.150396  0  3.319962  0
N  N134  1  0.43244795  0.32473780  0.48104078  1  -0.81185  0  -0.294463  -0.193706  0  3.689528  0
N  N135  1  0.96475678  0.14067792  0.99976143  1  -0.481451  0  -0.165272  -0.158796  0  3.283752  0
N  N136  1  0.51501550  0.50638136  0.65754162  1  -0.826354  0  -0.296484  -0.200717  0  3.720376  0
N  N137  1  0.60200980  0.43891305  0.43664693  1  -0.802048  0  -0.282639  -0.200092  0  3.599628  0
N  N138  1  0.44638455  0.44052098  0.64242711  1  -0.725585  0  -0.27061  -0.241831  0  3.317393  0
N  N139  1  0.61790968  0.49776245  0.50269312  1  -0.82185  0  -0.290125  -0.225079  0  3.563286  0
N  N140  1  0.46981968  0.32033001  0.43627239  1  -0.784514  0  -0.274308  -0.209057  0  3.556549  0
N  N141  1  0.64689833  0.65566373  0.65605639  1  -0.769395  0  -0.267108  -0.241544  0  3.412673  0
N  N142  1  0.58079763  0.56341970  0.40093755  1  -0.799664  0  -0.27841  -0.16101  0  3.607319  0
