# generated using pymatgen
data_Cu3H8(C10N11)2
_symmetry_space_group_name_H-M   'P 1'
_cell_length_a   7.77127403
_cell_length_b   9.29285357
_cell_length_c   10.22878668
_cell_angle_alpha   84.77281377
_cell_angle_beta   87.70269801
_cell_angle_gamma   71.36995786
_symmetry_Int_Tables_number   1
_chemical_formula_structural   Cu3H8(C10N11)2
_chemical_formula_sum   'Cu3 H8 C20 N22'
_cell_volume   697.03035054
_cell_formula_units_Z   1
loop_
 _symmetry_equiv_pos_site_id
 _symmetry_equiv_pos_as_xyz
  1  'x, y, z'
loop_
 _atom_site_type_symbol
 _atom_site_label
 _atom_site_symmetry_multiplicity
 _atom_site_fract_x
 _atom_site_fract_y
 _atom_site_fract_z
 _atom_site_occupancy
 _atom_site_hle17_ddec_charge
 _atom_site_hle17_ddec_spin_density
 _atom_site_hle17_ddec_sum_bond_order
 _atom_site_hle17_magmom
 _atom_site_hse06_10hf_ddec_charge
 _atom_site_hse06_10hf_ddec_spin_density
 _atom_site_hse06_10hf_ddec_sum_bond_order
 _atom_site_hse06_10hf_magmom
 _atom_site_hse06_ddec_charge
 _atom_site_hse06_ddec_spin_density
 _atom_site_hse06_ddec_sum_bond_order
 _atom_site_hse06_magmom
 _atom_site_pbe_cm5_charge
 _atom_site_pbe_ddec_charge
 _atom_site_pbe_ddec_spin_density
 _atom_site_pbe_ddec_sum_bond_order
 _atom_site_pbe_magmom
Cu  Cu0  1  0.00004728  0.99983425  0.50012460  1  0.905666  -0.725648  1.961743  -0.501  0.902192  -0.828002  2.35416  -0.643  0.977983  -0.912252  2.295556  -0.73  0.82708  0.85333  -0.73273  2.396431  -0.558
Cu  Cu1  1  0.32690786  0.27905314  0.07400873  1  0.96005  0.69336  1.993421  0.501  0.974844  0.815408  2.411485  0.664  1.050341  0.887866  2.350959  0.752  0.842495  0.9177  0.741812  2.463833  0.586
Cu  Cu2  1  0.67410192  0.72067992  0.92657587  1  0.959669  0.689512  1.995382  0.499  0.975818  0.814756  2.413014  0.664  1.051434  0.887276  2.352216  0.752  0.843136  0.91823  0.740721  2.465962  0.586
H  H3  1  0.64487312  0.74731554  0.31767401  1  0.129874  -0.00018  0.956491  0.0  0.136446  -2.7e-05  1.015532  0.0  0.13889  -1e-05  1.017041  0.0  0.118443  0.13425  -7.3e-05  1.01512  0.0
H  H4  1  0.35457445  0.25162309  0.68204772  1  0.12947  -0.000172  0.955994  0.0  0.136055  -2.4e-05  1.014964  0.0  0.138445  -8e-06  1.016521  0.0  0.118414  0.133883  -6.9e-05  1.014537  0.0
H  H5  1  0.62524790  0.97472351  0.15642321  1  0.102553  0.000627  0.961325  0.001  0.110149  0.000756  1.023739  0.001  0.110708  0.000509  1.022048  0.001  0.127506  0.109449  0.000956  1.025217  0.002
H  H6  1  0.37443040  0.02412075  0.84331727  1  0.103005  0.000602  0.96117  0.001  0.110115  0.000766  1.02395  0.001  0.11071  0.000517  1.022238  0.001  0.127349  0.109441  0.000966  1.025348  0.002
H  H7  1  0.10355747  0.19334931  0.29115070  1  0.082139  -0.000152  0.959581  0.0  0.087237  -2.6e-05  1.025242  0.0  0.08684  -6e-06  1.02426  0.0  0.135953  0.086832  -7e-05  1.026651  0.0
H  H8  1  0.89651421  0.80627669  0.70893330  1  0.082023  -0.000141  0.958812  0.0  0.086684  -1.5e-05  1.02482  0.0  0.086211  2e-06  1.023946  0.0  0.136025  0.086306  -6.1e-05  1.026212  0.0
H  H9  1  0.36874810  0.76264012  0.46597497  1  0.098188  -0.000554  0.920115  -0.001  0.108503  -0.000849  0.975128  -0.001  0.108745  -0.00067  0.974087  -0.001  0.131992  0.10827  -0.00088  0.976079  -0.001
H  H10  1  0.63095660  0.23689160  0.53414759  1  0.098344  -0.000578  0.919403  -0.001  0.108847  -0.000848  0.974259  -0.001  0.109114  -0.00067  0.973219  -0.001  0.132008  0.108528  -0.000881  0.975306  -0.001
C  C11  1  0.52440717  0.84762519  0.31382959  1  -0.145766  0.000188  3.640909  0.001  -0.152497  0.000366  3.879416  0.001  -0.167188  6.2e-05  3.901206  0.0  -0.065042  -0.143104  0.000723  3.866043  0.001
C  C12  1  0.47525966  0.15150857  0.68607279  1  -0.144817  1.6e-05  3.641884  0.0  -0.151072  0.000389  3.879242  0.001  -0.165733  8.7e-05  3.901073  0.0  -0.064817  -0.141724  0.000743  3.865899  0.001
C  C13  1  0.51491271  0.97256217  0.22458468  1  0.217983  0.00246  3.606736  0.002  0.188008  0.001837  3.851849  0.001  0.20411  0.000936  3.866287  0.0  0.087397  0.176995  0.002556  3.842428  0.002
C  C14  1  0.48482578  0.02651000  0.77525199  1  0.216702  0.002528  3.607598  0.002  0.187361  0.001852  3.851814  0.001  0.203441  0.000934  3.866273  0.0  0.087244  0.17634  0.002572  3.842412  0.002
C  C15  1  0.22489069  0.09442961  0.29759840  1  0.310013  0.001356  3.657318  0.002  0.263377  0.000356  3.919309  0.001  0.283496  0.000325  3.934399  0.001  0.193515  0.249662  0.000316  3.909859  0.001
C  C16  1  0.77510156  0.90503504  0.70244271  1  0.31046  0.00143  3.65944  0.002  0.264141  0.000353  3.921697  0.001  0.284293  0.000312  3.936798  0.0  0.193393  0.250393  0.000317  3.91224  0.001
C  C17  1  0.70451665  0.18902757  0.95566763  1  0.526208  -0.017672  3.937206  -0.018  0.503855  0.004931  4.239674  0.008  0.534666  0.003746  4.252726  0.007  0.325275  0.481435  0.005473  4.228657  0.007
C  C18  1  0.29567099  0.81104258  0.04442688  1  0.525626  -0.017128  3.94099  -0.018  0.503446  0.004731  4.242008  0.007  0.534134  0.003539  4.254958  0.006  0.324681  0.481084  0.005283  4.231131  0.007
C  C19  1  0.00249594  0.30008230  0.59734217  1  0.529645  0.003057  3.953037  0.002  0.504547  -0.005952  4.242854  -0.009  0.536368  -0.004354  4.25098  -0.007  0.326172  0.482411  -0.006776  4.236477  -0.01
C  C20  1  0.99692813  0.70055594  0.40172177  1  0.530535  0.002915  3.950868  0.002  0.504662  -0.00602  4.241318  -0.009  0.536571  -0.004417  4.249558  -0.007  0.326456  0.482473  -0.006843  4.234804  -0.01
C  C21  1  0.37448151  0.85493943  0.39410144  1  0.189069  -0.001562  3.633197  -0.001  0.155626  -0.002158  3.883031  -0.001  0.170023  -0.001272  3.900454  0.0  0.078373  0.145506  -0.002712  3.872107  -0.002
C  C22  1  0.62527486  0.14448882  0.60598538  1  0.188348  -0.00149  3.632852  -0.001  0.15525  -0.002161  3.882069  -0.001  0.169623  -0.001281  3.899499  0.0  0.078829  0.145139  -0.002713  3.871201  -0.002
C  C23  1  0.32222679  0.53453308  0.85506732  1  0.521295  -0.010112  3.99486  -0.006  0.498537  0.000875  4.277427  0.006  0.528207  -0.000899  4.286525  0.004  0.314723  0.477253  0.002182  4.270992  0.008
C  C24  1  0.67907436  0.46610828  0.14626471  1  0.519742  -0.011567  3.991712  -0.007  0.497678  0.000947  4.276778  0.006  0.527392  -0.000823  4.286066  0.004  0.314089  0.476268  0.002222  4.270085  0.008
C  C25  1  0.92488250  0.49474028  0.73512148  1  0.534636  0.002798  3.952001  0.007  0.514926  0.000301  4.231414  0.004  0.545791  -0.000902  4.240135  0.003  0.32729  0.492418  0.001223  4.225036  0.006
C  C26  1  0.07468828  0.50555600  0.26427867  1  0.535333  0.002877  3.949889  0.007  0.514589  0.000464  4.229762  0.005  0.545539  -0.000755  4.238633  0.003  0.327051  0.492071  0.001386  4.223223  0.006
C  C27  1  0.26713862  0.76050436  0.72485273  1  0.471815  -0.006076  4.010303  -0.006  0.447764  -4e-05  4.312464  0.0  0.472828  0.000123  4.322638  0.0  0.280879  0.430809  -0.000165  4.304753  0.0
C  C28  1  0.73214038  0.23941382  0.27510647  1  0.469426  -0.007902  4.007208  -0.008  0.445701  -0.000116  4.311939  0.0  0.470724  7.5e-05  4.322292  0.0  0.279416  0.428717  -0.000267  4.303955  0.0
C  C29  1  0.99855726  0.19274418  0.94281573  1  0.507126  -0.024836  3.936982  -0.027  0.490725  -0.002514  4.237043  -0.004  0.517902  -0.001915  4.250853  -0.003  0.310303  0.471218  -0.003003  4.22508  -0.005
C  C30  1  0.00134401  0.80884551  0.05680891  1  0.505293  -0.023895  3.939142  -0.026  0.488887  -0.002439  4.237938  -0.003  0.515986  -0.001861  4.251625  -0.003  0.309708  0.469385  -0.002917  4.226145  -0.004
N  N31  1  0.36487369  0.09515509  0.21733752  1  -0.331904  0.060927  3.237595  0.075  -0.279209  0.057485  3.517176  0.079  -0.31703  0.045061  3.537857  0.066  -0.313128  -0.254469  0.062101  3.503782  0.082
N  N32  1  0.63511868  0.90412974  0.78257206  1  -0.331942  0.060283  3.238574  0.075  -0.27914  0.05789  3.517487  0.08  -0.317161  0.04537  3.538397  0.066  -0.312623  -0.254308  0.062446  3.504016  0.082
N  N33  1  0.56821343  0.17675728  0.00335786  1  -0.58135  0.090519  2.969893  0.109  -0.596351  0.038941  3.313698  0.051  -0.630208  0.029003  3.316419  0.04  -0.410151  -0.570461  0.046321  3.310717  0.059
N  N34  1  0.43226264  0.82219855  0.99643080  1  -0.583544  0.088549  2.975382  0.106  -0.59707  0.03877  3.318047  0.051  -0.630885  0.028959  3.320799  0.04  -0.4101  -0.571187  0.046021  3.315132  0.058
N  N35  1  0.30578302  0.45033940  0.94419217  1  -0.592679  0.07314  2.978016  0.088  -0.572912  0.051929  3.279372  0.068  -0.605421  0.043218  3.282057  0.058  -0.41201  -0.550906  0.055736  3.2788  0.07
N  N36  1  0.69803901  0.55131134  0.05877159  1  -0.587212  0.076096  2.975113  0.091  -0.571029  0.052117  3.278631  0.068  -0.603763  0.043306  3.281523  0.059  -0.410925  -0.548627  0.056092  3.277867  0.07
N  N37  1  0.98852575  0.20856351  0.52928137  1  -0.594395  -0.06087  2.980828  -0.07  -0.586725  -0.039345  3.298559  -0.048  -0.618411  -0.033091  3.301692  -0.042  -0.409907  -0.565341  -0.041942  3.296271  -0.05
N  N38  1  0.01098097  0.79138113  0.47050790  1  -0.594113  -0.060796  2.979294  -0.07  -0.587061  -0.039303  3.297732  -0.048  -0.61888  -0.033048  3.300934  -0.042  -0.410115  -0.565525  -0.041879  3.295352  -0.05
N  N39  1  0.22562615  0.97927129  0.38557505  1  -0.320855  -0.068879  3.295026  -0.083  -0.270701  -0.053218  3.58161  -0.07  -0.307598  -0.043997  3.604295  -0.061  -0.32595  -0.246533  -0.05485  3.567318  -0.07
N  N40  1  0.77428910  0.02031090  0.61460504  1  -0.32075  -0.069189  3.295831  -0.083  -0.270808  -0.05311  3.582396  -0.07  -0.307678  -0.043921  3.605019  -0.061  -0.32626  -0.246629  -0.05475  3.568113  -0.07
N  N41  1  0.84772328  0.19435749  0.89176607  1  -0.415144  0.052849  3.2526  0.065  -0.394281  0.009294  3.523062  0.012  -0.424082  0.003843  3.532378  0.006  -0.296056  -0.370712  0.016532  3.514138  0.021
N  N42  1  0.15206762  0.80683507  0.10833821  1  -0.415818  0.050892  3.252978  0.062  -0.393484  0.00899  3.52226  0.012  -0.422901  0.003676  3.531274  0.005  -0.296003  -0.370271  0.016087  3.513696  0.02
N  N43  1  0.34896938  0.61625758  0.75250513  1  -0.463791  0.014507  3.281138  0.018  -0.42991  0.001009  3.547875  0.002  -0.453788  -0.000323  3.548667  0.001  -0.319003  -0.412254  0.003054  3.546026  0.005
N  N44  1  0.65049961  0.38385623  0.24785343  1  -0.460894  0.018425  3.277754  0.023  -0.429833  0.001303  3.546833  0.003  -0.453921  -0.000228  3.547847  0.001  -0.318355  -0.411794  0.00372  3.544639  0.005
N  N45  1  0.03657978  0.39949947  0.66241193  1  -0.439939  -0.022054  3.291353  -0.026  -0.397858  -0.005246  3.544948  -0.006  -0.425322  -0.002996  3.548656  -0.004  -0.294196  -0.37768  -0.007841  3.541391  -0.009
N  N46  1  0.96245265  0.60212987  0.33564665  1  -0.440041  -0.021818  3.291327  -0.025  -0.396747  -0.005195  3.544676  -0.006  -0.424512  -0.002972  3.548668  -0.004  -0.29319  -0.376336  -0.007744  3.54085  -0.009
N  N47  1  0.83585363  0.58858114  0.80111395  1  -0.588521  0.01732  2.9756  0.022  -0.580494  0.030347  3.287782  0.04  -0.609735  0.027449  3.285645  0.038  -0.398655  -0.559249  0.02908  3.28981  0.037
N  N48  1  0.16414335  0.41048902  0.19952692  1  -0.587838  0.017878  2.974529  0.023  -0.579401  0.030629  3.287082  0.041  -0.608813  0.027666  3.285208  0.038  -0.398186  -0.55814  0.029415  3.288916  0.038
N  N49  1  0.20213630  0.89071599  0.68830658  1  -0.598335  0.013894  2.685129  0.014  -0.596957  0.001049  2.956668  0.0  -0.615181  0.000281  2.961865  -0.001  -0.389692  -0.584394  0.002361  2.953334  0.002
N  N50  1  0.79700168  0.10904182  0.31127192  1  -0.59353  0.017935  2.678869  0.019  -0.595131  0.001355  2.951689  0.001  -0.613509  0.000411  2.957165  0.0  -0.388177  -0.582278  0.00291  2.94807  0.002
N  N51  1  0.14167639  0.19178525  0.97723435  1  -0.563433  0.049139  2.804764  0.057  -0.579336  0.00821  3.108372  0.011  -0.605171  0.004032  3.112773  0.007  -0.381346  -0.557551  0.013996  3.103509  0.018
N  N52  1  0.85839120  0.81027781  0.02167390  1  -0.563626  0.047196  2.808309  0.055  -0.577962  0.008198  3.111085  0.011  -0.603623  0.004084  3.115299  0.007  -0.381307  -0.556323  0.013842  3.106481  0.018
