# generated using pymatgen
data_HgH9C12I2BrN2
_symmetry_space_group_name_H-M   'P 1'
_cell_length_a   4.26021929
_cell_length_b   16.16250692
_cell_length_c   22.57354726
_cell_angle_alpha   89.99984793
_cell_angle_beta   90.00033923
_cell_angle_gamma   90.00072705
_symmetry_Int_Tables_number   1
_chemical_formula_structural   HgH9C12I2BrN2
_chemical_formula_sum   'Hg4 H36 C48 I8 Br4 N8'
_cell_volume   1554.32019030
_cell_formula_units_Z   4
loop_
 _symmetry_equiv_pos_site_id
 _symmetry_equiv_pos_as_xyz
  1  'x, y, z'
loop_
 _atom_site_type_symbol
 _atom_site_label
 _atom_site_symmetry_multiplicity
 _atom_site_fract_x
 _atom_site_fract_y
 _atom_site_fract_z
 _atom_site_occupancy
 _atom_site_hle17_bader_spin_density
 _atom_site_hle17_ddec_charge
 _atom_site_hle17_ddec_spin_density
 _atom_site_hle17_ddec_sum_bond_order
 _atom_site_hle17_magmom
 _atom_site_hse06_10hf_bader_spin_density
 _atom_site_hse06_10hf_ddec_charge
 _atom_site_hse06_10hf_ddec_spin_density
 _atom_site_hse06_10hf_ddec_sum_bond_order
 _atom_site_hse06_10hf_magmom
 _atom_site_hse06_bader_spin_density
 _atom_site_hse06_ddec_charge
 _atom_site_hse06_ddec_spin_density
 _atom_site_hse06_ddec_sum_bond_order
 _atom_site_hse06_magmom
 _atom_site_pbe_bader_spin_density
 _atom_site_pbe_cm5_charge
 _atom_site_pbe_ddec_charge
 _atom_site_pbe_ddec_spin_density
 _atom_site_pbe_ddec_sum_bond_order
 _atom_site_pbe_magmom
Hg  Hg0  1  0.07427433  0.48074046  0.89075200  1  0  0.500913  0  2.222931  0  0  0.384738  0  2.707937  0  0  0.428771  0  2.68264  0  0  0.338492  0.355092  0  2.725567  0
Hg  Hg1  1  0.57427548  0.51926053  0.10924859  1  0  0.500914  0  2.222889  0  0  0.38475  0  2.707865  0  0  0.428784  0  2.682567  0  0  0.338497  0.355099  0  2.725498  0
Hg  Hg2  1  0.57427012  0.01926509  0.39074972  1  0  0.500888  0  2.222969  0  0  0.384695  0  2.707993  0  0  0.428729  0  2.682697  0  0  0.338486  0.355046  0  2.725633  0
Hg  Hg3  1  0.07426795  0.98074023  0.60925043  1  0  0.500904  0  2.222933  0  0  0.384724  0  2.707944  0  0  0.428756  0  2.682646  0  0  0.338511  0.355071  0  2.725582  0
H  H4  1  0.78461146  0.64348266  0.81939886  1  0  0.060884  0  0.992545  0  0  0.060864  0  1.076571  0  0  0.064448  0  1.072406  0  0  0.088587  0.058298  0  1.079521  0
H  H5  1  0.28461856  0.35651657  0.18060021  1  0  0.060883  0  0.992493  0  0  0.060844  0  1.076574  0  0  0.064427  0  1.072409  0  0  0.088567  0.058274  0  1.079518  0
H  H6  1  0.28461372  0.85652162  0.31939900  1  0  0.060804  0  0.992603  0  0  0.060782  0  1.076657  0  0  0.064363  0  1.072495  0  0  0.088515  0.058214  0  1.079601  0
H  H7  1  0.78463274  0.14348132  0.68059918  1  0  0.06084  0  0.992507  0  0  0.060802  0  1.076609  0  0  0.064385  0  1.072445  0  0  0.088534  0.058232  0  1.079552  0
H  H8  1  0.71540602  0.70313007  0.71795393  1  0  0.102423  0  0.96869  0  0  0.109221  0  1.038718  0  0  0.112932  0  1.037066  0  0  0.090802  0.106522  0  1.040147  0
H  H9  1  0.21541799  0.29686707  0.28204506  1  0  0.102395  0  0.968709  0  0  0.109188  0  1.038739  0  0  0.112899  0  1.037085  0  0  0.090762  0.106487  0  1.040169  0
H  H10  1  0.21541953  0.79687009  0.21795460  1  0  0.10244  0  0.968736  0  0  0.109226  0  1.038756  0  0  0.112936  0  1.0371  0  0  0.09079  0.106526  0  1.040177  0
H  H11  1  0.71540683  0.20312953  0.78204394  1  0  0.102377  0  0.968788  0  0  0.109183  0  1.038791  0  0  0.112892  0  1.037135  0  0  0.090783  0.106482  0  1.040218  0
H  H12  1  0.25949874  0.49875706  0.64972883  1  0  0.109001  0  0.972719  0  0  0.112724  0  1.045666  0  0  0.116468  0  1.044023  0  0  0.104048  0.110057  0  1.046957  0
H  H13  1  0.75954139  0.50123837  0.35027021  1  0  0.109094  0  0.972675  0  0  0.112818  0  1.045618  0  0  0.116562  0  1.043975  0  0  0.104103  0.110149  0  1.046915  0
H  H14  1  0.75954531  0.00123963  0.14972924  1  0  0.109068  0  0.972727  0  0  0.112793  0  1.045656  0  0  0.116537  0  1.044014  0  0  0.10409  0.11013  0  1.046944  0
H  H15  1  0.25954176  0.99876570  0.85027290  1  0  0.109074  0  0.972741  0  0  0.112826  0  1.045633  0  0  0.116569  0  1.043992  0  0  0.104122  0.110158  0  1.046927  0
H  H16  1  0.31220294  0.44774071  0.75469911  1  0  0.059913  0  0.994565  0  0  0.062593  0  1.073043  0  0  0.065611  0  1.070024  0  0  0.089727  0.060408  0  1.075182  0
H  H17  1  0.81223786  0.55225738  0.24529999  1  0  0.059876  0  0.994564  0  0  0.062546  0  1.073072  0  0  0.065563  0  1.070053  0  0  0.089671  0.060357  0  1.075201  0
H  H18  1  0.81223081  0.05226190  0.25469900  1  0  0.059873  0  0.994564  0  0  0.062543  0  1.073067  0  0  0.065562  0  1.070046  0  0  0.089673  0.060361  0  1.075201  0
H  H19  1  0.31225693  0.94774670  0.74530321  1  0  0.059881  0  0.994513  0  0  0.062552  0  1.073029  0  0  0.065566  0  1.070014  0  0  0.089701  0.060365  0  1.075161  0
H  H20  1  0.77949247  0.69272979  0.61321634  1  0  0.055393  0  0.976545  0  0  0.065694  0  1.046789  0  0  0.06938  0  1.042133  0  0  0.090718  0.06294  0  1.050416  0
H  H21  1  0.27952682  0.30726509  0.38678184  1  0  0.055328  0  0.976582  0  0  0.065536  0  1.046933  0  0  0.069218  0  1.042285  0  0  0.090665  0.062814  0  1.050527  0
H  H22  1  0.27951586  0.80726794  0.11321788  1  0  0.055255  0  0.97659  0  0  0.065498  0  1.046928  0  0  0.069182  0  1.042276  0  0  0.090674  0.062774  0  1.050527  0
H  H23  1  0.77948230  0.19272756  0.88678251  1  0  0.055425  0  0.976568  0  0  0.065712  0  1.046822  0  0  0.069397  0  1.042168  0  0  0.09075  0.062964  0  1.050445  0
H  H24  1  0.68710501  0.73552206  0.53148386  1  0  0.096682  0  0.975113  0  0  0.105102  0  1.042364  0  0  0.107794  0  1.041097  0  0  0.091643  0.103153  0  1.043411  0
H  H25  1  0.18713036  0.26447684  0.46851244  1  0  0.096781  0  0.974894  0  0  0.105178  0  1.042189  0  0  0.107872  0  1.040919  0  0  0.091671  0.103224  0  1.043239  0
H  H26  1  0.18712637  0.76447757  0.03148857  1  0  0.096759  0  0.974889  0  0  0.105158  0  1.042189  0  0  0.107853  0  1.040918  0  0  0.091674  0.103204  0  1.043246  0
H  H27  1  0.68712308  0.23552195  0.96851481  1  0  0.096688  0  0.975035  0  0  0.105084  0  1.042333  0  0  0.107778  0  1.041064  0  0  0.09163  0.103129  0  1.043382  0
H  H28  1  0.61069749  0.77298911  0.42730166  1  0  0.09851  0  0.972338  0  0  0.106357  0  1.040185  0  0  0.109719  0  1.037903  0  0  0.084817  0.103845  0  1.042078  0
H  H29  1  0.11069363  0.22701015  0.57269499  1  0  0.098536  0  0.972238  0  0  0.106373  0  1.040107  0  0  0.109738  0  1.03782  0  0  0.084805  0.103858  0  1.041996  0
H  H30  1  0.11069434  0.72700917  0.92730656  1  0  0.098551  0  0.972279  0  0  0.106388  0  1.040145  0  0  0.109752  0  1.03786  0  0  0.084824  0.103872  0  1.042045  0
H  H31  1  0.61071087  0.27299071  0.07269674  1  0  0.098519  0  0.972299  0  0  0.106371  0  1.040151  0  0  0.109733  0  1.037869  0  0  0.084816  0.103853  0  1.042043  0
H  H32  1  0.23577939  0.57637862  0.37305580  1  0  0.102515  0  0.956126  0  0  0.112494  0  1.018861  0  0  0.11491  0  1.018519  0  0  0.099444  0.110772  0  1.019163  0
H  H33  1  0.73577726  0.42362539  0.62694587  1  0  0.102501  0  0.956128  0  0  0.11249  0  1.018856  0  0  0.114906  0  1.018513  0  0  0.09946  0.110765  0  1.019159  0
H  H34  1  0.73579044  0.92362032  0.87305566  1  0  0.102448  0  0.956103  0  0  0.112436  0  1.018838  0  0  0.114852  0  1.018496  0  0  0.099424  0.110716  0  1.019144  0
H  H35  1  0.23577325  0.07637689  0.12694601  1  0  0.102509  0  0.956143  0  0  0.112495  0  1.018863  0  0  0.114911  0  1.018522  0  0  0.099451  0.110769  0  1.019166  0
H  H36  1  0.30311690  0.53586809  0.47867596  1  0  0.107313  0  0.961515  0  0  0.113708  0  1.030217  0  0  0.116652  0  1.028966  0  0  0.105715  0.111635  0  1.031154  0
H  H37  1  0.80314174  0.46413306  0.52132623  1  0  0.107315  0  0.961566  0  0  0.113671  0  1.030315  0  0  0.116622  0  1.029042  0  0  0.105717  0.111596  0  1.031254  0
H  H38  1  0.80314162  0.96413310  0.97867442  1  0  0.107334  0  0.961533  0  0  0.113693  0  1.030279  0  0  0.116646  0  1.029001  0  0  0.105738  0.111621  0  1.031215  0
H  H39  1  0.30310528  0.03586248  0.02132733  1  0  0.107329  0  0.961427  0  0  0.113685  0  1.030168  0  0  0.11664  0  1.028884  0  0  0.105664  0.11161  0  1.031107  0
C  C40  1  0.88810485  0.61352717  0.78067574  1  0  0.118427  0  3.739678  0  0  0.089021  0  3.994182  0  0  0.096547  0  4.012221  0  0  0.03138  0.084074  0  3.981921  0
C  C41  1  0.38811687  0.38647055  0.21932389  1  0  0.118355  0  3.739787  0  0  0.088943  0  3.994272  0  0  0.096471  0  4.01231  0  0  0.031354  0.084001  0  3.982  0
C  C42  1  0.38811792  0.88647392  0.28067628  1  0  0.118482  0  3.739773  0  0  0.089061  0  3.994259  0  0  0.09659  0  4.012296  0  0  0.031444  0.084121  0  3.98199  0
C  C43  1  0.88812727  0.11352875  0.71932380  1  0  0.118448  0  3.73968  0  0  0.089032  0  3.994141  0  0  0.096558  0  4.012182  0  0  0.031416  0.084094  0  3.981867  0
C  C44  1  0.84823829  0.64604260  0.72414315  1  0  -0.155213  0  3.70498  0  0  -0.172814  0  3.948822  0  0  -0.180397  0  3.970276  0  0  -0.087871  -0.16789  0  3.934457  0
C  C45  1  0.34824575  0.35395561  0.27585555  1  0  -0.155225  0  3.704945  0  0  -0.172774  0  3.948802  0  0  -0.180352  0  3.970243  0  0  -0.087829  -0.167849  0  3.934437  0
C  C46  1  0.34825217  0.85395798  0.22414418  1  0  -0.155251  0  3.705024  0  0  -0.172822  0  3.948879  0  0  -0.180399  0  3.970321  0  0  -0.087808  -0.167894  0  3.934505  0
C  C47  1  0.84825300  0.14604332  0.77585718  1  0  -0.155199  0  3.704919  0  0  -0.172739  0  3.948759  0  0  -0.180312  0  3.970197  0  0  -0.087796  -0.167811  0  3.934388  0
C  C48  1  0.97980493  0.60473003  0.67543271  1  0  0.092196  0  3.779814  0  0  0.11022  0  4.006952  0  0  0.112879  0  4.02835  0  0  0.006354  0.108646  0  3.992265  0
C  C49  1  0.47982519  0.39526553  0.32456659  1  0  0.092506  0  3.779362  0  0  0.110405  0  4.006605  0  0  0.113068  0  4.027995  0  0  0.006413  0.108818  0  3.991939  0
C  C50  1  0.47983720  0.89526749  0.17543323  1  0  0.092378  0  3.779489  0  0  0.11037  0  4.006651  0  0  0.113033  0  4.028046  0  0  0.006309  0.108792  0  3.991977  0
C  C51  1  0.97982343  0.10473425  0.82456784  1  0  0.092468  0  3.779395  0  0  0.110328  0  4.006737  0  0  0.112991  0  4.028128  0  0  0.006312  0.108745  0  3.992064  0
C  C52  1  0.15242343  0.53215942  0.68644118  1  0  -0.142313  0  3.685257  0  0  -0.158559  0  3.926566  0  0  -0.164919  0  3.946528  0  0  -0.080978  -0.154534  0  3.91329  0
C  C53  1  0.65245166  0.46783813  0.31355817  1  0  -0.142501  0  3.68507  0  0  -0.158725  0  3.926441  0  0  -0.165088  0  3.946405  0  0  -0.081085  -0.154701  0  3.913168  0
C  C54  1  0.65246401  0.96784066  0.18644262  1  0  -0.142471  0  3.685277  0  0  -0.158711  0  3.926613  0  0  -0.165073  0  3.946577  0  0  -0.081043  -0.15469  0  3.913344  0
C  C55  1  0.15246038  0.03216555  0.81355939  1  0  -0.14252  0  3.685051  0  0  -0.158734  0  3.926406  0  0  -0.165095  0  3.946369  0  0  -0.081045  -0.154705  0  3.913134  0
C  C56  1  0.18212866  0.50412842  0.74425934  1  0  0.116484  0  3.724524  0  0  0.089466  0  3.971491  0  0  0.095994  0  3.990489  0  0  0.032469  0.085221  0  3.958582  0
C  C57  1  0.68215417  0.49586799  0.25573917  1  0  0.116432  0  3.724602  0  0  0.089418  0  3.971521  0  0  0.095944  0  3.990524  0  0  0.032489  0.085188  0  3.958592  0
C  C58  1  0.68215414  0.99587151  0.24425940  1  0  0.116454  0  3.724759  0  0  0.089431  0  3.971693  0  0  0.095957  0  3.990698  0  0  0.032475  0.085186  0  3.958786  0
C  C59  1  0.18216625  0.00413418  0.75574087  1  0  0.11646  0  3.724534  0  0  0.089426  0  3.971491  0  0  0.095953  0  3.990496  0  0  0.032449  0.085191  0  3.958575  0
C  C60  1  0.92968768  0.63727206  0.61572604  1  0  0.113943  0  3.688604  0  0  0.082456  0  3.945184  0  0  0.09064  0  3.954849  0  0  0.065525  0.077044  0  3.93849  0
C  C61  1  0.42972694  0.36272395  0.38427231  1  0  0.113801  0  3.688865  0  0  0.08245  0  3.945444  0  0  0.090631  0  3.955113  0  0  0.065502  0.077017  0  3.938746  0
C  C62  1  0.42972545  0.86272679  0.11572750  1  0  0.114019  0  3.68875  0  0  0.082586  0  3.945362  0  0  0.090766  0  3.955033  0  0  0.065586  0.077156  0  3.938661  0
C  C63  1  0.92969622  0.13727417  0.88427351  1  0  0.113893  0  3.688521  0  0  0.08246  0  3.945153  0  0  0.09064  0  3.954819  0  0  0.065542  0.07704  0  3.938472  0
C  C64  1  0.00100143  0.63162554  0.51266638  1  0  0.190359  0  3.822347  0  0  0.195263  0  4.067346  0  0  0.19799  0  4.091621  0  0  0.085841  0.193551  0  4.050768  0
C  C65  1  0.50103244  0.36837335  0.48733236  1  0  0.190386  0  3.822197  0  0  0.195337  0  4.067123  0  0  0.198062  0  4.091399  0  0  0.085955  0.193634  0  4.050531  0
C  C66  1  0.50103024  0.86837415  0.01266797  1  0  0.190314  0  3.822288  0  0  0.195282  0  4.067186  0  0  0.198008  0  4.091465  0  0  0.085932  0.193577  0  4.050597  0
C  C67  1  0.00100598  0.13162226  0.98733386  1  0  0.190378  0  3.822216  0  0  0.195274  0  4.067215  0  0  0.197998  0  4.091496  0  0  0.085878  0.193567  0  4.050628  0
C  C68  1  0.80915371  0.69967455  0.49762397  1  0  -0.114206  0  3.689706  0  0  -0.128779  0  3.926026  0  0  -0.132851  0  3.949499  0  0  -0.085184  -0.125979  0  3.910006  0
C  C69  1  0.30917473  0.30032476  0.50237513  1  0  -0.114169  0  3.689756  0  0  -0.128741  0  3.926052  0  0  -0.132814  0  3.949527  0  0  -0.085203  -0.125944  0  3.910026  0
C  C70  1  0.30917048  0.80032533  0.99762609  1  0  -0.114117  0  3.689731  0  0  -0.128701  0  3.926042  0  0  -0.132776  0  3.949517  0  0  -0.085201  -0.125905  0  3.910026  0
C  C71  1  0.80916266  0.19967150  0.00237566  1  0  -0.114276  0  3.689696  0  0  -0.128823  0  3.926012  0  0  -0.132896  0  3.949489  0  0  -0.085247  -0.126019  0  3.909981  0
C  C72  1  0.76607577  0.72181288  0.43871382  1  0  -0.107127  0  3.788653  0  0  -0.1229  0  4.030405  0  0  -0.125971  0  4.053497  0  0  -0.103753  -0.120606  0  4.014708  0
C  C73  1  0.26608574  0.27818690  0.56128345  1  0  -0.107225  0  3.788776  0  0  -0.123009  0  4.030483  0  0  -0.126078  0  4.053577  0  0  -0.103784  -0.120708  0  4.014777  0
C  C74  1  0.26608444  0.77818464  0.93871775  1  0  -0.107267  0  3.788825  0  0  -0.123058  0  4.030541  0  0  -0.126128  0  4.053639  0  0  -0.10382  -0.120747  0  4.014821  0
C  C75  1  0.76608177  0.22181329  0.06128572  1  0  -0.107055  0  3.788503  0  0  -0.122849  0  4.030263  0  0  -0.125919  0  4.053357  0  0  -0.103713  -0.120547  0  4.014544  0
C  C76  1  0.91844883  0.67666059  0.39438419  1  0  0.089052  0  3.716055  0  0  0.104415  0  3.9799  0  0  0.106317  0  4.003505  0  0  -0.017483  0.102903  0  3.96395  0
C  C77  1  0.41845287  0.32334095  0.60561460  1  0  0.088987  0  3.716117  0  0  0.104411  0  3.979893  0  0  0.106309  0  4.003503  0  0  -0.017495  0.102904  0  3.963933  0
C  C78  1  0.41845495  0.82333888  0.89438583  1  0  0.088948  0  3.716121  0  0  0.104401  0  3.97987  0  0  0.106296  0  4.003484  0  0  -0.017485  0.102893  0  3.96392  0
C  C79  1  0.91844910  0.17665833  0.10561650  1  0  0.089054  0  3.715984  0  0  0.104418  0  3.979849  0  0  0.10632  0  4.003455  0  0  -0.017456  0.102915  0  3.963884  0
C  C80  1  0.11370014  0.61006618  0.40790844  1  0  -0.119024  0  3.781641  0  0  -0.138303  0  4.030054  0  0  -0.140973  0  4.052257  0  0  -0.099594  -0.136308  0  4.014995  0
C  C81  1  0.61370476  0.38993494  0.59209175  1  0  -0.11895  0  3.78166  0  0  -0.138264  0  4.030047  0  0  -0.140934  0  4.052254  0  0  -0.099624  -0.136275  0  4.014993  0
C  C82  1  0.61370959  0.88993157  0.90790880  1  0  -0.11885  0  3.781556  0  0  -0.138182  0  4.029953  0  0  -0.140852  0  4.052162  0  0  -0.099576  -0.136199  0  4.014904  0
C  C83  1  0.11369296  0.11006337  0.09209317  1  0  -0.119049  0  3.781671  0  0  -0.138341  0  4.030077  0  0  -0.141014  0  4.052282  0  0  -0.09964  -0.136353  0  4.015024  0
C  C84  1  0.15219146  0.58778431  0.46701838  1  0  -0.099643  0  3.685716  0  0  -0.119494  0  3.934809  0  0  -0.122429  0  3.95527  0  0  -0.077053  -0.117549  0  3.920973  0
C  C85  1  0.65221652  0.41221633  0.53298275  1  0  -0.09968  0  3.685697  0  0  -0.119514  0  3.93478  0  0  -0.122444  0  3.955243  0  0  -0.077059  -0.117571  0  3.920944  0
C  C86  1  0.65222075  0.91221580  0.96701781  1  0  -0.099641  0  3.685623  0  0  -0.119481  0  3.934704  0  0  -0.122413  0  3.955172  0  0  -0.077058  -0.117533  0  3.920862  0
C  C87  1  0.15218723  0.08777989  0.03298376  1  0  -0.099569  0  3.685484  0  0  -0.119358  0  3.934547  0  0  -0.122288  0  3.955015  0  0  -0.076943  -0.117416  0  3.920716  0
I  I88  1  0.35818548  0.33564964  0.86640742  1  0  -0.336311  0  1.220919  0  0  -0.298639  0  1.57315  0  0  -0.316181  0  1.552805  0  0  -0.170326  -0.286841  0  1.58802  0
I  I89  1  0.85819894  0.66435231  0.13359174  1  0  -0.336303  0  1.220954  0  0  -0.298623  0  1.573186  0  0  -0.316166  0  1.552843  0  0  -0.170318  -0.286831  0  1.588065  0
I  I90  1  0.85816235  0.16435821  0.36640225  1  0  -0.336311  0  1.221001  0  0  -0.298622  0  1.573264  0  0  -0.316162  0  1.552915  0  0  -0.170309  -0.286822  0  1.588146  0
I  I91  1  0.35821034  0.83565240  0.63359204  1  0  -0.336298  0  1.220925  0  0  -0.298634  0  1.573177  0  0  -0.316174  0  1.552833  0  0  -0.170326  -0.286836  0  1.588049  0
I  I92  1  0.64641707  0.58248234  0.94220053  1  0  -0.265204  0  1.417906  0  0  -0.215555  0  1.800611  0  0  -0.236565  0  1.782182  0  0  -0.116068  -0.201353  0  1.814473  0
I  I93  1  0.14641169  0.41751889  0.05779838  1  0  -0.265225  0  1.417855  0  0  -0.215583  0  1.800567  0  0  -0.236593  0  1.782136  0  0  -0.116086  -0.201379  0  1.814421  0
I  I94  1  0.14640580  0.91752280  0.44219968  1  0  -0.265186  0  1.417851  0  0  -0.21553  0  1.800558  0  0  -0.236541  0  1.782131  0  0  -0.116067  -0.201322  0  1.814417  0
I  I95  1  0.64642296  0.08248215  0.55779878  1  0  -0.265214  0  1.41785  0  0  -0.215557  0  1.800563  0  0  -0.236567  0  1.782134  0  0  -0.116089  -0.201353  0  1.814422  0
Br  Br96  1  0.84922417  0.70527130  0.31356032  1  0  -0.073703  0  1.339513  0  0  -0.061343  0  1.612241  0  0  -0.068448  0  1.606438  0  0  0.051614  -0.055891  0  1.616205  0
Br  Br97  1  0.34920813  0.29472567  0.68643706  1  0  -0.073705  0  1.339529  0  0  -0.061362  0  1.612242  0  0  -0.068472  0  1.60645  0  0  0.051597  -0.055908  0  1.616195  0
Br  Br98  1  0.34921250  0.79472642  0.81356333  1  0  -0.0737  0  1.339529  0  0  -0.061375  0  1.612231  0  0  -0.068476  0  1.60643  0  0  0.051589  -0.055919  0  1.616195  0
Br  Br99  1  0.84922684  0.20527241  0.18643980  1  0  -0.073749  0  1.33952  0  0  -0.061387  0  1.612269  0  0  -0.068495  0  1.606467  0  0  0.051592  -0.055936  0  1.616221  0
N  N100  1  0.05078024  0.54373643  0.79053242  1  0  -0.283152  0  3.240033  0  0  -0.205541  0  3.495519  0  0  -0.226028  0  3.518217  0  0  -0.315553  -0.191581  0  3.479715  0
N  N101  1  0.55078841  0.45626262  0.20946593  1  0  -0.283065  0  3.240116  0  0  -0.205436  0  3.495559  0  0  -0.225925  0  3.51826  0  0  -0.315514  -0.191477  0  3.479746  0
N  N102  1  0.55079445  0.95626656  0.29053210  1  0  -0.283095  0  3.24004  0  0  -0.20546  0  3.495489  0  0  -0.225949  0  3.518191  0  0  -0.315542  -0.191503  0  3.479688  0
N  N103  1  0.05081176  0.04373806  0.70946758  1  0  -0.283136  0  3.240158  0  0  -0.205498  0  3.495601  0  0  -0.225984  0  3.518299  0  0  -0.315567  -0.191545  0  3.479798  0
N  N104  1  0.05296604  0.60192590  0.57019306  1  0  -0.318119  0  3.081862  0  0  -0.282385  0  3.350513  0  0  -0.292271  0  3.364552  0  0  -0.303291  -0.275608  0  3.340766  0
N  N105  1  0.55300145  0.39807130  0.42980353  1  0  -0.318036  0  3.082105  0  0  -0.282336  0  3.350696  0  0  -0.292221  0  3.364735  0  0  -0.303265  -0.275563  0  3.340957  0
N  N106  1  0.55300096  0.89807248  0.07019638  1  0  -0.318125  0  3.082186  0  0  -0.282418  0  3.350811  0  0  -0.292305  0  3.364852  0  0  -0.303302  -0.275646  0  3.341071  0
N  N107  1  0.05297827  0.10192844  0.92980508  1  0  -0.318177  0  3.081855  0  0  -0.28245  0  3.350508  0  0  -0.292336  0  3.364548  0  0  -0.303331  -0.275675  0  3.340768  0
