# generated using pymatgen
data_CuH5C5NCl2O
_symmetry_space_group_name_H-M   'P 1'
_cell_length_a   5.77113157
_cell_length_b   9.94877677
_cell_length_c   13.56163181
_cell_angle_alpha   89.99784970
_cell_angle_beta   90.00494387
_cell_angle_gamma   106.75678854
_symmetry_Int_Tables_number   1
_chemical_formula_structural   CuH5C5NCl2O
_chemical_formula_sum   'Cu4 H20 C20 N4 Cl8 O4'
_cell_volume   745.58689896
_cell_formula_units_Z   4
loop_
 _symmetry_equiv_pos_site_id
 _symmetry_equiv_pos_as_xyz
  1  'x, y, z'
loop_
 _atom_site_type_symbol
 _atom_site_label
 _atom_site_symmetry_multiplicity
 _atom_site_fract_x
 _atom_site_fract_y
 _atom_site_fract_z
 _atom_site_occupancy
 _atom_site_hle17_ddec_charge
 _atom_site_hle17_ddec_spin_density
 _atom_site_hle17_ddec_sum_bond_order
 _atom_site_hle17_magmom
 _atom_site_hse06_10hf_ddec_charge
 _atom_site_hse06_10hf_ddec_spin_density
 _atom_site_hse06_10hf_ddec_sum_bond_order
 _atom_site_hse06_10hf_magmom
 _atom_site_hse06_ddec_charge
 _atom_site_hse06_ddec_spin_density
 _atom_site_hse06_ddec_sum_bond_order
 _atom_site_hse06_magmom
 _atom_site_pbe_cm5_charge
 _atom_site_pbe_ddec_charge
 _atom_site_pbe_ddec_spin_density
 _atom_site_pbe_ddec_sum_bond_order
 _atom_site_pbe_magmom
Cu  Cu0  1  0.72655601  0.39255883  0.48662329  1  0.796318  0.455111  1.921485  0.328  0.803224  0.667676  2.343223  0.528  0.915003  0.795228  2.245609  0.65  0.532814  0.733233  0.451628  2.408842  0.352
Cu  Cu1  1  0.27342486  0.10747290  0.98664581  1  0.796356  0.454794  1.921393  0.328  0.803219  0.667555  2.343138  0.528  0.915053  0.795171  2.245468  0.65  0.532885  0.73322  0.451121  2.408798  0.352
Cu  Cu2  1  0.27344954  0.60743889  0.51337889  1  0.796276  -0.455108  1.921516  -0.328  0.80321  -0.667667  2.343245  -0.528  0.915042  -0.795244  2.245629  -0.65  0.532816  0.733234  -0.451624  2.408872  -0.352
Cu  Cu3  1  0.72657596  0.89252583  0.01335268  1  0.796351  -0.454794  1.921448  -0.328  0.803264  -0.667558  2.343185  -0.528  0.915038  -0.795161  2.245523  -0.65  0.532899  0.733231  -0.451132  2.408852  -0.352
H  H4  1  0.14537178  0.42476784  0.72628632  1  0.124652  0.001694  0.94157  0.0  0.131974  0.001762  1.005084  0.0  0.135552  0.001441  1.00214  0.0  0.121716  0.12898  0.001487  1.008642  0.0
H  H5  1  0.85470415  0.07521167  0.22621138  1  0.124294  0.001697  0.942116  0.0  0.131791  0.001763  1.005491  0.0  0.135405  0.001442  1.002503  0.0  0.121626  0.128796  0.001488  1.009047  0.0
H  H6  1  0.85461413  0.57522135  0.27371734  1  0.124657  -0.001698  0.94163  0.0  0.132003  -0.001762  1.00511  0.0  0.135581  -0.001441  1.002168  0.0  0.121749  0.129008  -0.001487  1.008669  0.0
H  H7  1  0.14529592  0.92478915  0.77378269  1  0.124382  -0.001695  0.942061  0.0  0.131839  -0.001763  1.005454  0.0  0.135451  -0.001442  1.002469  0.0  0.121633  0.12884  -0.001488  1.009012  0.0
H  H8  1  0.06992321  0.46515591  0.90488829  1  0.117879  0.000129  0.945092  0.0  0.128848  0.000258  0.9998  0.0  0.131491  0.000195  0.999498  0.0  0.109335  0.127113  0.000209  1.000043  0.0
H  H9  1  0.93015267  0.03491078  0.40483413  1  0.11792  0.000131  0.945057  0.0  0.12875  0.000258  0.999911  0.0  0.131394  0.000196  0.999607  0.0  0.109297  0.127009  0.00021  1.000153  0.0
H  H10  1  0.93006618  0.53484063  0.09511390  1  0.117847  -0.000132  0.945118  0.0  0.12888  -0.000258  0.999754  0.0  0.131522  -0.000196  0.999453  0.0  0.109334  0.127147  -0.000209  0.999994  0.0
H  H11  1  0.06984143  0.96509207  0.59516068  1  0.117934  -0.000128  0.945023  0.0  0.128768  -0.000258  0.99985  0.0  0.131412  -0.000196  0.999546  0.0  0.109305  0.127027  -0.00021  1.000091  0.0
H  H12  1  0.78161397  0.60807478  0.94718099  1  0.096144  0.000422  0.960539  0.0  0.099888  0.000236  1.035059  0.0  0.102644  0.000228  1.032109  0.0  0.099945  0.097836  0.000167  1.037325  0.0
H  H13  1  0.21843578  0.89199082  0.44720723  1  0.096141  0.000421  0.960512  0.0  0.09988  0.000235  1.03501  0.0  0.10261  0.000227  1.032093  0.0  0.099983  0.09787  0.000167  1.037228  0.0
H  H14  1  0.21838908  0.39193233  0.05281898  1  0.096121  -0.000424  0.960591  0.0  0.099899  -0.000236  1.035069  0.0  0.102648  -0.000228  1.032125  0.0  0.099955  0.097853  -0.000167  1.037332  0.0
H  H15  1  0.78155708  0.10801307  0.55279347  1  0.096125  -0.000422  0.960527  0.0  0.09987  -0.000235  1.035024  0.0  0.1026  -0.000228  1.032105  0.0  0.099975  0.097864  -0.000167  1.037236  0.0
H  H16  1  0.59510194  0.70775200  0.80873497  1  0.119614  0.000179  0.977941  0.0  0.124314  0.000195  1.044792  0.0  0.128205  0.000174  1.043218  0.0  0.096452  0.121587  0.000153  1.046438  0.0
H  H17  1  0.40494429  0.79225272  0.30881047  1  0.119515  0.000177  0.977742  0.0  0.12408  0.000195  1.04479  0.0  0.127986  0.000174  1.043208  0.0  0.09638  0.121372  0.000154  1.046413  0.0
H  H18  1  0.40491752  0.29226049  0.19126353  1  0.119597  -0.000173  0.978037  0.0  0.124274  -0.000195  1.0449  0.0  0.128177  -0.000173  1.043319  0.0  0.096462  0.121565  -0.000153  1.046532  0.0
H  H19  1  0.59505032  0.20774387  0.69119246  1  0.119512  -0.000173  0.977805  0.0  0.124068  -0.000195  1.044852  0.0  0.127975  -0.000174  1.043268  0.0  0.096369  0.121364  -0.000154  1.046468  0.0
H  H20  1  0.70093983  0.66186635  0.63347320  1  0.110751  0.000463  0.978565  0.0  0.110927  0.00031  1.054419  0.0  0.112953  0.000322  1.052717  0.0  0.114891  0.109446  0.000216  1.055826  0.0
H  H21  1  0.29913119  0.83807640  0.13352151  1  0.110589  0.000465  0.978582  0.0  0.11058  0.00031  1.054761  0.0  0.112621  0.000322  1.053043  0.0  0.114824  0.109099  0.000216  1.056167  0.0
H  H22  1  0.29907267  0.33813875  0.36652678  1  0.110682  -0.000468  0.978494  0.0  0.110836  -0.000311  1.054417  0.0  0.112866  -0.000323  1.052707  0.0  0.114861  0.109356  -0.000217  1.055824  0.0
H  H23  1  0.70086144  0.16191598  0.86647994  1  0.110566  -0.000468  0.978526  0.0  0.110551  -0.000311  1.054742  0.0  0.112593  -0.000322  1.053024  0.0  0.114807  0.109069  -0.000216  1.056149  0.0
C  C24  1  0.02690121  0.48575663  0.75087774  1  0.038165  -0.002623  3.564609  -0.002  -0.001043  -0.000898  3.818158  -0.001  0.005014  -0.000626  3.832149  -0.001  0.055327  -0.004403  -0.001252  3.809361  -0.001
C  C25  1  0.97314872  0.01423781  0.25083675  1  0.038469  -0.002615  3.564601  -0.002  -0.001022  -0.000888  3.818248  -0.001  0.005005  -0.000619  3.832222  -0.001  0.055399  -0.00437  -0.001242  3.809435  -0.001
C  C26  1  0.97308943  0.51423888  0.24912444  1  0.038209  0.002641  3.564615  0.002  -0.001015  0.0009  3.81816  0.001  0.005042  0.000627  3.832145  0.001  0.055342  -0.004376  0.001253  3.809368  0.001
C  C27  1  0.02685335  0.98575989  0.74916027  1  0.038309  0.002629  3.564317  0.002  -0.001172  0.00089  3.818003  0.001  0.004854  0.000619  3.831977  0.001  0.055353  -0.004523  0.001243  3.809193  0.001
C  C28  1  0.98155588  0.51047987  0.84830402  1  -0.07958  0.0026  3.70084  0.003  -0.089277  0.001187  3.946408  0.001  -0.095336  0.001246  3.966067  0.001  -0.06964  -0.084729  0.000944  3.931546  0.001
C  C29  1  0.01850653  0.98955656  0.34827763  1  -0.079608  0.002589  3.701128  0.003  -0.089078  0.001183  3.946624  0.001  -0.095142  0.001242  3.966287  0.001  -0.069579  -0.084526  0.000941  3.931755  0.001
C  C30  1  0.01843749  0.48951775  0.15169743  1  -0.079568  -0.002615  3.700859  -0.003  -0.089327  -0.001188  3.946449  -0.001  -0.095385  -0.001245  3.966103  -0.001  -0.069625  -0.084778  -0.000944  3.931587  -0.001
C  C31  1  0.98148857  0.01044839  0.65171865  1  -0.079614  -0.00262  3.700988  -0.003  -0.089034  -0.001184  3.946426  -0.001  -0.095096  -0.001241  3.966088  -0.001  -0.069599  -0.084475  -0.000941  3.931552  -0.001
C  C32  1  0.82360359  0.58942485  0.87084532  1  0.032671  -0.006292  3.656405  -0.006  0.004468  -0.003524  3.912583  -0.003  0.009114  -0.002623  3.929369  -0.003  -0.054093  0.003123  -0.003653  3.898912  -0.003
C  C33  1  0.17643542  0.91061090  0.37085848  1  0.032697  -0.00626  3.656756  -0.006  0.004584  -0.003509  3.912826  -0.003  0.009261  -0.002614  3.929611  -0.003  -0.054046  0.003205  -0.003634  3.899133  -0.003
C  C34  1  0.17639673  0.41058014  0.12915539  1  0.032708  0.006323  3.656438  0.006  0.004501  0.003526  3.912598  0.003  0.009155  0.002625  3.929385  0.003  -0.0541  0.003148  0.003653  3.898938  0.003
C  C35  1  0.82356068  0.08938884  0.62914002  1  0.032691  0.006295  3.656781  0.006  0.004532  0.00351  3.91287  0.003  0.009212  0.002613  3.92965  0.003  -0.054077  0.003152  0.003635  3.899173  0.003
C  C36  1  0.71832795  0.64501944  0.79435703  1  -0.099448  0.003606  3.703818  0.003  -0.109378  0.00184  3.953242  0.002  -0.118102  0.001833  3.975891  0.002  -0.076529  -0.103546  0.001385  3.937694  0.001
C  C37  1  0.28172391  0.85498145  0.29439762  1  -0.099585  0.0036  3.703468  0.003  -0.109678  0.001837  3.953332  0.002  -0.118368  0.00183  3.975893  0.002  -0.076616  -0.103865  0.001382  3.937787  0.001
C  C38  1  0.28168206  0.35498773  0.20564368  1  -0.099492  -0.003657  3.703971  -0.003  -0.109426  -0.001842  3.953448  -0.002  -0.118157  -0.001833  3.976082  -0.002  -0.07654  -0.103607  -0.001385  3.937894  -0.001
C  C39  1  0.71826822  0.14501721  0.70560309  1  -0.099557  -0.003647  3.70329  -0.003  -0.109623  -0.001838  3.953149  -0.002  -0.118308  -0.001829  3.975708  -0.002  -0.076554  -0.103811  -0.001383  3.937599  -0.001
C  C40  1  0.77076683  0.62069593  0.69760225  1  0.047655  -0.004046  3.595619  -0.004  0.008565  -0.002723  3.849365  -0.003  0.015332  -0.002333  3.864521  -0.002  0.05447  0.005702  -0.002365  3.838611  -0.002
C  C41  1  0.22928096  0.87927245  0.19762554  1  0.048127  -0.004035  3.595544  -0.004  0.009324  -0.00271  3.84899  -0.003  0.015987  -0.002325  3.864323  -0.002  0.054641  0.006444  -0.00235  3.838279  -0.002
C  C42  1  0.22923821  0.37930806  0.30239698  1  0.047831  0.004091  3.595596  0.004  0.008752  0.002723  3.849333  0.003  0.015495  0.002335  3.864534  0.002  0.054526  0.005884  0.002365  3.838592  0.002
C  C43  1  0.77071738  0.12072103  0.80237369  1  0.048227  0.004076  3.595452  0.004  0.009403  0.002711  3.848907  0.003  0.016052  0.002324  3.864258  0.002  0.054703  0.006525  0.00235  3.838195  0.002
N  N44  1  0.91902430  0.54079148  0.67885237  1  0.247707  0.001381  3.630836  0.003  0.304049  0.001015  3.887885  0.002  0.303787  0.001278  3.912446  0.002  -0.12611  0.302822  0.000583  3.870018  0.001
N  N45  1  0.08103126  0.95916483  0.17884233  1  0.247774  0.001373  3.63063  0.003  0.304105  0.00101  3.887656  0.002  0.303852  0.001273  3.912213  0.002  -0.126066  0.302873  0.00058  3.869779  0.001
N  N46  1  0.08097777  0.45920622  0.32114982  1  0.247607  -0.001392  3.630829  -0.003  0.303975  -0.001015  3.887871  -0.002  0.303717  -0.001279  3.912423  -0.002  -0.126154  0.302746  -0.000583  3.87001  -0.001
N  N47  1  0.91897006  0.04083495  0.82115616  1  0.247757  -0.001391  3.630626  -0.003  0.304105  -0.001011  3.887641  -0.002  0.303856  -0.001273  3.912195  -0.002  -0.12608  0.302873  -0.000581  3.869765  -0.001
Cl  Cl48  1  0.62729552  0.21074456  0.38565012  1  -0.515292  0.103228  0.966596  0.119  -0.496123  0.080454  1.240918  0.099  -0.53169  0.067342  1.217056  0.086  -0.302422  -0.478552  0.064392  1.259912  0.077
Cl  Cl49  1  0.37272865  0.28928340  0.88566541  1  -0.515388  0.103122  0.966685  0.119  -0.496133  0.080428  1.240922  0.099  -0.531702  0.06733  1.217053  0.086  -0.302456  -0.478571  0.064303  1.259922  0.077
Cl  Cl50  1  0.37270182  0.78925414  0.61434911  1  -0.515305  -0.103231  0.966617  -0.119  -0.496136  -0.080458  1.24094  -0.099  -0.531725  -0.067342  1.21709  -0.086  -0.302433  -0.478577  -0.064395  1.259937  -0.077
Cl  Cl51  1  0.62727714  0.71071851  0.11433235  1  -0.515375  -0.103123  0.966747  -0.119  -0.496131  -0.080428  1.241005  -0.099  -0.531683  -0.067332  1.217127  -0.086  -0.302449  -0.478557  -0.064301  1.259997  -0.077
Cl  Cl52  1  0.39807571  0.34902747  0.57868430  1  -0.523816  0.092026  1.039836  0.105  -0.518786  0.074119  1.342186  0.09  -0.557303  0.062212  1.313256  0.077  -0.294067  -0.496698  0.059105  1.364036  0.07
Cl  Cl53  1  0.60188916  0.15097190  0.07872723  1  -0.523906  0.091977  1.039787  0.105  -0.518899  0.074119  1.342188  0.09  -0.557409  0.06222  1.313236  0.077  -0.294139  -0.496797  0.059048  1.364003  0.07
Cl  Cl54  1  0.60192363  0.65096811  0.42131936  1  -0.523808  -0.092027  1.039857  -0.105  -0.518802  -0.074121  1.342254  -0.09  -0.557319  -0.062212  1.313316  -0.077  -0.294062  -0.496688  -0.059106  1.364051  -0.07
Cl  Cl55  1  0.39811166  0.84902684  0.92127053  1  -0.52393  -0.09198  1.039797  -0.105  -0.518931  -0.074121  1.342202  -0.09  -0.55742  -0.062221  1.313226  -0.077  -0.294131  -0.496795  -0.059047  1.36397  -0.07
O  O56  1  0.96248144  0.51628833  0.58330451  1  -0.513381  -0.014316  2.144869  -0.019  -0.501551  -0.008104  2.477573  -0.012  -0.556594  -0.007066  2.478101  -0.011  -0.262086  -0.461833  -0.006267  2.47707  -0.009
O  O57  1  0.03758845  0.98362621  0.08327824  1  -0.513407  -0.014243  2.144803  -0.019  -0.501566  -0.008072  2.477547  -0.012  -0.556591  -0.007041  2.47803  -0.011  -0.26215  -0.461829  -0.006234  2.477038  -0.009
O  O58  1  0.03751964  0.48370727  0.41669841  1  -0.513381  0.014309  2.144827  0.019  -0.501601  0.008105  2.477568  0.012  -0.556639  0.007071  2.478093  0.011  -0.262134  -0.461882  0.006268  2.477069  0.009
O  O59  1  0.96241561  0.01636837  0.91671879  1  -0.513386  0.014242  2.144688  0.019  -0.501565  0.008073  2.477442  0.012  -0.556586  0.007042  2.477921  0.011  -0.262135  -0.461831  0.006239  2.476937  0.009
