# generated using pymatgen
data_CaH4(C3O2)3
_symmetry_space_group_name_H-M   'P 1'
_cell_length_a   6.74878089
_cell_length_b   9.23419246
_cell_length_c   10.09694998
_cell_angle_alpha   67.29258688
_cell_angle_beta   78.34709002
_cell_angle_gamma   67.62679686
_symmetry_Int_Tables_number   1
_chemical_formula_structural   CaH4(C3O2)3
_chemical_formula_sum   'Ca2 H8 C18 O12'
_cell_volume   535.65030861
_cell_formula_units_Z   2
loop_
 _symmetry_equiv_pos_site_id
 _symmetry_equiv_pos_as_xyz
  1  'x, y, z'
loop_
 _atom_site_type_symbol
 _atom_site_label
 _atom_site_symmetry_multiplicity
 _atom_site_fract_x
 _atom_site_fract_y
 _atom_site_fract_z
 _atom_site_occupancy
 _atom_site_pbe_bader_charge
 _atom_site_pbe_bader_spin_density
 _atom_site_pbe_cm5_charge
 _atom_site_pbe_ddec_charge
 _atom_site_pbe_ddec_spin_density
 _atom_site_pbe_ddec_sum_bond_order
 _atom_site_pbe_magmom
Ca  Ca0  1  0.24002875  0.46065755  0.11366292  1  1.63405  0  0.952226  1.376532  0  1.426846  0
Ca  Ca1  1  0.75996255  0.53934259  0.88633685  1  1.634067  0  0.952282  1.376554  0  1.42678  0
H  H2  1  0.25207877  0.28153270  0.44247955  1  0.686639  0  0.319896  0.388007  0  0.952011  0
H  H3  1  0.74792428  0.71846889  0.55750938  1  0.686692  0  0.319925  0.388083  0  0.951881  0
H  H4  1  0.24845149  0.91910751  0.23409946  1  0.152815  0  0.122033  0.13008  0  0.981891  0
H  H5  1  0.75156736  0.08088137  0.76589765  1  0.152955  0  0.122042  0.130082  0  0.981888  0
H  H6  1  0.28240703  0.89471309  0.66484577  1  0.11557  0  0.121014  0.126011  0  0.989391  0
H  H7  1  0.71759876  0.10529559  0.33515140  1  0.115868  0  0.121021  0.126024  0  0.989421  0
H  H8  1  0.21742474  0.48403592  0.59493811  1  0.130849  0  0.117742  0.121626  0  0.99328  0
H  H9  1  0.78254809  0.51597146  0.40507146  1  0.130909  0  0.117761  0.12166  0  0.993301  0
C  C10  1  0.23534311  0.69254215  0.40428000  1  0.048161  0  -0.011926  -0.033274  0  3.961523  0
C  C11  1  0.76465083  0.30745176  0.59572148  1  0.048402  0  -0.011871  -0.033197  0  3.961655  0
C  C12  1  0.25409820  0.67874407  0.64627380  1  0.003517  0  -0.008613  -0.049502  0  3.984433  0
C  C13  1  0.74590110  0.32125452  0.35373343  1  0.003437  0  -0.008539  -0.049512  0  3.984624  0
C  C14  1  0.25071411  0.85223011  0.34962818  1  -0.066685  0  -0.05339  -0.066896  0  3.864958  0
C  C15  1  0.74929399  0.14776243  0.65037301  1  -0.066871  0  -0.053486  -0.066955  0  3.865225  0
C  C16  1  0.26960666  0.09883498  0.38558703  1  1.535559  0  0.248373  0.605021  0  4.102374  0
C  C17  1  0.73041752  0.90115855  0.61441681  1  1.535597  0  0.248541  0.605405  0  4.101971  0
C  C18  1  0.26943264  0.83827156  0.59157694  1  -0.014276  0  -0.060139  -0.089858  0  3.912264  0
C  C19  1  0.73058142  0.16172458  0.40842531  1  -0.014637  0  -0.060173  -0.089794  0  3.912239  0
C  C20  1  0.21506400  0.61665482  0.30307100  1  1.561812  0  0.206304  0.585267  0  4.219693  0
C  C21  1  0.78493095  0.38334036  0.69692895  1  1.561466  0  0.206357  0.585302  0  4.21983  0
C  C22  1  0.25723031  0.58976140  0.80503623  1  1.55164  0  0.239303  0.624255  0  4.170542  0
C  C23  1  0.74275821  0.41024465  0.19497185  1  1.551482  0  0.239291  0.624411  0  4.170583  0
C  C24  1  0.23416779  0.60672862  0.55272865  1  -0.07165  0  -0.057194  -0.077771  0  3.900407  0
C  C25  1  0.76581675  0.39327630  0.44727731  1  -0.07161  0  -0.057208  -0.077835  0  3.900577  0
C  C26  1  0.26483072  0.92605993  0.44338392  1  -0.010242  0  -0.017952  -0.060054  0  4.006468  0
C  C27  1  0.73517930  0.07393881  0.55661501  1  -0.010218  0  -0.017896  -0.060187  0  4.006548  0
O  O28  1  0.20669479  0.46759268  0.35447884  1  -1.230306  0  -0.370506  -0.653799  0  2.310324  0
O  O29  1  0.79328786  0.53240222  0.64553361  1  -1.230229  0  -0.370594  -0.653866  0  2.31041  0
O  O30  1  0.38118886  0.60579809  0.87488217  1  -1.22794  0  -0.378947  -0.647953  0  2.218515  0
O  O31  1  0.61880419  0.39421560  0.12511592  1  -1.227884  0  -0.378978  -0.648014  0  2.218463  0
O  O32  1  0.26312149  0.15917649  0.48662992  1  -1.194202  0  -0.312021  -0.480882  0  2.336905  0
O  O33  1  0.73688860  0.84082626  0.51335876  1  -1.194196  0  -0.312182  -0.481167  0  2.336453  0
O  O34  1  0.13519462  0.50238795  0.86919306  1  -1.22396  0  -0.371856  -0.647541  0  2.163524  0
O  O35  1  0.86480107  0.49760257  0.13079842  1  -1.223925  0  -0.37188  -0.647658  0  2.163689  0
O  O36  1  0.27643728  0.17904134  0.25424970  1  -1.191139  0  -0.329566  -0.565556  0  2.175995  0
O  O37  1  0.72357897  0.82096157  0.74573223  1  -1.1912  0  -0.329596  -0.565623  0  2.176266  0
O  O38  1  0.20774230  0.69825916  0.16956322  1  -1.190104  0  -0.354789  -0.583729  0  2.074096  0
O  O39  1  0.79224673  0.30174946  0.83044098  1  -1.190217  0  -0.354811  -0.583698  0  2.074024  0
