# generated using pymatgen
data_NiH22C22(NO2)4
_symmetry_space_group_name_H-M   'P 1'
_cell_length_a   7.82340918
_cell_length_b   9.84073991
_cell_length_c   15.99187938
_cell_angle_alpha   104.02386856
_cell_angle_beta   99.35826223
_cell_angle_gamma   105.49095429
_symmetry_Int_Tables_number   1
_chemical_formula_structural   NiH22C22(NO2)4
_chemical_formula_sum   'Ni2 H44 C44 N8 O16'
_cell_volume   1116.55198578
_cell_formula_units_Z   2
loop_
 _symmetry_equiv_pos_site_id
 _symmetry_equiv_pos_as_xyz
  1  'x, y, z'
loop_
 _atom_site_type_symbol
 _atom_site_label
 _atom_site_symmetry_multiplicity
 _atom_site_fract_x
 _atom_site_fract_y
 _atom_site_fract_z
 _atom_site_occupancy
 _atom_site_pbe_bader_charge
 _atom_site_pbe_bader_spin_density
 _atom_site_pbe_cm5_charge
 _atom_site_pbe_ddec_charge
 _atom_site_pbe_ddec_spin_density
 _atom_site_pbe_ddec_sum_bond_order
 _atom_site_pbe_magmom
Ni  Ni0  1  0.87099005  0.87048218  0.74105222  1  1.159397  0.003733  0.645178  0.802117  0.004969  2.514107  0.004
Ni  Ni1  1  0.12962861  0.12941349  0.25895241  1  1.159973  0.001815  0.644724  0.80107  0.001497  2.514831  0.002
H  H2  1  0.58384209  0.79244976  0.58382293  1  0.672961  0.002147  0.293044  0.392457  0.00242  0.942674  0.003
H  H3  1  0.00093392  0.79092023  0.58316787  1  0.661458  -0.002091  0.292302  0.392899  -0.002308  0.942477  -0.003
H  H4  1  0.41711572  0.20755915  0.41670831  1  0.665719  -0.002101  0.293211  0.392589  -0.002336  0.94298  -0.003
H  H5  1  0.99956954  0.20857451  0.41628558  1  0.663342  0.002161  0.292683  0.39287  0.002393  0.942147  0.003
H  H6  1  0.58271726  0.91267579  0.67762824  1  0.645398  -0.000179  0.286455  0.372707  0.000106  0.977288  0.0
H  H7  1  0.09558233  0.76488301  0.67712130  1  0.628308  0.000252  0.286684  0.37189  -2.4e-05  0.978685  0.0
H  H8  1  0.41808024  0.08759601  0.32280566  1  0.646656  0.000245  0.286028  0.372264  -4.2e-05  0.977919  0.0
H  H9  1  0.90487488  0.23500079  0.32243108  1  0.659055  -0.000203  0.286442  0.372265  8.8e-05  0.978192  0.0
H  H10  1  0.04755540  0.13660345  0.88582555  1  0.122406  -5.2e-05  0.126831  0.104344  -2.5e-05  0.993781  0.0
H  H11  1  0.83844699  0.74947877  0.88585632  1  0.159081  -0.00019  0.126492  0.10326  -0.000128  0.995713  0.0
H  H12  1  0.95230451  0.86346334  0.11408695  1  0.1343  -0.000136  0.126836  0.104184  -9.3e-05  0.993954  0.0
H  H13  1  0.16152809  0.25068776  0.11423042  1  0.16048  8e-06  0.126637  0.1038  1.1e-05  0.9955  0.0
H  H14  1  0.12821434  0.53752921  0.66245673  1  0.498029  -1.7e-05  0.307668  0.274941  -4.2e-05  0.998566  0.0
H  H15  1  0.53426681  0.12478547  0.66278885  1  0.505186  2.6e-05  0.308235  0.274996  5.4e-05  0.998789  0.0
H  H16  1  0.87125168  0.46205179  0.33725249  1  0.498208  2.4e-05  0.307609  0.274455  5.1e-05  0.99938  0.0
H  H17  1  0.46553041  0.87514637  0.33751478  1  0.503571  -2e-05  0.308179  0.274918  -4.6e-05  0.997501  0.0
H  H18  1  0.16517633  0.41131320  0.90763657  1  0.074605  -7.7e-05  0.106372  0.108377  -5e-05  1.006845  0.0
H  H19  1  0.74238812  0.49677146  0.90787306  1  0.082153  -5.6e-05  0.105105  0.108014  -3.6e-05  1.006746  0.0
H  H20  1  0.83430086  0.58873349  0.09212265  1  0.079654  -2.4e-05  0.106322  0.10876  -1.6e-05  1.006582  0.0
H  H21  1  0.25738148  0.50351617  0.09234021  1  0.086322  -4.4e-05  0.10499  0.108114  -2.9e-05  1.007045  0.0
H  H22  1  0.16941818  0.49991621  0.77506777  1  0.124542  -2.4e-05  0.108496  0.104358  -3e-05  1.061482  0.0
H  H23  1  0.60563747  0.27535007  0.77542120  1  0.148252  1e-05  0.109024  0.106724  1.9e-05  1.059714  0.0
H  H24  1  0.83025947  0.49988836  0.22463252  1  0.155442  1.5e-05  0.10856  0.10454  2.3e-05  1.061502  0.0
H  H25  1  0.39435007  0.72478443  0.22485302  1  0.145766  -1.8e-05  0.109023  0.106053  -2.7e-05  1.060191  0.0
H  H26  1  0.95161060  0.04253344  0.61250854  1  0.145137  -0.000132  0.128137  0.106313  -9e-05  1.009389  0.0
H  H27  1  0.66165008  0.56961813  0.61254778  1  0.128752  -0.000175  0.128171  0.107109  -0.000106  1.008831  0.0
H  H28  1  0.04898815  0.95709047  0.38740404  1  0.147693  -9.7e-05  0.128435  0.106578  -5.8e-05  1.009822  0.0
H  H29  1  0.33909438  0.43015977  0.38753214  1  0.126896  -5.5e-05  0.128189  0.106869  -4.1e-05  1.008759  0.0
H  H30  1  0.15819301  0.44405476  0.47889842  1  0.103623  3.9e-05  0.11197  0.091183  5.1e-05  1.021387  0.0
H  H31  1  0.32076496  0.03465893  0.47921647  1  0.099264  -3.4e-05  0.111165  0.090406  -4.9e-05  1.021377  0.0
H  H32  1  0.84169600  0.55558012  0.52085792  1  0.104959  -3.3e-05  0.111933  0.091234  -4.6e-05  1.021816  0.0
H  H33  1  0.67933809  0.96517234  0.52104792  1  0.096223  4.1e-05  0.111319  0.09075  5.3e-05  1.021285  0.0
H  H34  1  0.18329057  0.62440763  0.54501392  1  0.082687  -0.000302  0.112795  0.093523  -0.000276  0.981675  0.0
H  H35  1  0.36196825  0.92044033  0.54531020  1  0.069948  0.000349  0.112425  0.093395  0.000311  0.982054  0.0
H  H36  1  0.81658677  0.37522733  0.45472901  1  0.082397  0.000335  0.113104  0.093739  0.000301  0.981705  0.0
H  H37  1  0.63819577  0.07946925  0.45500086  1  0.041673  -0.000325  0.111916  0.0925  -0.000288  0.982365  0.0
H  H38  1  0.18408994  0.94419275  0.00000017  1  0.101721  0.000363  0.107994  0.117929  0.000348  1.010122  0.0
H  H39  1  0.81530670  0.05612605  0.99999206  1  0.108365  -0.000348  0.107086  0.117345  -0.000334  1.010592  0.0
H  H40  1  0.45184280  0.67179512  0.85645471  1  0.100577  4.3e-05  0.09925  0.097338  2e-05  1.035481  0.0
H  H41  1  0.40427486  0.18531141  0.85648480  1  0.103423  -4e-05  0.099609  0.097866  -1.7e-05  1.035446  0.0
H  H42  1  0.54772467  0.32863745  0.14357255  1  0.101145  -4.2e-05  0.099522  0.097009  -1.8e-05  1.03483  0.0
H  H43  1  0.59529185  0.81520411  0.14355369  1  0.060342  4.7e-05  0.100132  0.098558  1.9e-05  1.034319  0.0
H  H44  1  0.63379215  0.67115774  0.00000668  1  0.047734  0.000442  0.090726  0.078626  0.000279  1.051317  0.0
H  H45  1  0.36591176  0.32938143  0.00002534  1  0.051714  -0.000437  0.091453  0.079456  -0.000279  1.051382  0.0
C  C46  1  0.05335537  0.18147544  0.83009399  1  0.469225  -0.000266  0.05468  0.09611  -0.000244  3.908413  0.0
C  C47  1  0.77700413  0.64877727  0.83016396  1  0.456526  0.000159  0.054614  0.097342  6e-05  3.91189  0.0
C  C48  1  0.94657897  0.81848861  0.16978071  1  0.456184  0.00019  0.054611  0.096238  0.000104  3.909029  0.0
C  C49  1  0.22313216  0.35134814  0.16994678  1  0.433521  -0.000243  0.054452  0.096502  -0.000202  3.912642  0.0
C  C50  1  0.11783813  0.33234747  0.84120525  1  -0.05404  -0.000186  -0.08629  -0.130169  -0.000167  3.988001  0.0
C  C51  1  0.72345947  0.50911495  0.84139161  1  -0.017959  -0.000388  -0.085918  -0.129273  -0.000323  3.990636  0.0
C  C52  1  0.88187767  0.66760825  0.15858342  1  -0.064245  -0.000245  -0.086096  -0.130114  -0.000203  3.988182  0.0
C  C53  1  0.27653304  0.49106544  0.15879114  1  0.006857  -4.2e-05  -0.085877  -0.129647  -4.5e-05  3.99108  0.0
C  C54  1  0.12086250  0.38144408  0.76663281  1  -0.045192  -0.000191  -0.066732  -0.060677  -0.000147  3.936961  0.0
C  C55  1  0.64589550  0.38532611  0.76690432  1  -0.141471  0.000387  -0.067704  -0.065543  0.000313  3.940247  0.0
C  C56  1  0.87894169  0.61836579  0.23310640  1  -0.070309  0.00034  -0.066965  -0.061827  0.000274  3.937118  0.0
C  C57  1  0.35422047  0.61477982  0.23332694  1  -0.13983  -0.000244  -0.067478  -0.063802  -0.000192  3.938616  0.0
C  C58  1  0.06122606  0.27670616  0.68241719  1  -0.051749  0.000141  -0.0117  -0.077698  0.000121  3.97935  0.0
C  C59  1  0.62148021  0.40565326  0.68263484  1  0.046518  -0.00064  -0.009088  -0.072373  -0.00055  3.976865  -0.001
C  C60  1  0.93884998  0.72301159  0.31735767  1  0.00166  -0.000521  -0.011419  -0.076054  -0.000446  3.979933  0.0
C  C61  1  0.37885588  0.59431219  0.31757192  1  0.045293  0.000271  -0.009807  -0.073851  0.000227  3.977543  0.0
C  C62  1  0.99889513  0.12688518  0.67686508  1  0.564332  -0.000243  0.065461  0.088527  -0.000254  3.863459  0.0
C  C63  1  0.67853747  0.54981674  0.67694875  1  0.490043  0.00024  0.063581  0.085482  0.000166  3.86672  0.0
C  C64  1  0.00143664  0.87284972  0.32300070  1  0.507864  0.000243  0.064853  0.087061  0.000189  3.866062  0.0
C  C65  1  0.32198861  0.45009938  0.32316611  1  0.489415  -0.000246  0.064689  0.08697  -0.000232  3.867151  0.0
C  C66  1  0.05634218  0.31433250  0.59696680  1  1.415193  -2.6e-05  0.243276  0.47193  3.8e-05  4.143047  0.0
C  C67  1  0.54070079  0.28246623  0.59723941  1  1.419134  -5.8e-05  0.242673  0.470213  -0.000112  4.143825  0.0
C  C68  1  0.94377119  0.68528698  0.40276302  1  1.416952  -3.9e-05  0.243119  0.471715  -9.5e-05  4.144788  0.0
C  C69  1  0.45962649  0.71746698  0.40299554  1  1.417925  -7e-06  0.242469  0.4694  5.5e-05  4.14245  0.0
C  C70  1  0.09742927  0.50833222  0.52407847  1  0.277333  -0.000332  -0.062726  -0.038981  -0.000315  3.898698  0.0
C  C71  1  0.42680041  0.01561182  0.52438275  1  0.329889  0.000363  -0.061851  -0.037794  0.000357  3.894763  0.0
C  C72  1  0.90244293  0.49130943  0.47565569  1  0.298359  0.00037  -0.063368  -0.040293  0.000354  3.900352  0.0
C  C73  1  0.57331514  0.98428353  0.47590170  1  0.331648  -0.000324  -0.061352  -0.036416  -0.000321  3.894422  0.0
C  C74  1  0.19547699  0.80599972  0.83276333  1  1.536105  0.002819  0.206144  0.567209  0.004226  4.193673  0.001
C  C75  1  0.63686406  0.02694481  0.83284520  1  1.562939  -0.002607  0.210015  0.571901  -0.004081  4.188907  -0.001
C  C76  1  0.80408093  0.19402727  0.16715310  1  1.541755  -0.002711  0.206028  0.566393  -0.004124  4.195713  -0.001
C  C77  1  0.36270663  0.97316873  0.16723228  1  1.563494  0.002727  0.209999  0.573053  0.004195  4.189256  0.001
C  C78  1  0.30377956  0.80480499  0.91923202  1  -0.036943  0.007274  -0.023134  -0.046091  0.006375  3.981666  0.005
C  C79  1  0.61503758  0.11494194  0.91922750  1  -0.050955  -0.00718  -0.024417  -0.047081  -0.006319  3.981576  -0.005
C  C80  1  0.69578638  0.19559114  0.08078149  1  0.017913  -0.007206  -0.02159  -0.04546  -0.006356  3.981309  -0.005
C  C81  1  0.38447355  0.88545984  0.08076503  1  -0.049171  0.007258  -0.025985  -0.049647  0.006363  3.982778  0.005
C  C82  1  0.28069885  0.88255702  0.99999654  1  -0.0006  0.000906  -0.080592  -0.103486  0.000809  3.93144  0.0
C  C83  1  0.71879235  0.11783370  0.99999775  1  -0.057175  -0.000883  -0.080254  -0.103336  -0.000783  3.931109  0.0
C  C84  1  0.43131139  0.72835664  0.91965460  1  -0.117221  0.002507  -0.08187  -0.081673  0.002013  3.973679  0.002
C  C85  1  0.48802006  0.19185813  0.91965345  1  -0.011325  -0.002413  -0.082024  -0.083439  -0.001972  3.974032  -0.002
C  C86  1  0.56831133  0.27207480  0.08037623  1  -0.083538  -0.00245  -0.083655  -0.082463  -0.001986  3.973634  -0.002
C  C87  1  0.51157169  0.80859336  0.08035545  1  0.028457  0.002461  -0.081714  -0.083455  0.002002  3.973799  0.002
C  C88  1  0.53360932  0.72970411  0.00000565  1  -0.04945  0.000905  -0.100884  -0.102746  0.000762  4.038037  0.001
C  C89  1  0.46603072  0.27077202  0.00001993  1  -0.098687  -0.000907  -0.10205  -0.10446  -0.000757  4.038754  -0.001
N  N90  1  0.99240886  0.08068320  0.74889125  1  -1.196492  -0.003461  -0.326509  -0.196696  -0.003009  3.588253  -0.003
N  N91  1  0.75708866  0.66816827  0.74890366  1  -1.206744  -0.005338  -0.324471  -0.196731  -0.004503  3.59149  -0.004
N  N92  1  0.00787462  0.91919089  0.25102678  1  -1.197254  -0.003206  -0.326435  -0.196373  -0.002687  3.588741  -0.003
N  N93  1  0.24336231  0.33182334  0.25117103  1  -1.207528  -0.001303  -0.32475  -0.196529  -0.001163  3.591677  -0.001
N  N94  1  0.09830422  0.45860180  0.60245509  1  -1.234978  -6e-06  -0.415073  -0.336507  -1.7e-05  3.548551  0.0
N  N95  1  0.50434466  0.14372350  0.60275851  1  -1.262472  -2.8e-05  -0.415801  -0.337618  -1.1e-05  3.547046  0.0
N  N96  1  0.90152823  0.54103433  0.39727697  1  -1.239636  -1.8e-05  -0.414766  -0.335363  -3e-06  3.55079  0.0
N  N97  1  0.49573657  0.85620619  0.39752279  1  -1.258398  2e-06  -0.415809  -0.33741  -1e-05  3.546927  0.0
O  O98  1  0.65635795  0.86470926  0.64200399  1  -1.295  0.059786  -0.587108  -0.78686  0.049936  2.223306  0.049
O  O99  1  0.98653542  0.77728396  0.64144768  1  -1.268377  -0.056324  -0.587919  -0.788647  -0.04738  2.220012  -0.046
O  O100  1  0.34453280  0.13549040  0.35846262  1  -1.290965  -0.057269  -0.587914  -0.78774  -0.048175  2.221019  -0.047
O  O101  1  0.01401837  0.22258214  0.35809901  1  -1.299713  0.059066  -0.586737  -0.787364  0.049392  2.221791  0.049
O  O102  1  0.01313721  0.21267224  0.52505884  1  -1.170604  0.002419  -0.293171  -0.497713  0.001911  2.166954  0.002
O  O103  1  0.51176847  0.31218858  0.52532827  1  -1.159114  -0.002335  -0.293314  -0.497373  -0.001852  2.167691  -0.002
O  O104  1  0.98730855  0.78701462  0.47468361  1  -1.16836  -0.002344  -0.292908  -0.497913  -0.001863  2.167848  -0.002
O  O105  1  0.48877333  0.68774007  0.47492229  1  -1.159915  0.002412  -0.293223  -0.49698  0.001902  2.163976  0.002
O  O106  1  0.09512736  0.88942573  0.83903460  1  -1.118424  0.085523  -0.300317  -0.545871  0.070967  2.366938  0.075
O  O107  1  0.74325165  0.94970086  0.83925562  1  -1.139438  -0.082959  -0.30578  -0.551055  -0.069021  2.357811  -0.073
O  O108  1  0.90421143  0.11050681  0.16075836  1  -1.122835  -0.083664  -0.301195  -0.546804  -0.069796  2.363598  -0.074
O  O109  1  0.25618187  0.05041542  0.16093276  1  -1.141268  0.085177  -0.304654  -0.549823  0.070437  2.362911  0.075
O  O110  1  0.20962610  0.72455735  0.76055086  1  -1.192758  0.002046  -0.324538  -0.562185  0.001355  2.191576  0.002
O  O111  1  0.55050360  0.03588888  0.76049770  1  -1.202983  -0.002016  -0.324806  -0.563756  -0.001369  2.19083  -0.002
O  O112  1  0.79004418  0.27533729  0.23947825  1  -1.194431  -0.002014  -0.325048  -0.562282  -0.001361  2.191377  -0.002
O  O113  1  0.44906864  0.96400727  0.23946262  1  -1.201522  0.00205  -0.324342  -0.563297  0.001364  2.191526  0.002
