# generated using pymatgen
data_UH13C8NO7
_symmetry_space_group_name_H-M   'P 1'
_cell_length_a   8.13699435
_cell_length_b   12.04540484
_cell_length_c   12.30939219
_cell_angle_alpha   89.99993881
_cell_angle_beta   89.99987046
_cell_angle_gamma   95.14054427
_symmetry_Int_Tables_number   1
_chemical_formula_structural   UH13C8NO7
_chemical_formula_sum   'U4 H52 C32 N4 O28'
_cell_volume   1201.63268164
_cell_formula_units_Z   4
loop_
 _symmetry_equiv_pos_site_id
 _symmetry_equiv_pos_as_xyz
  1  'x, y, z'
loop_
 _atom_site_type_symbol
 _atom_site_label
 _atom_site_symmetry_multiplicity
 _atom_site_fract_x
 _atom_site_fract_y
 _atom_site_fract_z
 _atom_site_occupancy
 _atom_site_hle17_bader_spin_density
 _atom_site_hle17_ddec_charge
 _atom_site_hle17_ddec_spin_density
 _atom_site_hle17_ddec_sum_bond_order
 _atom_site_hle17_magmom
 _atom_site_hse06_10hf_bader_spin_density
 _atom_site_hse06_10hf_ddec_charge
 _atom_site_hse06_10hf_ddec_spin_density
 _atom_site_hse06_10hf_ddec_sum_bond_order
 _atom_site_hse06_10hf_magmom
 _atom_site_hse06_bader_spin_density
 _atom_site_hse06_ddec_charge
 _atom_site_hse06_ddec_spin_density
 _atom_site_hse06_ddec_sum_bond_order
 _atom_site_hse06_magmom
 _atom_site_pbe_bader_spin_density
 _atom_site_pbe_cm5_charge
 _atom_site_pbe_ddec_charge
 _atom_site_pbe_ddec_spin_density
 _atom_site_pbe_ddec_sum_bond_order
 _atom_site_pbe_magmom
U  U0  1  0.86334030  0.30151547  0.40005307  1  0  2.479412  0  4.183606  0  0  2.543393  0  4.845855  0  0  2.656978  0  4.80496  0  0  2.189989  2.461944  0  4.877165  0
U  U1  1  0.63666329  0.19848219  0.90004467  1  0  2.479366  0  4.183637  0  0  2.543373  0  4.845865  0  0  2.65695  0  4.804995  0  0  2.18987  2.46194  0  4.87712  0
U  U2  1  0.13665169  0.69849370  0.59993655  1  0  2.479438  0  4.183176  0  0  2.543392  0  4.845469  0  0  2.657  0  4.804551  0  0  2.189882  2.461963  0  4.876725  0
U  U3  1  0.36334353  0.80151101  0.09994819  1  0  2.479444  0  4.183523  0  0  2.543506  0  4.845681  0  0  2.65704  0  4.804879  0  0  2.189965  2.462085  0  4.876897  0
H  H4  1  0.56886625  0.60390265  0.59442503  1  0  0.1181  0  0.927842  0  0  0.133805  0  0.986178  0  0  0.135868  0  0.985658  0  0  0.116353  0.132331  0  0.986612  0
H  H5  1  0.93112341  0.89610078  0.09441942  1  0  0.118097  0  0.927902  0  0  0.133792  0  0.986244  0  0  0.135852  0  0.985723  0  0  0.116334  0.132317  0  0.98668  0
H  H6  1  0.43112401  0.39610319  0.40557839  1  0  0.118122  0  0.927907  0  0  0.133796  0  0.98624  0  0  0.135848  0  0.985715  0  0  0.116349  0.132322  0  0.986678  0
H  H7  1  0.06887691  0.10389831  0.90558157  1  0  0.118069  0  0.92791  0  0  0.133759  0  0.986237  0  0  0.135824  0  0.985722  0  0  0.116316  0.132282  0  0.986672  0
H  H8  1  0.66401001  0.58510723  0.72079433  1  0  0.121797  0  0.916973  0  0  0.139463  0  0.968281  0  0  0.141396  0  0.968291  0  0  0.115527  0.138111  0  0.968345  0
H  H9  1  0.83598815  0.91489013  0.22079290  1  0  0.12179  0  0.916994  0  0  0.139452  0  0.9683  0  0  0.141385  0  0.968302  0  0  0.115526  0.138102  0  0.96836  0
H  H10  1  0.33598786  0.41489188  0.27920991  1  0  0.121812  0  0.917043  0  0  0.139451  0  0.968341  0  0  0.141382  0  0.968329  0  0  0.115533  0.1381  0  0.968405  0
H  H11  1  0.16401941  0.08510808  0.77920971  1  0  0.121767  0  0.916985  0  0  0.139406  0  0.968302  0  0  0.14135  0  0.968295  0  0  0.115492  0.138055  0  0.968364  0
H  H12  1  0.37844576  0.47515071  0.68863948  1  0  0.120791  0  0.950857  0  0  0.135106  0  1.011137  0  0  0.137273  0  1.01014  0  0  0.114057  0.13367  0  1.011923  0
H  H13  1  0.12155298  0.02484776  0.18864203  1  0  0.120784  0  0.950872  0  0  0.1351  0  1.011128  0  0  0.137267  0  1.010131  0  0  0.114051  0.133659  0  1.011923  0
H  H14  1  0.62155308  0.52484672  0.31135907  1  0  0.120802  0  0.950889  0  0  0.13511  0  1.01115  0  0  0.137276  0  1.010154  0  0  0.114063  0.133672  0  1.011942  0
H  H15  1  0.87845384  0.97515379  0.81135896  1  0  0.120845  0  0.950893  0  0  0.135122  0  1.011168  0  0  0.137288  0  1.010172  0  0  0.114086  0.133689  0  1.011959  0
H  H16  1  0.47306600  0.39515517  0.59113261  1  0  0.118398  0  0.922046  0  0  0.133888  0  0.978679  0  0  0.136569  0  0.977402  0  0  0.113578  0.13192  0  0.979773  0
H  H17  1  0.02693187  0.10484343  0.09113359  1  0  0.118428  0  0.92201  0  0  0.133901  0  0.978647  0  0  0.136581  0  0.977372  0  0  0.113576  0.131932  0  0.979744  0
H  H18  1  0.52693198  0.60484477  0.40886676  1  0  0.118462  0  0.922002  0  0  0.133933  0  0.978629  0  0  0.136613  0  0.977355  0  0  0.1136  0.131965  0  0.97972  0
H  H19  1  0.97306821  0.89515399  0.90886577  1  0  0.11848  0  0.922015  0  0  0.133943  0  0.978632  0  0  0.136623  0  0.977356  0  0  0.113612  0.131977  0  0.979728  0
H  H20  1  0.32144234  0.17832716  0.26099631  1  0  0.151884  0  0.960816  0  0  0.169915  0  1.021986  0  0  0.173472  0  1.020153  0  0  0.105225  0.16737  0  1.023306  0
H  H21  1  0.17855933  0.32166786  0.76099909  1  0  0.151884  0  0.960821  0  0  0.169911  0  1.021988  0  0  0.173467  0  1.020154  0  0  0.10524  0.16736  0  1.023315  0
H  H22  1  0.67855858  0.82166776  0.73900468  1  0  0.151934  0  0.960879  0  0  0.169961  0  1.022018  0  0  0.173518  0  1.020183  0  0  0.105258  0.167412  0  1.023341  0
H  H23  1  0.82144062  0.67832873  0.23900271  1  0  0.151931  0  0.960783  0  0  0.169958  0  1.021944  0  0  0.173513  0  1.02011  0  0  0.105256  0.167408  0  1.023269  0
H  H24  1  0.45239573  0.06864032  0.24789164  1  0  0.152459  0  0.944103  0  0  0.169355  0  1.006863  0  0  0.172431  0  1.005201  0  0  0.113232  0.16719  0  1.008126  0
H  H25  1  0.04760133  0.43135641  0.74789044  1  0  0.152413  0  0.944132  0  0  0.169297  0  1.006914  0  0  0.172371  0  1.005256  0  0  0.113203  0.167133  0  1.008169  0
H  H26  1  0.54760287  0.93135544  0.75211016  1  0  0.152424  0  0.944162  0  0  0.169292  0  1.006953  0  0  0.172365  0  1.005297  0  0  0.113213  0.167129  0  1.008213  0
H  H27  1  0.95239641  0.56864187  0.25210973  1  0  0.152409  0  0.944146  0  0  0.169283  0  1.006944  0  0  0.172358  0  1.005285  0  0  0.113203  0.167118  0  1.008198  0
H  H28  1  0.53796262  0.20959826  0.23820377  1  0  0.154954  0  0.941434  0  0  0.171625  0  1.000253  0  0  0.174589  0  0.998192  0  0  0.113929  0.169593  0  1.001712  0
H  H29  1  0.96203393  0.29039800  0.73820698  1  0  0.154947  0  0.941478  0  0  0.171624  0  1.000293  0  0  0.174589  0  0.998233  0  0  0.113924  0.169591  0  1.00175  0
H  H30  1  0.46203560  0.79039501  0.76179640  1  0  0.154968  0  0.941491  0  0  0.171639  0  1.000291  0  0  0.174605  0  0.998231  0  0  0.113911  0.169608  0  1.001749  0
H  H31  1  0.03796676  0.70960359  0.26179563  1  0  0.154996  0  0.941426  0  0  0.171675  0  1.000224  0  0  0.17464  0  0.998162  0  0  0.11393  0.16964  0  1.001678  0
H  H32  1  0.51694261  0.14172534  0.60536168  1  0  0.12147  0  0.946687  0  0  0.137977  0  1.011533  0  0  0.139588  0  1.010155  0  0  0.118766  0.136758  0  1.012651  0
H  H33  1  0.98306130  0.35827605  0.10536334  1  0  0.121473  0  0.94672  0  0  0.138005  0  1.011523  0  0  0.139618  0  1.010144  0  0  0.118773  0.136783  0  1.01264  0
H  H34  1  0.48306029  0.85827456  0.39463931  1  0  0.121495  0  0.946638  0  0  0.138  0  1.011482  0  0  0.139613  0  1.010101  0  0  0.118759  0.136779  0  1.012599  0
H  H35  1  0.01693841  0.64172722  0.89463684  1  0  0.121522  0  0.946692  0  0  0.138011  0  1.011549  0  0  0.139624  0  1.010167  0  0  0.11876  0.136792  0  1.012665  0
H  H36  1  0.34789652  0.03721775  0.62491360  1  0  0.109412  0  0.959434  0  0  0.129202  0  1.024589  0  0  0.130042  0  1.024405  0  0  0.110252  0.128488  0  1.024859  0
H  H37  1  0.15210639  0.46278244  0.12491320  1  0  0.109456  0  0.959398  0  0  0.129228  0  1.024566  0  0  0.130068  0  1.024383  0  0  0.110262  0.128513  0  1.024833  0
H  H38  1  0.65210613  0.96278049  0.37508902  1  0  0.109476  0  0.959405  0  0  0.129262  0  1.024547  0  0  0.130102  0  1.024363  0  0  0.110295  0.128546  0  1.024817  0
H  H39  1  0.84789357  0.53722249  0.87508616  1  0  0.109427  0  0.959415  0  0  0.129226  0  1.024561  0  0  0.130068  0  1.024376  0  0  0.110269  0.1285  0  1.024839  0
H  H40  1  0.31122835  0.18041157  0.61402593  1  0  0.109891  0  0.924105  0  0  0.132354  0  0.981926  0  0  0.132712  0  0.981306  0  0  0.109623  0.132043  0  0.98244  0
H  H41  1  0.18877227  0.31958949  0.11402482  1  0  0.109895  0  0.924144  0  0  0.132355  0  0.981963  0  0  0.132713  0  0.981344  0  0  0.109621  0.132044  0  0.982479  0
H  H42  1  0.68877345  0.81958918  0.38597587  1  0  0.109882  0  0.924152  0  0  0.132329  0  0.981979  0  0  0.132687  0  0.98136  0  0  0.109618  0.132021  0  0.982491  0
H  H43  1  0.81122744  0.68041378  0.88597617  1  0  0.109893  0  0.924083  0  0  0.13234  0  0.98191  0  0  0.132698  0  0.98129  0  0  0.10962  0.132031  0  0.982424  0
H  H44  1  0.23451709  0.00750590  0.34801213  1  0  0.116897  0  0.97293  0  0  0.138281  0  1.029899  0  0  0.13874  0  1.030092  0  0  0.112237  0.137876  0  1.029895  0
H  H45  1  0.26548219  0.49249152  0.84801136  1  0  0.116926  0  0.972931  0  0  0.138306  0  1.029911  0  0  0.138765  0  1.030103  0  0  0.112237  0.137903  0  1.0299  0
H  H46  1  0.76548323  0.99249319  0.65198886  1  0  0.116877  0  0.972969  0  0  0.138264  0  1.029947  0  0  0.138721  0  1.030141  0  0  0.112239  0.13786  0  1.029943  0
H  H47  1  0.73451838  0.50750924  0.15198719  1  0  0.116903  0  0.973001  0  0  0.138309  0  1.029946  0  0  0.138767  0  1.03014  0  0  0.112242  0.137905  0  1.029937  0
H  H48  1  0.11291172  0.07638984  0.44524526  1  0  0.108615  0  0.949449  0  0  0.127568  0  1.011718  0  0  0.127818  0  1.012034  0  0  0.110822  0.127378  0  1.011575  0
H  H49  1  0.38708856  0.42360828  0.94524437  1  0  0.108607  0  0.949454  0  0  0.127549  0  1.011754  0  0  0.127796  0  1.012073  0  0  0.110816  0.127358  0  1.011617  0
H  H50  1  0.88709105  0.92360924  0.55475573  1  0  0.108569  0  0.949471  0  0  0.127513  0  1.011771  0  0  0.127759  0  1.012091  0  0  0.110811  0.127325  0  1.011625  0
H  H51  1  0.61291311  0.57639164  0.05475255  1  0  0.108604  0  0.949497  0  0  0.127563  0  1.011768  0  0  0.127808  0  1.012089  0  0  0.110839  0.127373  0  1.011629  0
H  H52  1  0.21298980  0.95616823  0.48204833  1  0  0.109707  0  0.959155  0  0  0.124879  0  1.028208  0  0  0.125979  0  1.027462  0  0  0.113863  0.124125  0  1.028712  0
H  H53  1  0.28701337  0.54383257  0.98204555  1  0  0.109728  0  0.959082  0  0  0.124921  0  1.028119  0  0  0.126021  0  1.027372  0  0  0.113884  0.124165  0  1.028625  0
H  H54  1  0.78700929  0.04383087  0.51795429  1  0  0.109707  0  0.959161  0  0  0.124881  0  1.028224  0  0  0.125982  0  1.027477  0  0  0.113844  0.124125  0  1.02873  0
H  H55  1  0.71299235  0.45616982  0.01795381  1  0  0.109743  0  0.959147  0  0  0.124918  0  1.028211  0  0  0.126017  0  1.027465  0  0  0.113851  0.124159  0  1.028717  0
C  C56  1  0.77622337  0.51119204  0.58531075  1  0  0.785052  0  3.740845  0  0  0.764226  0  4.019792  0  0  0.805728  0  4.003734  0  0  0.26706  0.735233  0  4.030228  0
C  C57  1  0.72377246  0.98881136  0.08531347  1  0  0.785437  0  3.740361  0  0  0.764388  0  4.019672  0  0  0.805888  0  4.003603  0  0  0.267049  0.735395  0  4.030124  0
C  C58  1  0.22377389  0.48881125  0.41468374  1  0  0.785291  0  3.740602  0  0  0.764279  0  4.019791  0  0  0.805775  0  4.003716  0  0  0.266995  0.735282  0  4.030229  0
C  C59  1  0.27622749  0.01118523  0.91469077  1  0  0.785365  0  3.740584  0  0  0.764302  0  4.019863  0  0  0.805825  0  4.003767  0  0  0.267013  0.735311  0  4.030313  0
C  C60  1  0.62477533  0.54218851  0.64543079  1  0  -0.240474  0  3.646946  0  0  -0.283419  0  3.886596  0  0  -0.289251  0  3.892933  0  0  -0.149362  -0.279238  0  3.882212  0
C  C61  1  0.87522224  0.95781146  0.14543169  1  0  -0.240574  0  3.647045  0  0  -0.283456  0  3.886681  0  0  -0.289273  0  3.892997  0  0  -0.149346  -0.279273  0  3.882296  0
C  C62  1  0.37522143  0.45781144  0.35456857  1  0  -0.24063  0  3.647249  0  0  -0.283434  0  3.886769  0  0  -0.289226  0  3.893065  0  0  -0.149383  -0.279248  0  3.882386  0
C  C63  1  0.12478324  0.04218927  0.85457092  1  0  -0.240511  0  3.647027  0  0  -0.283335  0  3.886556  0  0  -0.28919  0  3.892917  0  0  -0.149314  -0.279146  0  3.882167  0
C  C64  1  0.49667874  0.44444012  0.66564152  1  0  -0.239389  0  3.671585  0  0  -0.276579  0  3.913742  0  0  -0.28098  0  3.920005  0  0  -0.153745  -0.273689  0  3.909571  0
C  C65  1  0.00331886  0.05555839  0.16564422  1  0  -0.23954  0  3.671699  0  0  -0.276606  0  3.913792  0  0  -0.281012  0  3.920053  0  0  -0.153729  -0.273712  0  3.909629  0
C  C66  1  0.50331888  0.55555732  0.33435703  1  0  -0.23957  0  3.671698  0  0  -0.276651  0  3.913774  0  0  -0.281067  0  3.92003  0  0  -0.153746  -0.273761  0  3.909608  0
C  C67  1  0.99668649  0.94444150  0.83435758  1  0  -0.239617  0  3.67179  0  0  -0.276685  0  3.913782  0  0  -0.281083  0  3.92005  0  0  -0.153761  -0.273803  0  3.909628  0
C  C68  1  0.54462415  0.36489289  0.75188624  1  0  0.68737  0  3.827622  0  0  0.649226  0  4.138102  0  0  0.684757  0  4.131779  0  0  0.210179  0.625084  0  4.141008  0
C  C69  1  0.95536892  0.13510504  0.25188411  1  0  0.687721  0  3.827351  0  0  0.649366  0  4.138103  0  0  0.684896  0  4.131776  0  0  0.210197  0.625221  0  4.141009  0
C  C70  1  0.45537114  0.63510540  0.24811475  1  0  0.687656  0  3.827384  0  0  0.649273  0  4.138173  0  0  0.684804  0  4.131846  0  0  0.210142  0.625128  0  4.141075  0
C  C71  1  0.04463312  0.86489737  0.74811363  1  0  0.687514  0  3.827407  0  0  0.649307  0  4.137941  0  0  0.684841  0  4.131614  0  0  0.210189  0.625163  0  4.140853  0
C  C72  1  0.44513007  0.15336328  0.27939437  1  0  -0.455442  0  3.643116  0  0  -0.534369  0  3.877843  0  0  -0.541141  0  3.878618  0  0  -0.232059  -0.529517  0  3.877098  0
C  C73  1  0.05486921  0.34663256  0.77939569  1  0  -0.455418  0  3.643179  0  0  -0.534339  0  3.877956  0  0  -0.541103  0  3.878716  0  0  -0.232053  -0.529484  0  3.877216  0
C  C74  1  0.55486816  0.84662999  0.72060499  1  0  -0.455512  0  3.643305  0  0  -0.534391  0  3.878086  0  0  -0.541146  0  3.878826  0  0  -0.232056  -0.52954  0  3.877343  0
C  C75  1  0.94513234  0.65336652  0.22060367  1  0  -0.455524  0  3.643242  0  0  -0.534421  0  3.878011  0  0  -0.541187  0  3.878771  0  0  -0.232062  -0.529572  0  3.877264  0
C  C76  1  0.47405592  0.15857560  0.39965293  1  0  0.60044  0  3.705467  0  0  0.567274  0  3.989945  0  0  0.5998  0  3.988376  0  0  0.264964  0.545066  0  3.990192  0
C  C77  1  0.02594244  0.34142510  0.89965348  1  0  0.600491  0  3.705364  0  0  0.567289  0  3.989886  0  0  0.599816  0  3.988318  0  0  0.26498  0.54508  0  3.990136  0
C  C78  1  0.52594685  0.84142348  0.60034725  1  0  0.600471  0  3.705396  0  0  0.567232  0  3.989964  0  0  0.599758  0  3.9884  0  0  0.264962  0.545038  0  3.990194  0
C  C79  1  0.97405936  0.65857565  0.10034913  1  0  0.600438  0  3.705412  0  0  0.567217  0  3.989983  0  0  0.599743  0  3.988415  0  0  0.264907  0.545022  0  3.99022  0
C  C80  1  0.38848456  0.11623951  0.58496354  1  0  -0.174645  0  3.616837  0  0  -0.278467  0  3.870936  0  0  -0.27352  0  3.879214  0  0  -0.133128  -0.281643  0  3.86531  0
C  C81  1  0.11151751  0.38376241  0.08496329  1  0  -0.174725  0  3.617  0  0  -0.278559  0  3.871096  0  0  -0.273613  0  3.879375  0  0  -0.133171  -0.281737  0  3.865468  0
C  C82  1  0.61151699  0.88375957  0.41503744  1  0  -0.174708  0  3.616897  0  0  -0.278519  0  3.871002  0  0  -0.273571  0  3.879277  0  0  -0.133145  -0.281696  0  3.865372  0
C  C83  1  0.88848257  0.61624336  0.91503607  1  0  -0.174731  0  3.61685  0  0  -0.278547  0  3.87095  0  0  -0.273602  0  3.87923  0  0  -0.133143  -0.281713  0  3.865326  0
C  C84  1  0.22377273  0.03217823  0.43278073  1  0  -0.177037  0  3.612403  0  0  -0.271304  0  3.848553  0  0  -0.267799  0  3.85992  0  0  -0.128516  -0.273465  0  3.840624  0
C  C85  1  0.27622895  0.46782072  0.93277997  1  0  -0.177056  0  3.612275  0  0  -0.271347  0  3.848472  0  0  -0.267841  0  3.859839  0  0  -0.128533  -0.273506  0  3.840544  0
C  C86  1  0.77623004  0.96782084  0.56722026  1  0  -0.176952  0  3.612376  0  0  -0.271234  0  3.848565  0  0  -0.267725  0  3.859926  0  0  -0.128474  -0.273395  0  3.840634  0
C  C87  1  0.72377162  0.53218004  0.06722021  1  0  -0.177117  0  3.612533  0  0  -0.271425  0  3.848707  0  0  -0.267915  0  3.86007  0  0  -0.128556  -0.273582  0  3.840779  0
N  N88  1  0.36961089  0.10219593  0.46770595  1  0  -0.106689  0  3.421911  0  0  -0.010844  0  3.650376  0  0  -0.032984  0  3.675018  0  0  -0.26344  0.004222  0  3.633207  0
N  N89  1  0.13039091  0.39780465  0.96770629  1  0  -0.106658  0  3.421926  0  0  -0.010793  0  3.650394  0  0  -0.032934  0  3.675036  0  0  -0.263403  0.004274  0  3.633227  0
N  N90  1  0.63039163  0.89780148  0.53229585  1  0  -0.106644  0  3.42192  0  0  -0.010773  0  3.650391  0  0  -0.032914  0  3.675034  0  0  -0.26341  0.004291  0  3.633214  0
N  N91  1  0.86960855  0.60219695  0.03229307  1  0  -0.106561  0  3.421886  0  0  -0.010706  0  3.650367  0  0  -0.032848  0  3.675012  0  0  -0.263369  0.004358  0  3.633193  0
O  O92  1  0.78047034  0.37311306  0.28504904  1  0  -0.730513  0  1.567438  0  0  -0.734794  0  1.851812  0  0  -0.757034  0  1.838809  0  0  -0.75809  -0.72106  0  1.861819  0
O  O93  1  0.71953108  0.12688394  0.78505034  1  0  -0.730441  0  1.567748  0  0  -0.734743  0  1.852167  0  0  -0.756976  0  1.839164  0  0  -0.758117  -0.721015  0  1.862166  0
O  O94  1  0.21953084  0.62688353  0.71495195  1  0  -0.730608  0  1.567124  0  0  -0.734835  0  1.851431  0  0  -0.757087  0  1.838427  0  0  -0.757905  -0.721101  0  1.861441  0
O  O95  1  0.28046923  0.87311515  0.21495308  1  0  -0.730528  0  1.567297  0  0  -0.734872  0  1.851701  0  0  -0.757107  0  1.838712  0  0  -0.758037  -0.721132  0  1.861682  0
O  O96  1  0.95200852  0.23016425  0.51273041  1  0  -0.718929  0  1.514991  0  0  -0.725302  0  1.78386  0  0  -0.745407  0  1.769522  0  0  -0.762067  -0.713092  0  1.794807  0
O  O97  1  0.54798884  0.26983231  0.01273606  1  0  -0.718958  0  1.514648  0  0  -0.725367  0  1.78351  0  0  -0.745463  0  1.769159  0  0  -0.761954  -0.713148  0  1.794426  0
O  O98  1  0.04799438  0.76983566  0.48725676  1  0  -0.718901  0  1.51498  0  0  -0.725271  0  1.783878  0  0  -0.74538  0  1.769548  0  0  -0.762155  -0.713073  0  1.794843  0
O  O99  1  0.45200251  0.73016434  0.98726817  1  0  -0.718924  0  1.515024  0  0  -0.725328  0  1.783904  0  0  -0.745421  0  1.769577  0  0  -0.762075  -0.713129  0  1.794842  0
O  O100  1  0.75999051  0.43094118  0.51820919  1  0  -0.671513  0  2.051992  0  0  -0.658578  0  2.320961  0  0  -0.694432  0  2.311916  0  0  -0.366882  -0.632493  0  2.326227  0
O  O101  1  0.74001494  0.06906032  0.01820746  1  0  -0.671643  0  2.051908  0  0  -0.658612  0  2.320922  0  0  -0.694468  0  2.311879  0  0  -0.366889  -0.632521  0  2.326184  0
O  O102  1  0.24001092  0.56905707  0.48179098  1  0  -0.67158  0  2.051878  0  0  -0.658583  0  2.320924  0  0  -0.694444  0  2.311883  0  0  -0.366853  -0.632502  0  2.326185  0
O  O103  1  0.25999054  0.93094041  0.98179434  1  0  -0.671615  0  2.052038  0  0  -0.658599  0  2.321068  0  0  -0.69445  0  2.312016  0  0  -0.366866  -0.632509  0  2.326328  0
O  O104  1  0.91285200  0.56854320  0.60188739  1  0  -0.682928  0  2.088243  0  0  -0.674725  0  2.363574  0  0  -0.711705  0  2.353347  0  0  -0.379966  -0.647614  0  2.369441  0
O  O105  1  0.58713445  0.93147192  0.10189687  1  0  -0.683089  0  2.087973  0  0  -0.674811  0  2.363386  0  0  -0.711789  0  2.353176  0  0  -0.379895  -0.647687  0  2.369245  0
O  O106  1  0.08714036  0.43146846  0.39810304  1  0  -0.682992  0  2.088079  0  0  -0.674734  0  2.363489  0  0  -0.711719  0  2.353273  0  0  -0.379896  -0.647618  0  2.369354  0
O  O107  1  0.41285789  0.06853140  0.89810899  1  0  -0.683019  0  2.088022  0  0  -0.674724  0  2.363414  0  0  -0.711717  0  2.353195  0  0  -0.379876  -0.647599  0  2.369274  0
O  O108  1  0.68394845  0.37888561  0.80022808  1  0  -0.643242  0  1.971534  0  0  -0.618605  0  2.224781  0  0  -0.65144  0  2.222744  0  0  -0.339646  -0.595073  0  2.224979  0
O  O109  1  0.81604998  0.12111639  0.30022617  1  0  -0.643239  0  1.971543  0  0  -0.618551  0  2.224876  0  0  -0.651385  0  2.222836  0  0  -0.339589  -0.595031  0  2.225098  0
O  O110  1  0.31605224  0.62111598  0.19977128  1  0  -0.643315  0  1.971627  0  0  -0.618581  0  2.22494  0  0  -0.651411  0  2.222902  0  0  -0.339604  -0.595062  0  2.225159  0
O  O111  1  0.18395133  0.87888936  0.69976913  1  0  -0.643156  0  1.971489  0  0  -0.618531  0  2.224789  0  0  -0.65137  0  2.222748  0  0  -0.339564  -0.595017  0  2.225017  0
O  O112  1  0.44440719  0.28052247  0.77721499  1  0  -0.660838  0  1.99575  0  0  -0.643884  0  2.258102  0  0  -0.677542  0  2.255855  0  0  -0.355147  -0.61971  0  2.258431  0
O  O113  1  0.05558264  0.21947595  0.27722068  1  0  -0.661047  0  1.995572  0  0  -0.64402  0  2.258017  0  0  -0.677673  0  2.255758  0  0  -0.355218  -0.619845  0  2.25835  0
O  O114  1  0.55558822  0.71947666  0.22278031  1  0  -0.660944  0  1.995599  0  0  -0.643936  0  2.258077  0  0  -0.677573  0  2.255803  0  0  -0.355181  -0.61976  0  2.2584  0
O  O115  1  0.94441547  0.78052483  0.72278112  1  0  -0.66098  0  1.995631  0  0  -0.644008  0  2.258039  0  0  -0.677669  0  2.255778  0  0  -0.355243  -0.619838  0  2.258373  0
O  O116  1  0.59673665  0.21939706  0.43940212  1  0  -0.665045  0  2.083989  0  0  -0.656676  0  2.36881  0  0  -0.690522  0  2.363532  0  0  -0.377653  -0.631828  0  2.37126  0
O  O117  1  0.90326226  0.28060309  0.93940380  1  0  -0.665029  0  2.083916  0  0  -0.656644  0  2.368754  0  0  -0.690491  0  2.363481  0  0  -0.377651  -0.631794  0  2.371196  0
O  O118  1  0.40326392  0.78060370  0.56059399  1  0  -0.665059  0  2.08387  0  0  -0.656682  0  2.368771  0  0  -0.690534  0  2.363495  0  0  -0.377672  -0.631839  0  2.371209  0
O  O119  1  0.09673818  0.71939684  0.06059800  1  0  -0.665026  0  2.083897  0  0  -0.656649  0  2.368759  0  0  -0.690488  0  2.363486  0  0  -0.377628  -0.631801  0  2.371194  0
