# generated using pymatgen
data_NdH14C12N9O7
_symmetry_space_group_name_H-M   'P 1'
_cell_length_a   8.71104946
_cell_length_b   9.86958037
_cell_length_c   11.12854057
_cell_angle_alpha   81.47491423
_cell_angle_beta   86.37446753
_cell_angle_gamma   77.03420577
_symmetry_Int_Tables_number   1
_chemical_formula_structural   NdH14C12N9O7
_chemical_formula_sum   'Nd2 H28 C24 N18 O14'
_cell_volume   921.62815047
_cell_formula_units_Z   2
loop_
 _symmetry_equiv_pos_site_id
 _symmetry_equiv_pos_as_xyz
  1  'x, y, z'
loop_
 _atom_site_type_symbol
 _atom_site_label
 _atom_site_symmetry_multiplicity
 _atom_site_fract_x
 _atom_site_fract_y
 _atom_site_fract_z
 _atom_site_occupancy
 _atom_site_hle17_bader_spin_density
 _atom_site_hle17_ddec_charge
 _atom_site_hle17_ddec_spin_density
 _atom_site_hle17_ddec_sum_bond_order
 _atom_site_hle17_magmom
 _atom_site_hse06_10hf_bader_spin_density
 _atom_site_hse06_10hf_ddec_charge
 _atom_site_hse06_10hf_ddec_spin_density
 _atom_site_hse06_10hf_ddec_sum_bond_order
 _atom_site_hse06_10hf_magmom
 _atom_site_hse06_bader_spin_density
 _atom_site_hse06_ddec_charge
 _atom_site_hse06_ddec_spin_density
 _atom_site_hse06_ddec_sum_bond_order
 _atom_site_hse06_magmom
 _atom_site_pbe_bader_spin_density
 _atom_site_pbe_cm5_charge
 _atom_site_pbe_ddec_charge
 _atom_site_pbe_ddec_spin_density
 _atom_site_pbe_ddec_sum_bond_order
 _atom_site_pbe_magmom
Nd  Nd0  1  0.38474329  0.03130076  0.15936791  1  0  2.249504  0  1.661775  0  0  2.083218  0  2.132844  0  0  2.127038  0  2.088636  0  0  1.485131  2.049315  0  2.167565  0
Nd  Nd1  1  0.61525769  0.96869951  0.84063286  1  0  2.249516  0  1.661776  0  0  2.083239  0  2.132831  0  0  2.127055  0  2.08863  0  0  1.485127  2.049335  0  2.167556  0
H  H2  1  0.21017129  0.72658290  0.49714434  1  0  0.105459  0  0.928584  0  0  0.115368  0  0.994305  0  0  0.116601  0  0.993298  0  0  0.115104  0.114496  0  0.994137  0
H  H3  1  0.78982651  0.27341631  0.50285582  1  0  0.105464  0  0.928549  0  0  0.115383  0  0.994279  0  0  0.116619  0  0.993273  0  0  0.115107  0.114513  0  0.994111  0
H  H4  1  0.37488528  0.60171803  0.44793025  1  0  0.124982  0  0.957301  0  0  0.125836  0  1.03669  0  0  0.130323  0  1.031474  0  0  0.121161  0.122298  0  1.040375  0
H  H5  1  0.62511393  0.39828013  0.55206999  1  0  0.124954  0  0.957309  0  0  0.125827  0  1.036693  0  0  0.130319  0  1.031474  0  0  0.121156  0.122291  0  1.040379  0
H  H6  1  0.67374820  0.58799629  0.78011094  1  0  0.105756  0  0.918036  0  0  0.116829  0  0.974848  0  0  0.11945  0  0.971616  0  0  0.142878  0.114655  0  0.977495  0
H  H7  1  0.32625112  0.41200607  0.21988873  1  0  0.105806  0  0.917974  0  0  0.116859  0  0.974804  0  0  0.119479  0  0.971574  0  0  0.142875  0.114682  0  0.97745  0
H  H8  1  0.36679328  0.93601874  0.59735109  1  0  0.117652  0  0.924813  0  0  0.124824  0  0.990792  0  0  0.127959  0  0.985441  0  0  0.14921  0.122255  0  0.994443  0
H  H9  1  0.63320569  0.06398046  0.40264722  1  0  0.117692  0  0.924787  0  0  0.124892  0  0.990731  0  0  0.128027  0  0.985381  0  0  0.149229  0.122322  0  0.994386  0
H  H10  1  0.52602389  0.39689337  0.84944227  1  0  0.135226  0  0.921975  0  0  0.141301  0  0.993388  0  0  0.144124  0  0.991149  0  0  0.130577  0.139351  0  0.995102  0
H  H11  1  0.47397568  0.60310794  0.15055753  1  0  0.135233  0  0.921955  0  0  0.14131  0  0.993369  0  0  0.144132  0  0.991131  0  0  0.130583  0.139364  0  0.995084  0
H  H12  1  0.37619374  0.34330520  0.77904904  1  0  0.122695  0  0.913963  0  0  0.132336  0  0.980388  0  0  0.134457  0  0.979327  0  0  0.130633  0.130955  0  0.981076  0
H  H13  1  0.62380674  0.65669716  0.22094968  1  0  0.1227  0  0.913954  0  0  0.132341  0  0.980386  0  0  0.13446  0  0.979328  0  0  0.130632  0.130964  0  0.981076  0
H  H14  1  0.19445125  0.80649642  0.96734736  1  0  0.099644  0  0.950632  0  0  0.109383  0  1.011085  0  0  0.111417  0  1.009484  0  0  0.139288  0.107781  0  1.012253  0
H  H15  1  0.80554858  0.19350385  0.03265346  1  0  0.09963  0  0.950659  0  0  0.109369  0  1.011119  0  0  0.111404  0  1.009516  0  0  0.139293  0.107766  0  1.012288  0
H  H16  1  0.11672698  0.51637184  0.74798630  1  0  0.100007  0  0.959525  0  0  0.101325  0  1.037266  0  0  0.105499  0  1.031738  0  0  0.132031  0.098238  0  1.041169  0
H  H17  1  0.88327171  0.48362842  0.25201368  1  0  0.100029  0  0.959552  0  0  0.10135  0  1.037287  0  0  0.105524  0  1.03176  0  0  0.13204  0.098268  0  1.041186  0
H  H18  1  0.96303931  0.08217549  0.84117193  1  0  0.138094  0  0.930429  0  0  0.148323  0  0.996698  0  0  0.151425  0  0.994359  0  0  0.134625  0.146175  0  0.998378  0
H  H19  1  0.03695964  0.91782372  0.15882818  1  0  0.138078  0  0.930482  0  0  0.14831  0  0.996724  0  0  0.151413  0  0.99438  0  0  0.134638  0.146162  0  0.998401  0
H  H20  1  0.00265872  0.24274080  0.86960431  1  0  0.128551  0  0.901424  0  0  0.141639  0  0.959647  0  0  0.144148  0  0.957742  0  0  0.131875  0.13984  0  0.961173  0
H  H21  1  0.99734022  0.75725842  0.13039760  1  0  0.128566  0  0.901431  0  0  0.141636  0  0.959661  0  0  0.144147  0  0.957752  0  0  0.131897  0.139835  0  0.961185  0
H  H22  1  0.17597634  0.38496962  0.47164691  1  0  0.085251  0  0.940436  0  0  0.093719  0  1.003607  0  0  0.09556  0  1.002046  0  0  0.130173  0.092263  0  1.005  0
H  H23  1  0.82402745  0.61502856  0.52835492  1  0  0.085248  0  0.940448  0  0  0.093735  0  1.003602  0  0  0.095578  0  1.002038  0  0  0.130166  0.092281  0  1.004995  0
H  H24  1  0.03065894  0.01517738  0.62245381  1  0  0.109377  0  0.945211  0  0  0.119628  0  1.007992  0  0  0.122623  0  1.00465  0  0  0.141807  0.117331  0  1.01053  0
H  H25  1  0.96933975  0.98482288  0.37754707  1  0  0.109385  0  0.945179  0  0  0.119621  0  1.007983  0  0  0.122615  0  1.004644  0  0  0.141796  0.117325  0  1.010518  0
H  H26  1  0.13280187  0.14278568  0.35256103  1  0  0.396679  0  0.921583  0  0  0.356264  0  1.002215  0  0  0.367381  0  0.986289  0  0  0.279796  0.3484  0  1.013436  0
H  H27  1  0.86719823  0.85721353  0.64743903  1  0  0.396756  0  0.9215  0  0  0.356308  0  1.002161  0  0  0.367423  0  0.986247  0  0  0.279826  0.348444  0  1.01338  0
H  H28  1  0.05096854  0.19044521  0.22112355  1  0  0.401084  0  0.918303  0  0  0.35957  0  0.999048  0  0  0.371527  0  0.982054  0  0  0.280704  0.351154  0  1.010998  0
H  H29  1  0.94903129  0.80955505  0.77887727  1  0  0.401083  0  0.918302  0  0  0.359563  0  0.999054  0  0  0.371522  0  0.982058  0  0  0.280704  0.351148  0  1.011004  0
C  C30  1  0.35973085  0.81427713  0.36072147  1  0  0.659009  0  3.927428  0  0  0.620289  0  4.223274  0  0  0.652467  0  4.215935  0  0  0.189492  0.598813  0  4.225942  0
C  C31  1  0.64027013  0.18572314  0.63927931  1  0  0.658963  0  3.92738  0  0  0.620265  0  4.223223  0  0  0.652445  0  4.215884  0  0  0.189462  0.598792  0  4.225895  0
C  C32  1  0.33665032  0.70851812  0.47206199  1  0  -0.169016  0  3.617434  0  0  -0.237297  0  3.857962  0  0  -0.227845  0  3.86706  0  0  -0.051011  -0.23645  0  3.854383  0
C  C33  1  0.66334889  0.29148004  0.52793825  1  0  -0.168941  0  3.617372  0  0  -0.23728  0  3.857964  0  0  -0.227843  0  3.867064  0  0  -0.051003  -0.236436  0  3.854393  0
C  C34  1  0.58926545  0.65234688  0.71586792  1  0  0.212095  0  3.726623  0  0  0.156642  0  4.026666  0  0  0.169705  0  4.03393  0  0  0.150346  0.148808  0  4.019023  0
C  C35  1  0.41073298  0.34765442  0.28413103  1  0  0.21202  0  3.726546  0  0  0.156593  0  4.026573  0  0  0.169654  0  4.033839  0  0  0.150312  0.148763  0  4.018922  0
C  C36  1  0.43219104  0.83057516  0.62675680  1  0  0.211669  0  3.620441  0  0  0.133675  0  3.891394  0  0  0.160415  0  3.902503  0  0  0.175518  0.123266  0  3.886255  0
C  C37  1  0.56780767  0.16942509  0.37324139  1  0  0.211584  0  3.620492  0  0  0.133576  0  3.891432  0  0  0.16031  0  3.902541  0  0  0.175472  0.123169  0  3.88629  0
C  C38  1  0.39693016  0.27076224  0.96946150  1  0  0.714834  0  3.855562  0  0  0.666593  0  4.161299  0  0  0.699887  0  4.15168  0  0  0.214377  0.644039  0  4.166968  0
C  C39  1  0.60306970  0.72923802  0.03053574  1  0  0.714848  0  3.855693  0  0  0.666596  0  4.161447  0  0  0.699888  0  4.151835  0  0  0.214412  0.644052  0  4.167117  0
C  C40  1  0.40494834  0.38191696  0.86063190  1  0  -0.179478  0  3.638158  0  0  -0.254448  0  3.887877  0  0  -0.255899  0  3.894564  0  0  -0.040943  -0.253528  0  3.883506  0
C  C41  1  0.59505150  0.61808330  0.13936713  1  0  -0.179444  0  3.638309  0  0  -0.254469  0  3.88804  0  0  -0.255918  0  3.894729  0  0  -0.040962  -0.253576  0  3.883695  0
C  C42  1  0.20579772  0.71358485  0.92338773  1  0  0.191802  0  3.699361  0  0  0.140592  0  3.990642  0  0  0.151134  0  4.003237  0  0  0.144725  0.133868  0  3.981991  0
C  C43  1  0.79420099  0.28641541  0.07661046  1  0  0.19186  0  3.699204  0  0  0.140643  0  3.990502  0  0  0.151185  0  4.003092  0  0  0.144758  0.133918  0  3.981855  0
C  C44  1  0.16324453  0.57091709  0.81059391  1  0  0.155296  0  3.654002  0  0  0.081804  0  3.913612  0  0  0.094634  0  3.924539  0  0  0.154484  0.073961  0  3.905759  0
C  C45  1  0.83675644  0.42908318  0.18940687  1  0  0.155259  0  3.654061  0  0  0.081719  0  3.913645  0  0  0.094549  0  3.924573  0  0  0.154456  0.073873  0  3.905785  0
C  C46  1  0.20322408  0.06756337  0.88879024  1  0  0.730016  0  3.843463  0  0  0.684559  0  4.147475  0  0  0.717659  0  4.138339  0  0  0.231775  0.662143  0  4.152687  0
C  C47  1  0.79677460  0.93243689  0.11121064  1  0  0.730155  0  3.843436  0  0  0.684625  0  4.147537  0  0  0.717727  0  4.1384  0  0  0.231785  0.662209  0  4.152748  0
C  C48  1  0.05038856  0.14804952  0.82720542  1  0  -0.181886  0  3.594455  0  0  -0.25729  0  3.838367  0  0  -0.258532  0  3.842789  0  0  -0.041897  -0.256568  0  3.835667  0
C  C49  1  0.94961037  0.85194970  0.17279649  1  0  -0.181943  0  3.594575  0  0  -0.25726  0  3.83844  0  0  -0.258498  0  3.842856  0  0  -0.041932  -0.25655  0  3.835768  0
C  C50  1  0.13836622  0.30317716  0.53520955  1  0  0.191885  0  3.742575  0  0  0.139909  0  4.035482  0  0  0.150641  0  4.048519  0  0  0.137344  0.132916  0  4.02668  0
C  C51  1  0.86163642  0.69682102  0.46479322  1  0  0.191813  0  3.742646  0  0  0.139818  0  4.035555  0  0  0.150549  0  4.048591  0  0  0.137319  0.132823  0  4.026756  0
C  C52  1  0.06762817  0.11458447  0.60741018  1  0  0.166165  0  3.639789  0  0  0.090204  0  3.907643  0  0  0.102589  0  3.918399  0  0  0.161826  0.082244  0  3.900467  0
C  C53  1  0.93237025  0.88541685  0.39259057  1  0  0.166161  0  3.639682  0  0  0.090198  0  3.907564  0  0  0.102583  0  3.918319  0  0  0.161814  0.082241  0  3.900384  0
N  N54  1  0.42630195  0.71710431  0.57511697  1  0  0.062112  0  3.563142  0  0  0.182485  0  3.744828  0  0  0.139794  0  3.810168  0  0  -0.133671  0.189371  0  3.728228  0
N  N55  1  0.57369700  0.28289490  0.42488404  1  0  0.062144  0  3.563058  0  0  0.182507  0  3.744781  0  0  0.139836  0  3.810102  0  0  -0.133658  0.189387  0  3.728195  0
N  N56  1  0.52732662  0.60149100  0.63080652  1  0  -0.293935  0  2.868546  0  0  -0.287814  0  3.136648  0  0  -0.287887  0  3.156886  0  0  -0.223748  -0.280915  0  3.127254  0
N  N57  1  0.47267411  0.39851032  0.36919233  1  0  -0.293932  0  2.868489  0  0  -0.287801  0  3.13657  0  0  -0.287879  0  3.156804  0  0  -0.223723  -0.280901  0  3.127174  0
N  N58  1  0.53416295  0.79304220  0.71668843  1  0  -0.494013  0  3.178021  0  0  -0.440171  0  3.473726  0  0  -0.456956  0  3.481978  0  0  -0.409175  -0.428498  0  3.465042  0
N  N59  1  0.46583779  0.20695912  0.28331042  1  0  -0.493992  0  3.178083  0  0  -0.440148  0  3.47377  0  0  -0.456933  0  3.482025  0  0  -0.409157  -0.428472  0  3.465079  0
N  N60  1  0.29751436  0.51477664  0.87034259  1  0  0.069226  0  3.602394  0  0  0.188399  0  3.786549  0  0  0.178827  0  3.811259  0  0  -0.132889  0.193777  0  3.771377  0
N  N61  1  0.70248434  0.48522362  0.12965649  1  0  0.069056  0  3.602613  0  0  0.188379  0  3.786594  0  0  0.178808  0  3.811303  0  0  -0.1329  0.193764  0  3.771428  0
N  N62  1  0.07273045  0.18916392  0.69816912  1  0  0.089505  0  3.593362  0  0  0.207692  0  3.778021  0  0  0.200642  0  3.79845  0  0  -0.127704  0.21201  0  3.764527  0
N  N63  1  0.92726965  0.81083530  0.30183094  1  0  0.089465  0  3.593403  0  0  0.207629  0  3.778069  0  0  0.20058  0  3.798497  0  0  -0.127728  0.211948  0  3.764568  0
N  N64  1  0.10206739  0.69781248  0.84205438  1  0  -0.380267  0  3.094523  0  0  -0.31967  0  3.358612  0  0  -0.336249  0  3.369506  0  0  -0.321338  -0.308562  0  3.350821  0
N  N65  1  0.89793129  0.30218778  0.15794650  1  0  -0.38025  0  3.0944  0  0  -0.31966  0  3.358512  0  0  -0.336239  0  3.369406  0  0  -0.321374  -0.30855  0  3.35072  0
N  N66  1  0.32650572  0.60449410  0.94337515  1  0  -0.257507  0  2.842214  0  0  -0.259469  0  3.116199  0  0  -0.267729  0  3.13021  0  0  -0.213375  -0.253898  0  3.107003  0
N  N67  1  0.67349439  0.39550511  0.05662401  1  0  -0.257458  0  2.84223  0  0  -0.259462  0  3.116179  0  0  -0.267722  0  3.130189  0  0  -0.213361  -0.253892  0  3.106983  0
N  N68  1  0.10803824  0.18425788  0.50188451  1  0  -0.400775  0  3.069389  0  0  -0.343004  0  3.341932  0  0  -0.359581  0  3.353029  0  0  -0.325657  -0.331919  0  3.334312  0
N  N69  1  0.89196185  0.81574134  0.49811645  1  0  -0.400742  0  3.069398  0  0  -0.342956  0  3.341934  0  0  -0.359528  0  3.353038  0  0  -0.325627  -0.331874  0  3.334314  0
N  N70  1  0.11894145  0.31033448  0.65389187  1  0  -0.294424  0  2.865115  0  0  -0.291818  0  3.130358  0  0  -0.30121  0  3.143048  0  0  -0.223077  -0.285535  0  3.122  0
N  N71  1  0.88105838  0.68966579  0.34610896  1  0  -0.294336  0  2.865086  0  0  -0.291732  0  3.130339  0  0  -0.301125  0  3.143031  0  0  -0.223039  -0.285448  0  3.121981  0
O  O72  1  0.13815140  0.11876774  0.26763016  1  0  -0.941965  0  1.933501  0  0  -0.885835  0  2.151368  0  0  -0.905645  0  2.118501  0  0  -0.665384  -0.871364  0  2.174224  0
O  O73  1  0.86184755  0.88123147  0.73236995  1  0  -0.942059  0  1.933393  0  0  -0.885892  0  2.151343  0  0  -0.905709  0  2.118459  0  0  -0.665421  -0.871408  0  2.17418  0
O  O74  1  0.44051871  0.90473535  0.36938676  1  0  -0.685832  0  1.971633  0  0  -0.640074  0  2.211211  0  0  -0.663753  0  2.203374  0  0  -0.379149  -0.623103  0  2.215409  0
O  O75  1  0.55948255  0.09526386  0.63061235  1  0  -0.685825  0  1.971622  0  0  -0.64007  0  2.211196  0  0  -0.663752  0  2.203363  0  0  -0.379122  -0.623097  0  2.215395  0
O  O76  1  0.29388932  0.80714911  0.26392191  1  0  -0.684283  0  1.928818  0  0  -0.639167  0  2.163545  0  0  -0.663163  0  2.156272  0  0  -0.368971  -0.622048  0  2.167943  0
O  O77  1  0.70611166  0.19285116  0.73607886  1  0  -0.684272  0  1.928749  0  0  -0.639169  0  2.163476  0  0  -0.663161  0  2.156203  0  0  -0.368962  -0.622051  0  2.167877  0
O  O78  1  0.49856359  0.15337814  0.96821773  1  0  -0.834955  0  2.138013  0  0  -0.771944  0  2.400929  0  0  -0.796826  0  2.38964  0  0  -0.447901  -0.754161  0  2.407951  0
O  O79  1  0.50143716  0.84662317  0.03178022  1  0  -0.834994  0  2.137993  0  0  -0.771992  0  2.400942  0  0  -0.796864  0  2.389633  0  0  -0.447945  -0.754208  0  2.407957  0
O  O80  1  0.29547398  0.29040162  0.05370742  1  0  -0.64241  0  1.952996  0  0  -0.601904  0  2.189333  0  0  -0.624754  0  2.181682  0  0  -0.337812  -0.585747  0  2.194031  0
O  O81  1  0.70452217  0.70959967  0.94628984  1  0  -0.642402  0  1.953186  0  0  -0.601892  0  2.189531  0  0  -0.624747  0  2.181885  0  0  -0.337789  -0.585731  0  2.194212  0
O  O82  1  0.19210910  0.04137531  0.00403054  1  0  -0.714139  0  1.974104  0  0  -0.658735  0  2.222179  0  0  -0.683151  0  2.211618  0  0  -0.387883  -0.641341  0  2.228982  0
O  O83  1  0.80789012  0.95862285  0.99596880  1  0  -0.714174  0  1.9741  0  0  -0.65875  0  2.222204  0  0  -0.68317  0  2.211647  0  0  -0.387884  -0.641357  0  2.229009  0
O  O84  1  0.32425052  0.03427966  0.82178336  1  0  -0.718673  0  2.044294  0  0  -0.673748  0  2.304566  0  0  -0.69873  0  2.297516  0  0  -0.373285  -0.656075  0  2.308701  0
O  O85  1  0.67574931  0.96572061  0.17821657  1  0  -0.718719  0  2.044315  0  0  -0.673775  0  2.304632  0  0  -0.698758  0  2.29758  0  0  -0.373279  -0.656101  0  2.308768  0
