# generated using pymatgen
data_Cu2H18C24I2N4O3
_symmetry_space_group_name_H-M   'P 1'
_cell_length_a   4.13499134
_cell_length_b   8.77970785
_cell_length_c   15.69530317
_cell_angle_alpha   99.53382084
_cell_angle_beta   97.58343747
_cell_angle_gamma   89.97605511
_symmetry_Int_Tables_number   1
_chemical_formula_structural   Cu2H18C24I2N4O3
_chemical_formula_sum   'Cu2 H18 C24 I2 N4 O3'
_cell_volume   556.88362770
_cell_formula_units_Z   1
loop_
 _symmetry_equiv_pos_site_id
 _symmetry_equiv_pos_as_xyz
  1  'x, y, z'
loop_
 _atom_site_type_symbol
 _atom_site_label
 _atom_site_symmetry_multiplicity
 _atom_site_fract_x
 _atom_site_fract_y
 _atom_site_fract_z
 _atom_site_occupancy
 _atom_site_hle17_bader_spin_density
 _atom_site_hle17_ddec_charge
 _atom_site_hle17_ddec_spin_density
 _atom_site_hle17_ddec_sum_bond_order
 _atom_site_hle17_magmom
 _atom_site_hse06_10hf_bader_spin_density
 _atom_site_hse06_10hf_ddec_charge
 _atom_site_hse06_10hf_ddec_spin_density
 _atom_site_hse06_10hf_ddec_sum_bond_order
 _atom_site_hse06_10hf_magmom
 _atom_site_hse06_bader_spin_density
 _atom_site_hse06_ddec_charge
 _atom_site_hse06_ddec_spin_density
 _atom_site_hse06_ddec_sum_bond_order
 _atom_site_hse06_magmom
 _atom_site_pbe_bader_spin_density
 _atom_site_pbe_cm5_charge
 _atom_site_pbe_ddec_charge
 _atom_site_pbe_ddec_spin_density
 _atom_site_pbe_ddec_sum_bond_order
 _atom_site_pbe_magmom
Cu  Cu0  1  0.99263003  0.10787247  0.49283812  1  0  0.250866  0  2.122785  0  0  0.168191  0  2.603458  0  0  0.181002  0  2.547372  0  0  0.24688  0.159788  0  2.641826  0
Cu  Cu1  1  0.49939769  0.89182627  0.50701627  1  0  0.251314  0  2.12293  0  0  0.168559  0  2.603415  0  0  0.181323  0  2.547406  0  0  0.247225  0.160086  0  2.641812  0
H  H2  1  0.28277524  0.68283036  0.26780076  1  0  0.272311  0  0.936576  0  0  0.258878  0  1.000806  0  0  0.265359  0  0.996623  0  0  0.28586  0.253263  0  1.005254  0
H  H3  1  0.01632037  0.31733685  0.73219206  1  0  0.271413  0  0.936242  0  0  0.257703  0  1.000759  0  0  0.264141  0  0.996607  0  0  0.285565  0.252125  0  1.005151  0
H  H4  1  0.76628875  0.09165061  0.30349616  1  0  0.074002  0  0.96571  0  0  0.080096  0  1.036177  0  0  0.082901  0  1.034357  0  0  0.102211  0.078608  0  1.03651  0
H  H5  1  0.46153306  0.90788172  0.69614256  1  0  0.074826  0  0.965906  0  0  0.081163  0  1.035944  0  0  0.083982  0  1.034125  0  0  0.102504  0.079684  0  1.036261  0
H  H6  1  0.90980004  0.22228697  0.18316349  1  0  0.127368  0  0.943049  0  0  0.133861  0  1.006827  0  0  0.138233  0  1.00444  0  0  0.11809  0.130597  0  1.008835  0
H  H7  1  0.72622287  0.77769511  0.81664025  1  0  0.127454  0  0.942513  0  0  0.133981  0  1.006236  0  0  0.138411  0  1.003731  0  0  0.118093  0.130657  0  1.008367  0
H  H8  1  0.48662968  0.55256386  0.37863735  1  0  0.094665  0  0.99164  0  0  0.100983  0  1.064089  0  0  0.104437  0  1.0627  0  0  0.089009  0.098439  0  1.065332  0
H  H9  1  0.10927029  0.44737952  0.62144637  1  0  0.094833  0  0.991495  0  0  0.10123  0  1.063861  0  0  0.104672  0  1.062487  0  0  0.088906  0.098702  0  1.065055  0
H  H10  1  0.33890630  0.40375150  0.48996264  1  0  0.065715  0  0.977395  0  0  0.074435  0  1.046114  0  0  0.076633  0  1.044665  0  0  0.097898  0.072426  0  1.047884  0
H  H11  1  0.84983156  0.59598129  0.50995199  1  0  0.065479  0  0.97725  0  0  0.074443  0  1.04587  0  0  0.076626  0  1.044476  0  0  0.098013  0.072443  0  1.047572  0
H  H12  1  0.72074375  0.53387974  0.08206223  1  0  0.113137  0  0.969972  0  0  0.122562  0  1.030796  0  0  0.125326  0  1.02958  0  0  0.106715  0.120581  0  1.031706  0
H  H13  1  0.63964557  0.46621337  0.91810971  1  0  0.11327  0  0.970143  0  0  0.122902  0  1.030534  0  0  0.125665  0  1.029325  0  0  0.106901  0.120875  0  1.031515  0
H  H14  1  0.91946731  0.70747874  0.98820314  1  0  0.124123  0  0.947001  0  0  0.132883  0  1.008501  0  0  0.136142  0  1.006677  0  0  0.109392  0.13072  0  1.009832  0
H  H15  1  0.93167265  0.29253886  0.01209005  1  0  0.123947  0  0.945686  0  0  0.132535  0  1.007592  0  0  0.135757  0  1.005821  0  0  0.109317  0.130446  0  1.008826  0
H  H16  1  0.42358202  0.08883102  0.11978065  1  0  0.116637  0  0.956183  0  0  0.122465  0  1.025883  0  0  0.126086  0  1.023172  0  0  0.104595  0.12032  0  1.027434  0
H  H17  1  0.30452785  0.91136149  0.88028337  1  0  0.117318  0  0.956116  0  0  0.123074  0  1.025811  0  0  0.12667  0  1.023108  0  0  0.105082  0.120954  0  1.027348  0
H  H18  1  0.24082634  0.91782641  0.21763256  1  0  0.090941  0  0.96668  0  0  0.099965  0  1.033623  0  0  0.101954  0  1.034118  0  0  0.091675  0.098766  0  1.033227  0
H  H19  1  0.02474290  0.08241601  0.78224118  1  0  0.09052  0  0.966087  0  0  0.099712  0  1.032917  0  0  0.101805  0  1.033229  0  0  0.091376  0.098432  0  1.032671  0
C  C20  1  0.92498756  0.19431033  0.31745027  1  0  0.11938  0  3.681265  0  0  0.093607  0  3.926561  0  0  0.099665  0  3.943561  0  0  0.034671  0.088002  0  3.914982  0
C  C21  1  0.60696043  0.80535663  0.68230433  1  0  0.118272  0  3.681966  0  0  0.092066  0  3.926987  0  0  0.098118  0  3.944025  0  0  0.034668  0.086426  0  3.915355  0
C  C22  1  0.00369898  0.26720455  0.25073365  1  0  -0.115086  0  3.684899  0  0  -0.135129  0  3.92993  0  0  -0.139683  0  3.947625  0  0  -0.072892  -0.132498  0  3.919962  0
C  C23  1  0.75284177  0.73269911  0.74909299  1  0  -0.114027  0  3.684857  0  0  -0.133794  0  3.92962  0  0  -0.13836  0  3.947405  0  0  -0.072477  -0.131134  0  3.919665  0
C  C24  1  0.20653602  0.39936479  0.27104305  1  0  0.004707  0  3.738838  0  0  0.020096  0  3.97403  0  0  0.02125  0  3.991656  0  0  0.00216  0.017265  0  3.962488  0
C  C25  1  0.93598838  0.60066353  0.72890289  1  0  0.003744  0  3.74081  0  0  0.018823  0  3.976398  0  0  0.019929  0  3.994079  0  0  0.001421  0.01596  0  3.964887  0
C  C26  1  0.32153730  0.45237178  0.35885687  1  0  -0.14311  0  3.747593  0  0  -0.162055  0  3.993702  0  0  -0.16784  0  4.015037  0  0  -0.093703  -0.15731  0  3.977073  0
C  C27  1  0.96363233  0.54755967  0.64113975  1  0  -0.143154  0  3.748498  0  0  -0.162252  0  3.99531  0  0  -0.16801  0  4.016604  0  0  -0.093645  -0.157586  0  3.978823  0
C  C28  1  0.23861226  0.37007392  0.42154568  1  0  0.114872  0  3.696816  0  0  0.088067  0  3.943853  0  0  0.09381  0  3.961534  0  0  0.030407  0.085236  0  3.931704  0
C  C29  1  0.81774662  0.62966319  0.57836490  1  0  0.115686  0  3.694941  0  0  0.088241  0  3.942067  0  0  0.094008  0  3.959721  0  0  0.030625  0.085502  0  3.929689  0
C  C30  1  0.31371872  0.46737828  0.19770140  1  0  0.522765  0  3.838223  0  0  0.475774  0  4.1299  0  0  0.504031  0  4.127716  0  0  0.236292  0.456569  0  4.131817  0
C  C31  1  0.11641862  0.53278753  0.80232776  1  0  0.523303  0  3.839421  0  0  0.476339  0  4.130973  0  0  0.504574  0  4.128739  0  0  0.23643  0.457173  0  4.132924  0
C  C32  1  0.47439765  0.71554945  0.15687203  1  0  0.221261  0  3.805932  0  0  0.215384  0  4.055157  0  0  0.221014  0  4.078325  0  0  0.08051  0.211604  0  4.039777  0
C  C33  1  0.31854215  0.28469055  0.84322614  1  0  0.222425  0  3.806149  0  0  0.216703  0  4.055024  0  0  0.222204  0  4.078335  0  0  0.080846  0.213025  0  4.039511  0
C  C34  1  0.66018648  0.65528164  0.09117745  1  0  -0.126459  0  3.709042  0  0  -0.148629  0  3.96117  0  0  -0.151499  0  3.980834  0  0  -0.091416  -0.145951  0  3.947224  0
C  C35  1  0.56983770  0.34488604  0.90899472  1  0  -0.127448  0  3.709806  0  0  -0.149722  0  3.961767  0  0  -0.152545  0  3.981383  0  0  -0.092612  -0.147051  0  3.947878  0
C  C36  1  0.76554566  0.75135506  0.03773320  1  0  -0.136727  0  3.729254  0  0  -0.15815  0  3.983179  0  0  -0.160571  0  4.001685  0  0  -0.091733  -0.156836  0  3.970804  0
C  C37  1  0.72820990  0.24877391  0.96251222  1  0  -0.13674  0  3.72752  0  0  -0.158326  0  3.982112  0  0  -0.160705  0  4.000499  0  0  -0.091067  -0.15706  0  3.969756  0
C  C38  1  0.68154849  0.90634529  0.04864395  1  0  0.266146  0  3.781658  0  0  0.255929  0  4.043845  0  0  0.264008  0  4.060912  0  0  0.082084  0.250438  0  4.032715  0
C  C39  1  0.63318039  0.09381089  0.95160093  1  0  0.268095  0  3.78005  0  0  0.257939  0  4.042211  0  0  0.266066  0  4.059207  0  0  0.082235  0.25242  0  4.031134  0
C  C40  1  0.49307897  0.96793047  0.11331292  1  0  -0.162418  0  3.752245  0  0  -0.184956  0  4.008289  0  0  -0.188158  0  4.028378  0  0  -0.100918  -0.182761  0  3.995231  0
C  C41  1  0.38044164  0.03223770  0.88680910  1  0  -0.164345  0  3.752455  0  0  -0.186764  0  4.00858  0  0  -0.189982  0  4.028685  0  0  -0.101257  -0.184568  0  3.99551  0
C  C42  1  0.39257751  0.87228054  0.16772077  1  0  -0.157716  0  3.77916  0  0  -0.172161  0  4.028754  0  0  -0.177016  0  4.052761  0  0  -0.102759  -0.170035  0  4.01375  0
C  C43  1  0.22603338  0.12793449  0.83231108  1  0  -0.157516  0  3.778283  0  0  -0.172153  0  4.027835  0  0  -0.177053  0  4.051951  0  0  -0.102623  -0.169973  0  4.01278  0
I  I44  1  0.96123616  0.82857049  0.39915241  1  0  -0.355  0  1.855076  0  0  -0.306692  0  2.345815  0  0  -0.319245  0  2.297915  0  0  -0.14777  -0.295068  0  2.37715  0
I  I45  1  0.56232100  0.17123589  0.60069246  1  0  -0.355348  0  1.853421  0  0  -0.306952  0  2.344008  0  0  -0.319516  0  2.296028  0  0  -0.148099  -0.295368  0  2.375351  0
N  N46  1  0.04520596  0.24203649  0.40220275  1  0  -0.268442  0  3.351828  0  0  -0.192895  0  3.632218  0  0  -0.20579  0  3.642453  0  0  -0.359597  -0.183681  0  3.624537  0
N  N47  1  0.64284584  0.75757548  0.59759135  1  0  -0.269739  0  3.35077  0  0  -0.193564  0  3.630917  0  0  -0.206503  0  3.641135  0  0  -0.360293  -0.1843  0  3.623283  0
N  N48  1  0.36616699  0.62356916  0.21361836  1  0  -0.43474  0  3.386056  0  0  -0.381333  0  3.623595  0  0  -0.402677  0  3.634255  0  0  -0.400426  -0.366838  0  3.617145  0
N  N49  1  0.15366785  0.37663546  0.78640783  1  0  -0.434397  0  3.387094  0  0  -0.380494  0  3.624443  0  0  -0.401664  0  3.635041  0  0  -0.400009  -0.366103  0  3.618053  0
O  O50  1  0.35461815  0.38101967  0.12907881  1  0  -0.521173  0  1.927523  0  0  -0.477815  0  2.149116  0  0  -0.496612  0  2.144367  0  0  -0.277241  -0.465038  0  2.152252  0
O  O51  1  0.22530970  0.61916994  0.87101542  1  0  -0.520775  0  1.926677  0  0  -0.477798  0  2.148578  0  0  -0.496605  0  2.143793  0  0  -0.276808  -0.46498  0  2.151673  0
O  O52  1  0.82246648  0.00007632  0.00017238  1  0  -0.316432  0  2.378582  0  0  -0.246954  0  2.609206  0  0  -0.265767  0  2.614931  0  0  -0.160313  -0.233393  0  2.604851  0
