# generated using pymatgen
data_Zn2MoH8C12N2O9
_symmetry_space_group_name_H-M   'P 1'
_cell_length_a   7.64114738
_cell_length_b   9.65260611
_cell_length_c   10.55073538
_cell_angle_alpha   94.23414757
_cell_angle_beta   105.22044738
_cell_angle_gamma   105.63721888
_symmetry_Int_Tables_number   1
_chemical_formula_structural   Zn2MoH8C12N2O9
_chemical_formula_sum   'Zn4 Mo2 H16 C24 N4 O18'
_cell_volume   714.29263609
_cell_formula_units_Z   2
loop_
 _symmetry_equiv_pos_site_id
 _symmetry_equiv_pos_as_xyz
  1  'x, y, z'
loop_
 _atom_site_type_symbol
 _atom_site_label
 _atom_site_symmetry_multiplicity
 _atom_site_fract_x
 _atom_site_fract_y
 _atom_site_fract_z
 _atom_site_occupancy
 _atom_site_hle17_bader_spin_density
 _atom_site_hle17_ddec_charge
 _atom_site_hle17_ddec_spin_density
 _atom_site_hle17_ddec_sum_bond_order
 _atom_site_hle17_magmom
 _atom_site_hse06_10hf_bader_spin_density
 _atom_site_hse06_10hf_ddec_charge
 _atom_site_hse06_10hf_ddec_spin_density
 _atom_site_hse06_10hf_ddec_sum_bond_order
 _atom_site_hse06_10hf_magmom
 _atom_site_hse06_bader_spin_density
 _atom_site_hse06_ddec_charge
 _atom_site_hse06_ddec_spin_density
 _atom_site_hse06_ddec_sum_bond_order
 _atom_site_hse06_magmom
 _atom_site_pbe_bader_spin_density
 _atom_site_pbe_cm5_charge
 _atom_site_pbe_ddec_charge
 _atom_site_pbe_ddec_spin_density
 _atom_site_pbe_ddec_sum_bond_order
 _atom_site_pbe_magmom
Zn  Zn0  1  0.78676451  0.27366344  0.83800983  1  0  1.096333  0  1.83479  0  0  0.92009  0  2.304611  0  0  0.967067  0  2.247866  0  0  0.692601  0.887507  0  2.343499  0
Zn  Zn1  1  0.21323546  0.72633629  0.16198905  1  0  1.096358  0  1.834773  0  0  0.920115  0  2.304594  0  0  0.967089  0  2.24785  0  0  0.692601  0.887533  0  2.343482  0
Zn  Zn2  1  0.18869904  0.38959782  0.37575350  1  0  1.255924  0  1.695836  0  0  1.110456  0  2.163046  0  0  1.160816  0  2.095415  0  0  0.69354  1.07478  0  2.210075  0
Zn  Zn3  1  0.81130048  0.61040084  0.62424712  1  0  1.255914  0  1.695822  0  0  1.110461  0  2.163041  0  0  1.16082  0  2.095409  0  0  0.693538  1.074781  0  2.210048  0
Mo  Mo4  1  0.16027683  0.42438038  0.70725346  1  0  2.181143  0  4.233282  0  0  2.144463  0  4.833478  0  0  2.246491  0  4.794353  0  0  1.507222  2.073453  0  4.861936  0
Mo  Mo5  1  0.83972401  0.57562155  0.29274762  1  0  2.181077  0  4.233393  0  0  2.144383  0  4.833606  0  0  2.24642  0  4.794469  0  0  1.507208  2.073381  0  4.862042  0
H  H6  1  0.90316001  0.93376017  0.18835026  1  0  0.12728  0  0.939452  0  0  0.136381  0  0.999232  0  0  0.140103  0  0.997446  0  0  0.112876  0.133861  0  1.000201  0
H  H7  1  0.09683993  0.06624285  0.81164976  1  0  0.127248  0  0.939497  0  0  0.136377  0  0.99923  0  0  0.140098  0  0.997447  0  0  0.112871  0.133857  0  1.000199  0
H  H8  1  0.64386771  0.71500286  0.04895179  1  0  0.113301  0  0.949753  0  0  0.122017  0  1.010036  0  0  0.125098  0  1.008159  0  0  0.114465  0.120047  0  1.010818  0
H  H9  1  0.35613449  0.28499904  0.95104861  1  0  0.113356  0  0.949782  0  0  0.12205  0  1.010078  0  0  0.125132  0  1.008202  0  0  0.114501  0.12008  0  1.010862  0
H  H10  1  0.43745792  0.74073207  0.83307926  1  0  0.124967  0  0.956495  0  0  0.130973  0  1.022269  0  0  0.13453  0  1.020446  0  0  0.114506  0.128377  0  1.023759  0
H  H11  1  0.56254519  0.25926874  0.16692124  1  0  0.124965  0  0.956516  0  0  0.130959  0  1.022302  0  0  0.134517  0  1.020478  0  0  0.114512  0.128367  0  1.023792  0
H  H12  1  0.25082375  0.79439265  0.66863879  1  0  0.13492  0  0.969056  0  0  0.143731  0  1.028354  0  0  0.147987  0  1.02594  0  0  0.112053  0.140538  0  1.030541  0
H  H13  1  0.74917621  0.20560710  0.33136293  1  0  0.134959  0  0.969017  0  0  0.14377  0  1.028318  0  0  0.148025  0  1.025905  0  0  0.112081  0.140579  0  1.030507  0
H  H14  1  0.08384234  0.86097128  0.45902180  1  0  0.106615  0  0.977636  0  0  0.113951  0  1.040557  0  0  0.117098  0  1.038727  0  0  0.104952  0.111534  0  1.042133  0
H  H15  1  0.91615762  0.13902847  0.54097992  1  0  0.106656  0  0.977609  0  0  0.114  0  1.040518  0  0  0.117147  0  1.038689  0  0  0.104964  0.111582  0  1.042096  0
H  H16  1  0.22191371  0.10566419  0.39708900  1  0  0.125615  0  0.967  0  0  0.133418  0  1.029369  0  0  0.137784  0  1.02618  0  0  0.112648  0.130184  0  1.031835  0
H  H17  1  0.77808402  0.89433339  0.60291121  1  0  0.125609  0  0.967056  0  0  0.133461  0  1.029357  0  0  0.137827  0  1.026167  0  0  0.112687  0.130224  0  1.03182  0
H  H18  1  0.59393701  0.44716391  0.87505452  1  0  0.450178  0  0.848787  0  0  0.422316  0  0.906417  0  0  0.434147  0  0.889384  0  0  0.288292  0.414019  0  0.918282  0
H  H19  1  0.40606206  0.55283692  0.12494330  1  0  0.450179  0  0.848787  0  0  0.422319  0  0.906413  0  0  0.434151  0  0.889376  0  0  0.288294  0.414023  0  0.918277  0
H  H20  1  0.81819119  0.53169228  0.92578332  1  0  0.430262  0  0.874576  0  0  0.397831  0  0.939794  0  0  0.409331  0  0.923163  0  0  0.29506  0.389757  0  0.951411  0
H  H21  1  0.18180787  0.46830856  0.07421545  1  0  0.430274  0  0.874544  0  0  0.397835  0  0.939781  0  0  0.409335  0  0.92315  0  0  0.29506  0.389762  0  0.951395  0
C  C22  1  0.99284907  0.21225826  0.11728934  1  0  0.644161  0  3.896103  0  0  0.586419  0  4.191955  0  0  0.620618  0  4.184816  0  0  0.22254  0.562996  0  4.196639  0
C  C23  1  0.00714638  0.78774370  0.88270786  1  0  0.64436  0  3.895916  0  0  0.586526  0  4.191868  0  0  0.620723  0  4.184738  0  0  0.222572  0.563095  0  4.19655  0
C  C24  1  0.84055219  0.07356073  0.04355321  1  0  0.102456  0  3.749147  0  0  0.105974  0  3.992062  0  0  0.10645  0  4.012546  0  0  0.115096  0.105057  0  3.978761  0
C  C25  1  0.15944552  0.92644012  0.95644625  1  0  0.102284  0  3.749211  0  0  0.105913  0  3.992044  0  0  0.106382  0  4.012537  0  0  0.115057  0.105002  0  3.978736  0
C  C26  1  0.81131382  0.94194448  0.09301920  1  0  -0.103552  0  3.673818  0  0  -0.132147  0  3.932613  0  0  -0.136233  0  3.952032  0  0  -0.073119  -0.129348  0  3.918893  0
C  C27  1  0.18868611  0.05805855  0.90698177  1  0  -0.103493  0  3.673923  0  0  -0.13213  0  3.932663  0  0  -0.136212  0  3.952085  0  0  -0.073106  -0.129329  0  3.918934  0
C  C28  1  0.66661018  0.82062522  0.01506518  1  0  0.019282  0  3.640528  0  0  0.000204  0  3.896637  0  0  0.003312  0  3.912664  0  0  -0.056486  -0.001218  0  3.884685  0
C  C29  1  0.33339066  0.17937670  0.98493590  1  0  0.019258  0  3.640635  0  0  0.000203  0  3.896731  0  0  0.003314  0  3.912749  0  0  -0.056513  -0.001219  0  3.884784  0
C  C30  1  0.55107489  0.83494927  0.89346591  1  0  -0.093106  0  3.601934  0  0  -0.114955  0  3.850474  0  0  -0.119159  0  3.868111  0  0  -0.062038  -0.11217  0  3.838457  0
C  C31  1  0.44892687  0.16505155  0.10653433  1  0  -0.09312  0  3.601978  0  0  -0.114954  0  3.850486  0  0  -0.119156  0  3.868124  0  0  -0.062023  -0.112172  0  3.838479  0
C  C32  1  0.58689986  0.97126222  0.85093924  1  0  0.184467  0  3.748599  0  0  0.179631  0  3.991579  0  0  0.185501  0  4.012252  0  0  0.126929  0.175929  0  3.976995  0
C  C33  1  0.41309876  0.02873753  0.14905938  1  0  0.18451  0  3.748583  0  0  0.179658  0  3.991575  0  0  0.185526  0  4.012247  0  0  0.126956  0.175955  0  3.976995  0
C  C34  1  0.47427789  0.00190369  0.72466047  1  0  0.173907  0  3.762874  0  0  0.167057  0  4.010249  0  0  0.172355  0  4.031826  0  0  0.120593  0.16467  0  3.992962  0
C  C35  1  0.52572163  0.99809496  0.27534016  1  0  0.173893  0  3.762858  0  0  0.167061  0  4.010224  0  0  0.172358  0  4.031803  0  0  0.120602  0.164676  0  3.992939  0
C  C36  1  0.30770367  0.90091804  0.64217341  1  0  -0.11288  0  3.636677  0  0  -0.13455  0  3.886146  0  0  -0.139751  0  3.904992  0  0  -0.069811  -0.131939  0  3.872843  0
C  C37  1  0.69229810  0.09907952  0.35782948  1  0  -0.112875  0  3.636582  0  0  -0.134553  0  3.886061  0  0  -0.139752  0  3.904907  0  0  -0.069817  -0.131945  0  3.872765  0
C  C38  1  0.21388355  0.93870689  0.52401410  1  0  0.013429  0  3.658162  0  0  -0.00244  0  3.907212  0  0  -0.000154  0  3.924211  0  0  -0.06086  -0.003778  0  3.896063  0
C  C39  1  0.78611552  0.06129069  0.47598827  1  0  0.013302  0  3.658176  0  0  -0.002593  0  3.907257  0  0  -0.000309  0  3.924255  0  0  -0.060938  -0.003932  0  3.896112  0
C  C40  1  0.28884946  0.07413107  0.49016070  1  0  -0.094037  0  3.657979  0  0  -0.117796  0  3.906132  0  0  -0.121474  0  3.924838  0  0  -0.071241  -0.115895  0  3.894057  0
C  C41  1  0.71115006  0.92586760  0.50984087  1  0  -0.09399  0  3.65804  0  0  -0.117734  0  3.906145  0  0  -0.121411  0  3.92485  0  0  -0.071236  -0.11582  0  3.894051  0
C  C42  1  0.45380767  0.17114011  0.57842234  1  0  0.111897  0  3.724309  0  0  0.114672  0  3.96474  0  0  0.115104  0  3.984959  0  0  0.119439  0.113952  0  3.951231  0
C  C43  1  0.54619050  0.82885856  0.42157897  1  0  0.111859  0  3.724278  0  0  0.114605  0  3.964789  0  0  0.115037  0  3.98501  0  0  0.119435  0.113886  0  3.951276  0
C  C44  1  0.54056399  0.31917297  0.54471578  1  0  0.651329  0  3.880867  0  0  0.598921  0  4.173446  0  0  0.633873  0  4.165156  0  0  0.223982  0.574879  0  4.179071  0
C  C45  1  0.45943689  0.68082566  0.45528321  1  0  0.651517  0  3.880609  0  0  0.599041  0  4.173317  0  0  0.633985  0  4.16504  0  0  0.22406  0.574999  0  4.178942  0
N  N46  1  0.73158235  0.08536615  0.92487866  1  0  -0.376324  0  3.32611  0  0  -0.307901  0  3.585148  0  0  -0.325175  0  3.601983  0  0  -0.319483  -0.296563  0  3.574221  0
N  N47  1  0.26841671  0.91463469  0.07512106  1  0  -0.376317  0  3.32617  0  0  -0.307925  0  3.585181  0  0  -0.325194  0  3.602019  0  0  -0.319493  -0.296587  0  3.574253  0
N  N48  1  0.54206380  0.13532768  0.69347283  1  0  -0.373114  0  3.277232  0  0  -0.30569  0  3.538012  0  0  -0.322517  0  3.554431  0  0  -0.313862  -0.294057  0  3.525793  0
N  N49  1  0.45793572  0.86467097  0.30652684  1  0  -0.373103  0  3.277272  0  0  -0.305667  0  3.538046  0  0  -0.322491  0  3.554465  0  0  -0.313847  -0.294034  0  3.525826  0
O  O50  1  0.39436790  0.46845689  0.81079989  1  0  -0.821106  0  1.525208  0  0  -0.793365  0  1.785612  0  0  -0.825743  0  1.771417  0  0  -0.558638  -0.770813  0  1.794899  0
O  O51  1  0.60563381  0.53155050  0.18920169  1  0  -0.821091  0  1.525247  0  0  -0.793334  0  1.785629  0  0  -0.825732  0  1.771463  0  0  -0.558623  -0.77078  0  1.79491  0
O  O52  1  0.14713412  0.34234746  0.54588057  1  0  -0.923759  0  1.710242  0  0  -0.880759  0  2.041257  0  0  -0.919428  0  2.021152  0  0  -0.576538  -0.853295  0  2.054784  0
O  O53  1  0.85287081  0.65765115  0.45412109  1  0  -0.923746  0  1.710302  0  0  -0.880758  0  2.041329  0  0  -0.919423  0  2.021217  0  0  -0.576565  -0.853313  0  2.054906  0
O  O54  1  0.00797706  0.29192318  0.77274664  1  0  -0.898168  0  1.694241  0  0  -0.851509  0  2.027187  0  0  -0.888269  0  2.005645  0  0  -0.577889  -0.825745  0  2.041779  0
O  O55  1  0.99202426  0.70807656  0.22725439  1  0  -0.89816  0  1.694249  0  0  -0.851484  0  2.02718  0  0  -0.888246  0  2.005638  0  0  -0.577877  -0.825716  0  2.041766  0
O  O56  1  0.08877111  0.58405950  0.69561450  1  0  -0.878388  0  1.629559  0  0  -0.84435  0  1.939764  0  0  -0.88024  0  1.922392  0  0  -0.561998  -0.819206  0  1.951677  0
O  O57  1  0.91122838  0.41594244  0.30438632  1  0  -0.87834  0  1.62951  0  0  -0.844304  0  1.939721  0  0  -0.880193  0  1.922347  0  0  -0.561983  -0.819164  0  1.951636  0
O  O58  1  0.01497966  0.31882298  0.05487858  1  0  -0.60498  0  2.08923  0  0  -0.533986  0  2.324677  0  0  -0.561093  0  2.314502  0  0  -0.283929  -0.515582  0  2.331538  0
O  O59  1  0.98501852  0.68117568  0.94511989  1  0  -0.605  0  2.089099  0  0  -0.533985  0  2.324574  0  0  -0.561092  0  2.314403  0  0  -0.283917  -0.515592  0  2.331453  0
O  O60  1  0.72194412  0.43575466  0.92121517  1  0  -0.832486  0  1.91205  0  0  -0.764153  0  2.139199  0  0  -0.788076  0  2.101079  0  0  -0.575499  -0.747387  0  2.165185  0
O  O61  1  0.27805450  0.56424508  0.07878250  1  0  -0.832479  0  1.912027  0  0  -0.764151  0  2.139188  0  0  -0.788072  0  2.101069  0  0  -0.575501  -0.747386  0  2.165173  0
O  O62  1  0.69099287  0.40073565  0.63299047  1  0  -0.674573  0  2.147599  0  0  -0.604035  0  2.435546  0  0  -0.634892  0  2.418658  0  0  -0.301982  -0.582464  0  2.446773  0
O  O63  1  0.30901119  0.59926074  0.36700520  1  0  -0.674662  0  2.147556  0  0  -0.604077  0  2.435501  0  0  -0.634934  0  2.418625  0  0  -0.301992  -0.582508  0  2.446736  0
O  O64  1  0.46537863  0.35067679  0.43404566  1  0  -0.624189  0  2.0418  0  0  -0.573721  0  2.307113  0  0  -0.59903  0  2.293861  0  0  -0.304183  -0.555798  0  2.316306  0
O  O65  1  0.53462046  0.64932076  0.56595197  1  0  -0.624292  0  2.041699  0  0  -0.573817  0  2.307079  0  0  -0.599124  0  2.293829  0  0  -0.304266  -0.555891  0  2.31627  0
O  O66  1  0.08489975  0.20976455  0.23674748  1  0  -0.636822  0  2.06885  0  0  -0.567169  0  2.336883  0  0  -0.596449  0  2.322442  0  0  -0.309246  -0.546297  0  2.346036  0
O  O67  1  0.91509075  0.79023527  0.76325052  1  0  -0.636891  0  2.06881  0  0  -0.567251  0  2.336937  0  0  -0.596528  0  2.322492  0  0  -0.309293  -0.546379  0  2.346086  0
