# generated using pymatgen
data_Zn2AsH7C6SO8
_symmetry_space_group_name_H-M   'P 1'
_cell_length_a   8.38634954
_cell_length_b   10.87392601
_cell_length_c   12.44212855
_cell_angle_alpha   95.09062494
_cell_angle_beta   90.00079954
_cell_angle_gamma   89.99982954
_symmetry_Int_Tables_number   1
_chemical_formula_structural   Zn2AsH7C6SO8
_chemical_formula_sum   'Zn8 As4 H28 C24 S4 O32'
_cell_volume   1130.15392483
_cell_formula_units_Z   4
loop_
 _symmetry_equiv_pos_site_id
 _symmetry_equiv_pos_as_xyz
  1  'x, y, z'
loop_
 _atom_site_type_symbol
 _atom_site_label
 _atom_site_symmetry_multiplicity
 _atom_site_fract_x
 _atom_site_fract_y
 _atom_site_fract_z
 _atom_site_occupancy
 _atom_site_hle17_bader_spin_density
 _atom_site_hle17_ddec_charge
 _atom_site_hle17_ddec_spin_density
 _atom_site_hle17_ddec_sum_bond_order
 _atom_site_hle17_magmom
 _atom_site_hse06_10hf_bader_spin_density
 _atom_site_hse06_10hf_ddec_charge
 _atom_site_hse06_10hf_ddec_spin_density
 _atom_site_hse06_10hf_ddec_sum_bond_order
 _atom_site_hse06_10hf_magmom
 _atom_site_hse06_bader_spin_density
 _atom_site_hse06_ddec_charge
 _atom_site_hse06_ddec_spin_density
 _atom_site_hse06_ddec_sum_bond_order
 _atom_site_hse06_magmom
 _atom_site_pbe_bader_spin_density
 _atom_site_pbe_cm5_charge
 _atom_site_pbe_ddec_charge
 _atom_site_pbe_ddec_spin_density
 _atom_site_pbe_ddec_sum_bond_order
 _atom_site_pbe_magmom
Zn  Zn0  1  0.10402818  0.38904280  0.03413782  1  0  1.223702  0  1.741494  0  0  1.077257  0  2.18311  0  0  1.122103  0  2.122731  0  0  0.648863  1.045082  0  2.224977  0
Zn  Zn1  1  0.60402938  0.11095481  0.96586449  1  0  1.2237  0  1.741455  0  0  1.07723  0  2.183078  0  0  1.122086  0  2.122699  0  0  0.648888  1.045055  0  2.224946  0
Zn  Zn2  1  0.89596116  0.61095500  0.96585124  1  0  1.223725  0  1.741516  0  0  1.077268  0  2.183115  0  0  1.122117  0  2.122741  0  0  0.648909  1.045095  0  2.224978  0
Zn  Zn3  1  0.39596711  0.88904200  0.03414459  1  0  1.223671  0  1.741448  0  0  1.077183  0  2.183048  0  0  1.122042  0  2.12267  0  0  0.648868  1.045007  0  2.224912  0
Zn  Zn4  1  0.28824355  0.62857656  0.94301648  1  0  1.247541  0  1.786569  0  0  1.086637  0  2.264492  0  0  1.132809  0  2.198094  0  0  0.672093  1.053755  0  2.310733  0
Zn  Zn5  1  0.78824890  0.87142149  0.05698163  1  0  1.247594  0  1.786466  0  0  1.08675  0  2.264332  0  0  1.132926  0  2.197933  0  0  0.672162  1.05388  0  2.310578  0
Zn  Zn6  1  0.71174936  0.37142122  0.05697660  1  0  1.247639  0  1.786586  0  0  1.086756  0  2.264505  0  0  1.132938  0  2.198104  0  0  0.672177  1.053877  0  2.310746  0
Zn  Zn7  1  0.21175116  0.12857715  0.94303081  1  0  1.247469  0  1.786718  0  0  1.086609  0  2.264628  0  0  1.132785  0  2.198225  0  0  0.67208  1.053734  0  2.310873  0
As  As8  1  0.41921916  0.34764967  0.85824593  1  0  1.581847  0  3.892475  0  0  1.512833  0  4.334766  0  0  1.560628  0  4.309059  0  0  0.602057  1.478935  0  4.352629  0
As  As9  1  0.91922710  0.15234568  0.14175436  1  0  1.581919  0  3.892442  0  0  1.512875  0  4.334721  0  0  1.56067  0  4.309024  0  0  0.60211  1.478986  0  4.35259  0
As  As10  1  0.58077494  0.65234531  0.14175657  1  0  1.581864  0  3.892511  0  0  1.512832  0  4.334773  0  0  1.560632  0  4.309077  0  0  0.60213  1.47893  0  4.35263  0
As  As11  1  0.08076700  0.84765764  0.85824077  1  0  1.581779  0  3.892431  0  0  1.512726  0  4.334732  0  0  1.560525  0  4.309042  0  0  0.602079  1.47883  0  4.352589  0
H  H12  1  0.59513899  0.07264784  0.51951955  1  0  0.104065  0  0.970782  0  0  0.11019  0  1.040345  0  0  0.113423  0  1.038298  0  0  0.107477  0.107703  0  1.042196  0
H  H13  1  0.09517663  0.42734332  0.48047895  1  0  0.104158  0  0.970687  0  0  0.110147  0  1.040394  0  0  0.11339  0  1.038337  0  0  0.107404  0.107653  0  1.042233  0
H  H14  1  0.40484437  0.92731755  0.48049345  1  0  0.104188  0  0.970923  0  0  0.110206  0  1.040549  0  0  0.113465  0  1.038491  0  0  0.107432  0.107706  0  1.042403  0
H  H15  1  0.90484131  0.57269514  0.51950051  1  0  0.10411  0  0.971113  0  0  0.110245  0  1.040619  0  0  0.113506  0  1.038559  0  0  0.107445  0.107733  0  1.042492  0
H  H16  1  0.68187267  0.25038738  0.42468023  1  0  0.104015  0  0.940705  0  0  0.111789  0  1.001236  0  0  0.114712  0  1.000113  0  0  0.106804  0.109616  0  1.002286  0
H  H17  1  0.18192010  0.24960183  0.57531571  1  0  0.104043  0  0.940698  0  0  0.111835  0  1.001209  0  0  0.114727  0  1.000121  0  0  0.106778  0.109661  0  1.002259  0
H  H18  1  0.31809043  0.74957158  0.57532341  1  0  0.103818  0  0.940954  0  0  0.11171  0  1.001362  0  0  0.114586  0  1.000294  0  0  0.106751  0.109537  0  1.002409  0
H  H19  1  0.81811215  0.75044676  0.42467099  1  0  0.103848  0  0.94087  0  0  0.111786  0  1.001244  0  0  0.11463  0  1.000212  0  0  0.106814  0.109624  0  1.002282  0
H  H20  1  0.64289075  0.46456453  0.51093202  1  0  0.100661  0  0.957423  0  0  0.110555  0  1.018558  0  0  0.112935  0  1.018067  0  0  0.1066  0.108845  0  1.019079  0
H  H21  1  0.14292173  0.03542565  0.48906443  1  0  0.100602  0  0.957563  0  0  0.110517  0  1.01869  0  0  0.112894  0  1.018202  0  0  0.106636  0.108819  0  1.019194  0
H  H22  1  0.35710216  0.53539999  0.48906483  1  0  0.100693  0  0.957493  0  0  0.110523  0  1.018713  0  0  0.112899  0  1.018232  0  0  0.106622  0.108825  0  1.019217  0
H  H23  1  0.85712126  0.96461923  0.51092759  1  0  0.100471  0  0.95764  0  0  0.110444  0  1.018738  0  0  0.112821  0  1.018253  0  0  0.106557  0.108747  0  1.01924  0
H  H24  1  0.51225643  0.49767902  0.69043024  1  0  0.108926  0  0.95042  0  0  0.120248  0  1.005765  0  0  0.123483  0  1.003779  0  0  0.111539  0.117777  0  1.007511  0
H  H25  1  0.01228266  0.00231595  0.30956616  1  0  0.109037  0  0.950474  0  0  0.120268  0  1.005904  0  0  0.123531  0  1.003881  0  0  0.111582  0.117799  0  1.007646  0
H  H26  1  0.48774721  0.50229935  0.30956691  1  0  0.108944  0  0.950401  0  0  0.120288  0  1.005736  0  0  0.123553  0  1.003707  0  0  0.111541  0.117815  0  1.007485  0
H  H27  1  0.98775556  0.99771505  0.69043359  1  0  0.108747  0  0.950476  0  0  0.120174  0  1.005723  0  0  0.123437  0  1.003697  0  0  0.1115  0.117701  0  1.007471  0
H  H28  1  0.12525951  0.61638082  0.11615289  1  0  0.438947  0  0.821605  0  0  0.416743  0  0.880109  0  0  0.426015  0  0.870341  0  0  0.305909  0.410008  0  0.887192  0
H  H29  1  0.62526632  0.88362022  0.88384472  1  0  0.438869  0  0.821653  0  0  0.416669  0  0.880151  0  0  0.42594  0  0.870429  0  0  0.305883  0.409935  0  0.88723  0
H  H30  1  0.87472505  0.38360034  0.88383966  1  0  0.438866  0  0.821543  0  0  0.416642  0  0.880097  0  0  0.42591  0  0.870381  0  0  0.305856  0.409909  0  0.88718  0
H  H31  1  0.37473374  0.11638211  0.11616802  1  0  0.43886  0  0.821498  0  0  0.416641  0  0.880051  0  0  0.425911  0  0.870335  0  0  0.305847  0.409909  0  0.887132  0
H  H32  1  0.23937008  0.44135073  0.21240751  1  0  0.407945  0  0.890988  0  0  0.379495  0  0.961113  0  0  0.389195  0  0.947099  0  0  0.290651  0.37262  0  0.971051  0
H  H33  1  0.73937259  0.05865686  0.78759366  1  0  0.407952  0  0.891088  0  0  0.3795  0  0.961156  0  0  0.389201  0  0.94714  0  0  0.290666  0.372625  0  0.971092  0
H  H34  1  0.76061567  0.55865352  0.78758206  1  0  0.407915  0  0.891063  0  0  0.379433  0  0.961194  0  0  0.389134  0  0.947178  0  0  0.290647  0.372557  0  0.971131  0
H  H35  1  0.26063105  0.94133440  0.21241739  1  0  0.407848  0  0.891185  0  0  0.379335  0  0.961364  0  0  0.389038  0  0.947346  0  0  0.29061  0.372459  0  0.971302  0
H  H36  1  0.39086432  0.42954524  0.13600191  1  0  0.430625  0  0.875303  0  0  0.398656  0  0.941102  0  0  0.40984  0  0.924797  0  0  0.284825  0.39072  0  0.952686  0
H  H37  1  0.89086716  0.07046399  0.86400164  1  0  0.430581  0  0.875374  0  0  0.398604  0  0.941193  0  0  0.40979  0  0.924883  0  0  0.284817  0.390669  0  0.952776  0
H  H38  1  0.60912621  0.57044883  0.86399570  1  0  0.430778  0  0.875087  0  0  0.398796  0  0.940922  0  0  0.409983  0  0.924606  0  0  0.28491  0.390862  0  0.952503  0
H  H39  1  0.10913648  0.92953835  0.13601029  1  0  0.430523  0  0.875452  0  0  0.398514  0  0.941315  0  0  0.4097  0  0.925006  0  0  0.284755  0.390582  0  0.952893  0
C  C40  1  0.48575798  0.30354187  0.70873155  1  0  -0.213333  0  3.667495  0  0  -0.206156  0  3.937068  0  0  -0.214324  0  3.96333  0  0  -0.036307  -0.200891  0  3.919562  0
C  C41  1  0.98577837  0.19645616  0.29126878  1  0  -0.213265  0  3.667497  0  0  -0.206128  0  3.937027  0  0  -0.214306  0  3.96331  0  0  -0.036353  -0.20086  0  3.919521  0
C  C42  1  0.51423970  0.69644110  0.29127320  1  0  -0.213055  0  3.667538  0  0  -0.205779  0  3.936978  0  0  -0.213951  0  3.963244  0  0  -0.036153  -0.200514  0  3.919475  0
C  C43  1  0.01423243  0.80357301  0.70872521  1  0  -0.213222  0  3.667589  0  0  -0.205939  0  3.937163  0  0  -0.214105  0  3.96342  0  0  -0.03635  -0.200673  0  3.919658  0
C  C44  1  0.50703872  0.18361896  0.65932956  1  0  -0.115487  0  3.781157  0  0  -0.094429  0  4.028275  0  0  -0.099451  0  4.052927  0  0  -0.017626  -0.090868  0  4.011553  0
C  C45  1  0.00706198  0.31637600  0.34067322  1  0  -0.115572  0  3.781193  0  0  -0.094405  0  4.0281  0  0  -0.099419  0  4.052758  0  0  -0.017594  -0.090846  0  4.011381  0
C  C46  1  0.49296135  0.81635935  0.34068688  1  0  -0.11548  0  3.780819  0  0  -0.094474  0  4.027933  0  0  -0.099485  0  4.052582  0  0  -0.017645  -0.09092  0  4.011226  0
C  C47  1  0.99294523  0.68365505  0.65931207  1  0  -0.115194  0  3.780798  0  0  -0.094261  0  4.028034  0  0  -0.099276  0  4.052696  0  0  -0.017432  -0.090698  0  4.011307  0
C  C48  1  0.57688931  0.16582838  0.55711608  1  0  -0.054867  0  3.711724  0  0  -0.079011  0  3.95677  0  0  -0.080102  0  3.976928  0  0  -0.078163  -0.078222  0  3.943429  0
C  C49  1  0.07691938  0.33416926  0.44288597  1  0  -0.054811  0  3.711392  0  0  -0.078865  0  3.956396  0  0  -0.079957  0  3.976532  0  0  -0.078046  -0.078057  0  3.943039  0
C  C50  1  0.42310122  0.83414808  0.44290101  1  0  -0.05508  0  3.7114  0  0  -0.079097  0  3.9564  0  0  -0.080215  0  3.976561  0  0  -0.078107  -0.078288  0  3.943041  0
C  C51  1  0.92310215  0.66586273  0.55709538  1  0  -0.054991  0  3.711815  0  0  -0.079104  0  3.956911  0  0  -0.080215  0  3.977051  0  0  -0.078082  -0.078298  0  3.943554  0
C  C52  1  0.62621515  0.26642109  0.50377874  1  0  -0.0221  0  3.686146  0  0  -0.034051  0  3.929716  0  0  -0.034309  0  3.948416  0  0  -0.069961  -0.034106  0  3.917383  0
C  C53  1  0.12624671  0.23356542  0.49621887  1  0  -0.022215  0  3.686439  0  0  -0.034163  0  3.929956  0  0  -0.034396  0  3.948664  0  0  -0.069986  -0.034219  0  3.917622  0
C  C54  1  0.37377418  0.73354156  0.49622761  1  0  -0.021866  0  3.686172  0  0  -0.033889  0  3.929649  0  0  -0.034107  0  3.948369  0  0  -0.069983  -0.033946  0  3.91731  0
C  C55  1  0.87378317  0.76646930  0.50377314  1  0  -0.022024  0  3.686337  0  0  -0.034112  0  3.929978  0  0  -0.034303  0  3.948707  0  0  -0.070179  -0.034176  0  3.917638  0
C  C56  1  0.60386123  0.38571188  0.55218175  1  0  -0.037924  0  3.693019  0  0  -0.052953  0  3.941864  0  0  -0.054123  0  3.960722  0  0  -0.074308  -0.052183  0  3.929219  0
C  C57  1  0.10389106  0.11427929  0.44781120  1  0  -0.03785  0  3.693727  0  0  -0.052947  0  3.942585  0  0  -0.054109  0  3.961432  0  0  -0.074243  -0.052188  0  3.929934  0
C  C58  1  0.39612929  0.61425264  0.44781510  1  0  -0.037959  0  3.693247  0  0  -0.053003  0  3.942214  0  0  -0.054172  0  3.961065  0  0  -0.074191  -0.052241  0  3.929557  0
C  C59  1  0.89613762  0.88575913  0.55218111  1  0  -0.037709  0  3.693344  0  0  -0.052856  0  3.942329  0  0  -0.054025  0  3.961174  0  0  -0.073981  -0.052096  0  3.929677  0
C  C60  1  0.53265963  0.40446712  0.65367110  1  0  -0.029564  0  3.74039  0  0  -0.053608  0  3.996518  0  0  -0.052579  0  4.016415  0  0  -0.076811  -0.05401  0  3.983073  0
C  C61  1  0.03267790  0.09552690  0.34632784  1  0  -0.029692  0  3.740803  0  0  -0.053661  0  3.996948  0  0  -0.052651  0  4.016838  0  0  -0.076911  -0.054066  0  3.983509  0
C  C62  1  0.46734163  0.59550848  0.34632664  1  0  -0.029758  0  3.740551  0  0  -0.053848  0  3.996716  0  0  -0.052838  0  4.016607  0  0  -0.076983  -0.054252  0  3.983276  0
C  C63  1  0.96734839  0.90450873  0.65367149  1  0  -0.029426  0  3.740318  0  0  -0.053598  0  3.996544  0  0  -0.052588  0  4.016438  0  0  -0.076881  -0.054004  0  3.983107  0
S  S64  1  0.44803058  0.04653437  0.71672799  1  0  1.311172  0  5.62283  0  0  1.208191  0  6.143752  0  0  1.256732  0  6.121022  0  0  0.518869  1.174586  0  6.158314  0
S  S65  1  0.94803669  0.45345446  0.28327848  1  0  1.311099  0  5.62312  0  0  1.208092  0  6.144005  0  0  1.256623  0  6.121289  0  0  0.518856  1.174486  0  6.15857  0
S  S66  1  0.55197187  0.95344209  0.28328830  1  0  1.311136  0  5.622852  0  0  1.208109  0  6.143808  0  0  1.256644  0  6.121083  0  0  0.518956  1.174506  0  6.158374  0
S  S67  1  0.05195264  0.54656551  0.71670673  1  0  1.311018  0  5.622963  0  0  1.208101  0  6.143892  0  0  1.256623  0  6.121167  0  0  0.519003  1.174499  0  6.15845  0
O  O68  1  0.43406934  0.50573127  0.87360399  1  0  -0.902089  0  1.864333  0  0  -0.824145  0  2.155902  0  0  -0.853337  0  2.130503  0  0  -0.423497  -0.803469  0  2.173348  0
O  O69  1  0.93408160  0.99426843  0.12639563  1  0  -0.902076  0  1.864277  0  0  -0.82415  0  2.155897  0  0  -0.853346  0  2.130507  0  0  -0.423543  -0.8035  0  2.173366  0
O  O70  1  0.56591761  0.49426743  0.12638996  1  0  -0.902068  0  1.864274  0  0  -0.824221  0  2.155983  0  0  -0.853425  0  2.130602  0  0  -0.423527  -0.803534  0  2.173417  0
O  O71  1  0.06591846  0.00573669  0.87361411  1  0  -0.902026  0  1.864186  0  0  -0.824172  0  2.155875  0  0  -0.853375  0  2.130494  0  0  -0.423541  -0.803498  0  2.173323  0
O  O72  1  0.22941001  0.30631604  0.89823983  1  0  -0.887322  0  1.782649  0  0  -0.810126  0  2.085523  0  0  -0.83855  0  2.056734  0  0  -0.416517  -0.789836  0  2.105211  0
O  O73  1  0.72941577  0.19367678  0.10176408  1  0  -0.887466  0  1.782705  0  0  -0.810184  0  2.085506  0  0  -0.838613  0  2.056705  0  0  -0.416564  -0.789889  0  2.105184  0
O  O74  1  0.77058409  0.69367618  0.10175763  1  0  -0.887352  0  1.782454  0  0  -0.810155  0  2.08534  0  0  -0.838586  0  2.056554  0  0  -0.416538  -0.789866  0  2.105028  0
O  O75  1  0.27057952  0.80632096  0.89824346  1  0  -0.887366  0  1.782574  0  0  -0.810079  0  2.085373  0  0  -0.838516  0  2.056595  0  0  -0.416494  -0.789799  0  2.105085  0
O  O76  1  0.55706202  0.29279530  0.94506787  1  0  -0.932666  0  1.938173  0  0  -0.849049  0  2.254488  0  0  -0.880723  0  2.228416  0  0  -0.436821  -0.826184  0  2.271845  0
O  O77  1  0.05706313  0.20720422  0.05493334  1  0  -0.932662  0  1.938303  0  0  -0.849066  0  2.254682  0  0  -0.880734  0  2.228604  0  0  -0.436806  -0.826196  0  2.272036  0
O  O78  1  0.44292970  0.70719875  0.05493697  1  0  -0.932658  0  1.938071  0  0  -0.84905  0  2.254431  0  0  -0.880738  0  2.228374  0  0  -0.436896  -0.82618  0  2.271783  0
O  O79  1  0.94292024  0.79279634  0.94505755  1  0  -0.932609  0  1.938011  0  0  -0.848972  0  2.254289  0  0  -0.880661  0  2.228233  0  0  -0.436869  -0.826107  0  2.271643  0
O  O80  1  0.41103942  0.09083313  0.83175310  1  0  -0.770541  0  2.22182  0  0  -0.693109  0  2.521486  0  0  -0.718511  0  2.5009  0  0  -0.33982  -0.67513  0  2.535191  0
O  O81  1  0.91104334  0.40915666  0.16825310  1  0  -0.770629  0  2.221933  0  0  -0.693205  0  2.521659  0  0  -0.7186  0  2.501062  0  0  -0.339837  -0.675234  0  2.535374  0
O  O82  1  0.58894752  0.90913964  0.16826049  1  0  -0.770655  0  2.221944  0  0  -0.693225  0  2.521626  0  0  -0.718626  0  2.501035  0  0  -0.339812  -0.675249  0  2.535338  0
O  O83  1  0.08892214  0.59085775  0.83173729  1  0  -0.770742  0  2.222254  0  0  -0.693299  0  2.521925  0  0  -0.718665  0  2.501302  0  0  -0.33984  -0.675324  0  2.535637  0
O  O84  1  0.30964612  0.99690930  0.65814219  1  0  -0.615325  0  1.952559  0  0  -0.569977  0  2.202694  0  0  -0.592379  0  2.192193  0  0  -0.312993  -0.553988  0  2.20947  0
O  O85  1  0.80964683  0.50307208  0.34186041  1  0  -0.615248  0  1.952565  0  0  -0.569939  0  2.202764  0  0  -0.592337  0  2.192251  0  0  -0.313043  -0.55395  0  2.209543  0
O  O86  1  0.69036586  0.00305611  0.34186517  1  0  -0.615214  0  1.952642  0  0  -0.569839  0  2.202811  0  0  -0.592229  0  2.192296  0  0  -0.31302  -0.553852  0  2.209594  0
O  O87  1  0.19035442  0.49695153  0.65814036  1  0  -0.615197  0  1.952438  0  0  -0.569898  0  2.202633  0  0  -0.592289  0  2.192111  0  0  -0.313112  -0.553913  0  2.209415  0
O  O88  1  0.58885761  0.96598170  0.71194229  1  0  -0.649401  0  1.935172  0  0  -0.593286  0  2.165558  0  0  -0.61536  0  2.153632  0  0  -0.330127  -0.577628  0  2.173582  0
O  O89  1  0.08885346  0.53402028  0.28806308  1  0  -0.649395  0  1.935093  0  0  -0.593266  0  2.165467  0  0  -0.615342  0  2.153544  0  0  -0.330117  -0.577608  0  2.173493  0
O  O90  1  0.41115199  0.03400028  0.28808167  1  0  -0.649469  0  1.935021  0  0  -0.593336  0  2.165407  0  0  -0.615412  0  2.153488  0  0  -0.330262  -0.577675  0  2.173431  0
O  O91  1  0.91113229  0.46600712  0.71190665  1  0  -0.649457  0  1.935139  0  0  -0.593351  0  2.165499  0  0  -0.615428  0  2.153589  0  0  -0.330293  -0.57769  0  2.173521  0
O  O92  1  0.11497544  0.58026401  0.04173620  1  0  -0.995709  0  1.948671  0  0  -0.896726  0  2.250326  0  0  -0.930473  0  2.21514  0  0  -0.561916  -0.87231  0  2.273929  0
O  O93  1  0.61498126  0.91973427  0.95826109  1  0  -0.99564  0  1.948676  0  0  -0.896661  0  2.250317  0  0  -0.930409  0  2.21518  0  0  -0.561899  -0.872246  0  2.273919  0
O  O94  1  0.88500912  0.41972455  0.95825293  1  0  -0.995647  0  1.94854  0  0  -0.896565  0  2.250011  0  0  -0.930353  0  2.214983  0  0  -0.561864  -0.872156  0  2.273613  0
O  O95  1  0.38501523  0.08026714  0.04175077  1  0  -0.995555  0  1.948447  0  0  -0.896476  0  2.249925  0  0  -0.930264  0  2.214889  0  0  -0.561797  -0.872067  0  2.273529  0
O  O96  1  0.28636497  0.38896544  0.15126566  1  0  -0.833126  0  1.887428  0  0  -0.775974  0  2.090812  0  0  -0.797647  0  2.056646  0  0  -0.58086  -0.760831  0  2.114791  0
O  O97  1  0.78636734  0.11104301  0.84873523  1  0  -0.833057  0  1.887492  0  0  -0.77593  0  2.090775  0  0  -0.797605  0  2.056608  0  0  -0.580843  -0.760785  0  2.114749  0
O  O98  1  0.71362317  0.61102955  0.84873202  1  0  -0.833208  0  1.887346  0  0  -0.776011  0  2.090717  0  0  -0.797684  0  2.056553  0  0  -0.580907  -0.760868  0  2.11469  0
O  O99  1  0.21363630  0.88895841  0.15127422  1  0  -0.832895  0  1.887619  0  0  -0.775628  0  2.09101  0  0  -0.797305  0  2.056848  0  0  -0.580706  -0.76048  0  2.114976  0
