# generated using pymatgen
data_CuH27C24(SO)8
_symmetry_space_group_name_H-M   'P 1'
_cell_length_a   9.60932916
_cell_length_b   13.36854417
_cell_length_c   13.46811309
_cell_angle_alpha   92.08626965
_cell_angle_beta   110.59275102
_cell_angle_gamma   109.39055924
_symmetry_Int_Tables_number   1
_chemical_formula_structural   CuH27C24(SO)8
_chemical_formula_sum   'Cu2 H54 C48 S16 O16'
_cell_volume   1504.57032474
_cell_formula_units_Z   2
loop_
 _symmetry_equiv_pos_site_id
 _symmetry_equiv_pos_as_xyz
  1  'x, y, z'
loop_
 _atom_site_type_symbol
 _atom_site_label
 _atom_site_symmetry_multiplicity
 _atom_site_fract_x
 _atom_site_fract_y
 _atom_site_fract_z
 _atom_site_occupancy
 _atom_site_hle17_bader_spin_density
 _atom_site_hle17_ddec_charge
 _atom_site_hle17_ddec_spin_density
 _atom_site_hle17_ddec_sum_bond_order
 _atom_site_hle17_magmom
 _atom_site_hse06_10hf_bader_spin_density
 _atom_site_hse06_10hf_ddec_charge
 _atom_site_hse06_10hf_ddec_spin_density
 _atom_site_hse06_10hf_ddec_sum_bond_order
 _atom_site_hse06_10hf_magmom
 _atom_site_hse06_bader_spin_density
 _atom_site_hse06_ddec_charge
 _atom_site_hse06_ddec_spin_density
 _atom_site_hse06_ddec_sum_bond_order
 _atom_site_hse06_magmom
 _atom_site_pbe_bader_spin_density
 _atom_site_pbe_cm5_charge
 _atom_site_pbe_ddec_charge
 _atom_site_pbe_ddec_spin_density
 _atom_site_pbe_ddec_sum_bond_order
 _atom_site_pbe_magmom
Cu  Cu0  1  0.85550325  0.77499135  0.21638267  1  0  0.067765  0  2.403938  0  0  -0.016748  0  2.913765  0  0  -0.019074  0  2.873569  0  0  0.357322  -0.01329  0  2.939873  0
Cu  Cu1  1  0.14449486  0.22500881  0.78361748  1  0  0.067715  0  2.403896  0  0  -0.016778  0  2.913755  0  0  -0.019138  0  2.873516  0  0  0.357313  -0.013306  0  2.939836  0
H  H2  1  0.96325341  0.56877749  0.54709991  1  0  0.117376  0  0.972798  0  0  0.13994  0  1.029982  0  0  0.140598  0  1.031242  0  0  0.088653  0.13922  0  1.029816  0
H  H3  1  0.03674648  0.43122186  0.45289992  1  0  0.11739  0  0.972781  0  0  0.139945  0  1.029992  0  0  0.140602  0  1.031252  0  0  0.088664  0.139225  0  1.029825  0
H  H4  1  0.05997214  0.50086295  0.64366334  1  0  0.122288  0  0.98485  0  0  0.137798  0  1.053953  0  0  0.139181  0  1.05471  0  0  0.089297  0.136485  0  1.054166  0
H  H5  1  0.94003086  0.49913801  0.35633807  1  0  0.122282  0  0.984893  0  0  0.137829  0  1.053952  0  0  0.139205  0  1.054716  0  0  0.08931  0.136515  0  1.054164  0
H  H6  1  0.96816442  0.58253564  0.68251305  1  0  0.120178  0  0.980275  0  0  0.133045  0  1.049532  0  0  0.135259  0  1.048914  0  0  0.086451  0.131454  0  1.049896  0
H  H7  1  0.03183791  0.41746612  0.31748896  1  0  0.120202  0  0.980274  0  0  0.133068  0  1.049534  0  0  0.135281  0  1.048917  0  0  0.086443  0.131476  0  1.049898  0
H  H8  1  0.38632845  0.64002635  0.26294172  1  0  0.116206  0  0.968047  0  0  0.128672  0  1.039083  0  0  0.130619  0  1.038847  0  0  0.086908  0.127146  0  1.039527  0
H  H9  1  0.61367145  0.35997300  0.73705959  1  0  0.116169  0  0.968098  0  0  0.128645  0  1.039119  0  0  0.130594  0  1.038882  0  0  0.086897  0.127119  0  1.039561  0
H  H10  1  0.30736477  0.56947488  0.12831595  1  0  0.138474  0  0.960054  0  0  0.15679  0  1.018186  0  0  0.158907  0  1.018013  0  0  0.094429  0.155231  0  1.018215  0
H  H11  1  0.69263424  0.43052286  0.87168584  1  0  0.138471  0  0.960084  0  0  0.156793  0  1.018202  0  0  0.158915  0  1.018022  0  0  0.094446  0.15523  0  1.018235  0
H  H12  1  0.49719105  0.57415183  0.22047710  1  0  0.113141  0  0.97065  0  0  0.127623  0  1.040699  0  0  0.128803  0  1.041417  0  0  0.081043  0.126678  0  1.040447  0
H  H13  1  0.50280973  0.42584913  0.77952375  1  0  0.113137  0  0.970646  0  0  0.127615  0  1.040701  0  0  0.128795  0  1.04142  0  0  0.081049  0.126669  0  1.040448  0
H  H14  1  0.65494880  0.37720553  0.23895253  1  0  0.395055  0  0.907657  0  0  0.360513  0  0.991047  0  0  0.37445  0  0.97807  0  0  0.291083  0.350923  0  0.999867  0
H  H15  1  0.34504799  0.62279624  0.76105106  1  0  0.395027  0  0.907688  0  0  0.360506  0  0.991038  0  0  0.374443  0  0.978063  0  0  0.291067  0.350917  0  0.999857  0
H  H16  1  0.96117635  0.70848493  0.45205060  1  0  0.122475  0  0.953597  0  0  0.142957  0  1.012278  0  0  0.144756  0  1.011752  0  0  0.093384  0.141643  0  1.012669  0
H  H17  1  0.03882266  0.29151683  0.54794909  1  0  0.12249  0  0.953562  0  0  0.142973  0  1.012242  0  0  0.144774  0  1.011713  0  0  0.093395  0.141659  0  1.012632  0
H  H18  1  0.76627456  0.60530029  0.38742606  1  0  0.141327  0  0.972299  0  0  0.155915  0  1.03837  0  0  0.158217  0  1.038015  0  0  0.095949  0.154258  0  1.038665  0
H  H19  1  0.23372622  0.39470066  0.61257480  1  0  0.141371  0  0.972218  0  0  0.155958  0  1.038287  0  0  0.158264  0  1.037928  0  0  0.095979  0.154301  0  1.038582  0
H  H20  1  0.81198617  0.69302081  0.50830038  1  0  0.137402  0  0.959606  0  0  0.15197  0  1.022777  0  0  0.153602  0  1.023915  0  0  0.095002  0.150784  0  1.021925  0
H  H21  1  0.18801461  0.30698015  0.49169973  1  0  0.137415  0  0.959597  0  0  0.151976  0  1.022777  0  0  0.153608  0  1.023915  0  0  0.094997  0.150791  0  1.021923  0
H  H22  1  0.33042663  0.92620684  0.43699432  1  0  0.149094  0  0.96697  0  0  0.164025  0  1.027143  0  0  0.166246  0  1.027027  0  0  0.100365  0.162477  0  1.027165  0
H  H23  1  0.66957460  0.07379493  0.56300742  1  0  0.149111  0  0.967013  0  0  0.164047  0  1.027167  0  0  0.166269  0  1.027051  0  0  0.100364  0.162498  0  1.02719  0
H  H24  1  0.26372307  0.83732966  0.31373554  1  0  0.145134  0  0.930178  0  0  0.165022  0  0.98701  0  0  0.166919  0  0.986686  0  0  0.101548  0.163058  0  0.988392  0
H  H25  1  0.73627949  0.16267049  0.68626721  1  0  0.145149  0  0.930233  0  0  0.165047  0  0.987042  0  0  0.166945  0  0.986718  0  0  0.101549  0.163083  0  0.988424  0
H  H26  1  0.17780124  0.79479730  0.41088540  1  0  0.112961  0  0.980759  0  0  0.127591  0  1.051414  0  0  0.129368  0  1.050785  0  0  0.083432  0.126083  0  1.052008  0
H  H27  1  0.82220021  0.20520286  0.58911708  1  0  0.112988  0  0.980758  0  0  0.127614  0  1.051411  0  0  0.129393  0  1.050781  0  0  0.083442  0.126106  0  1.052004  0
H  H28  1  0.84016123  0.75189660  0.96578386  1  0  0.13105  0  0.964321  0  0  0.144652  0  1.032018  0  0  0.146859  0  1.031035  0  0  0.092599  0.142923  0  1.032811  0
H  H29  1  0.15983711  0.24810194  0.03421555  1  0  0.131074  0  0.964339  0  0  0.144667  0  1.032026  0  0  0.146869  0  1.031059  0  0  0.092597  0.142938  0  1.032819  0
H  H30  1  0.80295502  0.87432844  0.96626975  1  0  0.16196  0  0.937389  0  0  0.180769  0  0.991327  0  0  0.183459  0  0.990211  0  0  0.106256  0.178599  0  0.992449  0
H  H31  1  0.19704332  0.12567010  0.03372892  1  0  0.162006  0  0.937365  0  0  0.180793  0  0.991307  0  0  0.183499  0  0.990171  0  0  0.106284  0.178625  0  0.992424  0
H  H32  1  0.65293034  0.75648814  0.87375183  1  0  0.139442  0  0.9585  0  0  0.151909  0  1.024397  0  0  0.154128  0  1.024299  0  0  0.094789  0.150296  0  1.024468  0
H  H33  1  0.34706645  0.24350960  0.12624791  1  0  0.13945  0  0.958561  0  0  0.151917  0  1.024446  0  0  0.154137  0  1.024349  0  0  0.094778  0.150303  0  1.024517  0
H  H34  1  0.96160678  0.51139306  0.08798430  1  0  0.134791  0  0.958981  0  0  0.150719  0  1.020418  0  0  0.152682  0  1.020577  0  0  0.095972  0.149433  0  1.019948  0
H  H35  1  0.03839244  0.48860710  0.91201390  1  0  0.134808  0  0.958928  0  0  0.15073  0  1.020381  0  0  0.152694  0  1.020539  0  0  0.09598  0.149445  0  1.019912  0
H  H36  1  0.10471003  0.63897875  0.16801390  1  0  0.139202  0  0.93949  0  0  0.160708  0  0.99627  0  0  0.162239  0  0.996503  0  0  0.103812  0.159369  0  0.996542  0
H  H37  1  0.89528852  0.36102221  0.83198342  1  0  0.139184  0  0.939466  0  0  0.160673  0  0.996276  0  0  0.162204  0  0.996509  0  0  0.103788  0.159335  0  0.996547  0
H  H38  1  0.96201803  0.63633419  0.03948448  1  0  0.141799  0  0.956127  0  0  0.160254  0  1.012806  0  0  0.16279  0  1.0116  0  0  0.100441  0.158379  0  1.013878  0
H  H39  1  0.03798009  0.36366597  0.96051344  1  0  0.141776  0  0.956176  0  0  0.160266  0  1.012807  0  0  0.162782  0  1.011624  0  0  0.100446  0.15839  0  1.013879  0
H  H40  1  0.63483354  0.77720928  0.62374692  1  0  0.404823  0  0.884007  0  0  0.372024  0  0.964109  0  0  0.385155  0  0.950477  0  0  0.300667  0.362825  0  0.973539  0
H  H41  1  0.36516124  0.22279088  0.37625463  1  0  0.404773  0  0.884125  0  0  0.371969  0  0.964221  0  0  0.385098  0  0.950595  0  0  0.300679  0.362771  0  0.973648  0
H  H42  1  0.83772929  0.12104477  0.33213570  1  0  0.109314  0  0.975971  0  0  0.125973  0  1.040514  0  0  0.126789  0  1.042162  0  0  0.081573  0.125457  0  1.03925  0
H  H43  1  0.16226794  0.87895378  0.66786269  1  0  0.109317  0  0.975991  0  0  0.125973  0  1.040533  0  0  0.126788  0  1.042183  0  0  0.081565  0.125455  0  1.03927  0
H  H44  1  0.83097812  0.21414458  0.23821332  1  0  0.140289  0  0.963275  0  0  0.155789  0  1.024942  0  0  0.158926  0  1.022806  0  0  0.092318  0.153464  0  1.026587  0
H  H45  1  0.16902133  0.78585397  0.76178638  1  0  0.140278  0  0.963275  0  0  0.155786  0  1.024936  0  0  0.158921  0  1.022801  0  0  0.092304  0.153458  0  1.026584  0
H  H46  1  0.01577656  0.19783106  0.31258529  1  0  0.130212  0  0.966814  0  0  0.149029  0  1.026848  0  0  0.15115  0  1.025752  0  0  0.089947  0.147494  0  1.027634  0
H  H47  1  0.98422245  0.80216668  0.68741426  1  0  0.130232  0  0.966776  0  0  0.149052  0  1.026808  0  0  0.151175  0  1.02571  0  0  0.089975  0.147517  0  1.027592  0
H  H48  1  0.38706117  0.04652680  0.25319271  1  0  0.134227  0  0.961091  0  0  0.151094  0  1.020831  0  0  0.153153  0  1.020751  0  0  0.091196  0.150047  0  1.020154  0
H  H49  1  0.61294005  0.95347496  0.74680679  1  0  0.13422  0  0.961091  0  0  0.151084  0  1.020832  0  0  0.153144  0  1.020753  0  0  0.091186  0.150038  0  1.020155  0
H  H50  1  0.59313735  0.12889692  0.29063531  1  0  0.128748  0  0.953851  0  0  0.147793  0  1.012294  0  0  0.149928  0  1.011436  0  0  0.091215  0.146163  0  1.013094  0
H  H51  1  0.40686454  0.87110403  0.70936360  1  0  0.128738  0  0.953861  0  0  0.147801  0  1.012279  0  0  0.149925  0  1.011436  0  0  0.091213  0.146169  0  1.013079  0
H  H52  1  0.53395629  0.04174540  0.37829026  1  0  0.131494  0  0.962423  0  0  0.150642  0  1.023357  0  0  0.15246  0  1.022748  0  0  0.093877  0.149437  0  1.023685  0
H  H53  1  0.46604449  0.95825556  0.62170762  1  0  0.131474  0  0.962453  0  0  0.150614  0  1.023399  0  0  0.152437  0  1.022783  0  0  0.093868  0.149408  0  1.023727  0
H  H54  1  0.20525179  0.75586840  0.00172632  1  0  0.407078  0  0.879458  0  0  0.374135  0  0.963026  0  0  0.386615  0  0.947663  0  0  0.300786  0.365386  0  0.97273  0
H  H55  1  0.79475011  0.24413255  0.99827407  1  0  0.407109  0  0.879411  0  0  0.374164  0  0.962977  0  0  0.386645  0  0.947615  0  0  0.300795  0.365414  0  0.972682  0
C  C56  1  0.62719091  0.46125493  0.53595166  1  0  0.005916  0  3.720947  0  0  0.014178  0  3.976965  0  0  0.015502  0  3.998659  0  0  -0.002419  0.012328  0  3.963098  0
C  C57  1  0.37281476  0.53874683  0.46405119  1  0  0.005837  0  3.721069  0  0  0.014183  0  3.977022  0  0  0.015515  0  3.998705  0  0  -0.00242  0.012315  0  3.963163  0
C  C58  1  0.52268337  0.43768935  0.42711624  1  0  -0.115927  0  3.744102  0  0  -0.109717  0  3.991803  0  0  -0.11425  0  4.01048  0  0  -0.011664  -0.107128  0  3.980069  0
C  C59  1  0.47732097  0.56230999  0.57288693  1  0  -0.115769  0  3.744103  0  0  -0.109601  0  3.991779  0  0  -0.114138  0  4.010459  0  0  -0.01157  -0.107002  0  3.980058  0
C  C60  1  0.39702815  0.47579856  0.39000481  1  0  0.005496  0  3.715347  0  0  0.015462  0  3.969141  0  0  0.015768  0  3.991291  0  0  -0.00189  0.015126  0  3.954872  0
C  C61  1  0.60297774  0.52420159  0.60999879  1  0  0.005346  0  3.71534  0  0  0.015389  0  3.969087  0  0  0.015695  0  3.991245  0  0  -0.001974  0.015023  0  3.954856  0
C  C62  1  0.54730174  0.37217231  0.34616875  1  0  0.654181  0  3.900815  0  0  0.58959  0  4.224261  0  0  0.624406  0  4.212897  0  0  0.227259  0.565907  0  4.231817  0
C  C63  1  0.45270038  0.62782704  0.65383238  1  0  0.65401  0  3.900849  0  0  0.589414  0  4.224324  0  0  0.624229  0  4.212966  0  0  0.227218  0.565732  0  4.231876  0
C  C64  1  0.95938418  0.52832544  0.61573699  1  0  -0.330464  0  3.649598  0  0  -0.402065  0  3.899081  0  0  -0.403679  0  3.906716  0  0  -0.23785  -0.400952  0  3.894605  0
C  C65  1  0.04061727  0.47167472  0.38426326  1  0  -0.330476  0  3.649672  0  0  -0.40211  0  3.899143  0  0  -0.403719  0  3.906785  0  0  -0.237856  -0.400998  0  3.894668  0
C  C66  1  0.37790674  0.57015413  0.21265785  1  0  -0.329626  0  3.645954  0  0  -0.398197  0  3.89951  0  0  -0.400552  0  3.907109  0  0  -0.236841  -0.396411  0  3.894543  0
C  C67  1  0.62209427  0.42984522  0.78734375  1  0  -0.329558  0  3.645979  0  0  -0.398162  0  3.89959  0  0  -0.400523  0  3.907184  0  0  -0.236846  -0.396373  0  3.894625  0
C  C68  1  0.89429376  0.90199784  0.43196972  1  0  -0.003755  0  3.713273  0  0  0.002099  0  3.974196  0  0  0.002184  0  3.996445  0  0  -0.000758  0.002293  0  3.959539  0
C  C69  1  0.10570568  0.09800472  0.56802788  1  0  -0.003826  0  3.713365  0  0  0.002039  0  3.974282  0  0  0.002121  0  3.996532  0  0  -0.000798  0.002236  0  3.959626  0
C  C70  1  0.03290510  0.96127308  0.41494996  1  0  -0.004399  0  3.680786  0  0  0.004142  0  3.935042  0  0  0.003892  0  3.957973  0  0  -2.3e-05  0.003411  0  3.920934  0
C  C71  1  0.96709412  0.03872707  0.58504825  1  0  -0.004424  0  3.680899  0  0  0.00412  0  3.93514  0  0  0.003869  0  3.958072  0  0  -9e-06  0.003392  0  3.921018  0
C  C72  1  0.83339577  0.68710766  0.43406405  1  0  -0.341913  0  3.590308  0  0  -0.413572  0  3.841885  0  0  -0.416488  0  3.848488  0  0  -0.235691  -0.411081  0  3.837  0
C  C73  1  0.16660390  0.31289330  0.56593653  1  0  -0.342011  0  3.590207  0  0  -0.413663  0  3.841775  0  0  -0.416585  0  3.848373  0  0  -0.235732  -0.411172  0  3.836888  0
C  C74  1  0.22719115  0.86345969  0.37553102  1  0  -0.333735  0  3.572099  0  0  -0.407216  0  3.823749  0  0  -0.409512  0  3.829911  0  0  -0.231939  -0.405519  0  3.820357  0
C  C75  1  0.77281031  0.13654047  0.62447146  1  0  -0.333806  0  3.57218  0  0  -0.407304  0  3.82384  0  0  -0.409603  0  3.829998  0  0  -0.231951  -0.405608  0  3.820448  0
C  C76  1  0.57434221  0.61287288  0.02568269  1  0  -0.005172  0  3.692619  0  0  0.00502  0  3.94641  0  0  0.004826  0  3.968752  0  0  -0.001941  0.004987  0  3.931665  0
C  C77  1  0.42565635  0.38712809  0.97431835  1  0  -0.005159  0  3.69259  0  0  0.005059  0  3.946358  0  0  0.004863  0  3.968699  0  0  -0.001896  0.005028  0  3.931609  0
C  C78  1  0.65929685  0.54775628  0.07424787  1  0  -0.006344  0  3.698744  0  0  0.003084  0  3.95322  0  0  0.003042  0  3.975072  0  0  -0.004089  0.002843  0  3.93917  0
C  C79  1  0.34070171  0.45224468  0.92575316  1  0  -0.006298  0  3.698751  0  0  0.003111  0  3.953241  0  0  0.003068  0  3.975092  0  0  -0.004076  0.002871  0  3.939188  0
C  C80  1  0.58567815  0.43504618  0.04690011  1  0  -0.094064  0  3.70771  0  0  -0.087538  0  3.948434  0  0  -0.090961  0  3.968336  0  0  -0.00472  -0.085436  0  3.935522  0
C  C81  1  0.41432108  0.56495397  0.95309958  1  0  -0.094114  0  3.707704  0  0  -0.08756  0  3.948424  0  0  -0.090986  0  3.968327  0  0  -0.004761  -0.085457  0  3.935514  0
C  C82  1  0.67922925  0.36178597  0.08419763  1  0  0.654686  0  3.930253  0  0  0.59575  0  4.246441  0  0  0.629305  0  4.23838  0  0  0.217725  0.572916  0  4.251395  0
C  C83  1  0.32076975  0.63821177  0.91579895  1  0  0.654684  0  3.930199  0  0  0.595754  0  4.246413  0  0  0.629311  0  4.238348  0  0  0.217775  0.572918  0  4.251369  0
C  C84  1  0.74806791  0.78619237  0.95424885  1  0  -0.323134  0  3.540694  0  0  -0.39097  0  3.787035  0  0  -0.393223  0  3.791649  0  0  -0.225485  -0.38921  0  3.784279  0
C  C85  1  0.25192932  0.21380618  0.04575102  1  0  -0.32322  0  3.540783  0  0  -0.391028  0  3.787144  0  0  -0.393297  0  3.791742  0  0  -0.22551  -0.389271  0  3.784386  0
C  C86  1  0.98230394  0.59631740  0.10953567  1  0  -0.31811  0  3.562893  0  0  -0.391958  0  3.810517  0  0  -0.393978  0  3.815957  0  0  -0.224467  -0.390527  0  3.807112  0
C  C87  1  0.01769462  0.40368356  0.89046240  1  0  -0.318088  0  3.562882  0  0  -0.391937  0  3.810493  0  0  -0.393942  0  3.815949  0  0  -0.224463  -0.390505  0  3.807083  0
C  C88  1  0.86177523  0.94053377  0.51638816  1  0  -0.079671  0  3.690415  0  0  -0.072633  0  3.928115  0  0  -0.076796  0  3.948488  0  0  0.000927  -0.070718  0  3.91546  0
C  C89  1  0.13822600  0.05946799  0.48361135  1  0  -0.079675  0  3.690294  0  0  -0.072641  0  3.928039  0  0  -0.076802  0  3.948413  0  0  0.000905  -0.070727  0  3.915386  0
C  C90  1  0.71075391  0.87790637  0.53316807  1  0  0.644343  0  3.877132  0  0  0.591107  0  4.186061  0  0  0.62368  0  4.177695  0  0  0.225354  0.56927  0  4.190688  0
C  C91  1  0.28924687  0.12209458  0.46683204  1  0  0.644467  0  3.876922  0  0  0.591145  0  4.185981  0  0  0.623718  0  4.177616  0  0  0.225421  0.569308  0  4.190609  0
C  C92  1  0.65557193  0.02513686  0.07912984  1  0  -0.004246  0  3.734368  0  0  0.001871  0  3.994561  0  0  0.002937  0  4.016733  0  0  -0.007494  0.000975  0  3.979784  0
C  C93  1  0.34442574  0.97486249  0.92086720  1  0  -0.00425  0  3.734303  0  0  0.0018  0  3.994524  0  0  0.002878  0  4.016686  0  0  -0.00752  0.000911  0  3.979738  0
C  C94  1  0.52079190  0.97690964  0.10506627  1  0  0.007693  0  3.73008  0  0  0.016684  0  3.987487  0  0  0.017531  0  4.00989  0  0  -0.005396  0.015977  0  3.972281  0
C  C95  1  0.47920799  0.02308971  0.89493208  1  0  0.007619  0  3.730003  0  0  0.01668  0  3.987377  0  0  0.017516  0  4.009789  0  0  -0.005451  0.01597  0  3.97217  0
C  C96  1  0.36719297  0.95229248  0.02551308  1  0  -0.119298  0  3.730287  0  0  -0.111497  0  3.971564  0  0  -0.11602  0  3.99058  0  0  -0.013269  -0.10885  0  3.959201  0
C  C97  1  0.63280958  0.04770767  0.97448522  1  0  -0.119268  0  3.730254  0  0  -0.111563  0  3.971612  0  0  -0.116076  0  3.990637  0  0  -0.013278  -0.108912  0  3.959248  0
C  C98  1  0.22139559  0.90274096  0.05245571  1  0  0.642005  0  3.887265  0  0  0.589078  0  4.198821  0  0  0.621774  0  4.189149  0  0  0.222396  0.566444  0  4.205619  0
C  C99  1  0.77860475  0.09725919  0.94754352  1  0  0.642073  0  3.887245  0  0  0.589177  0  4.198785  0  0  0.621857  0  4.189139  0  0  0.222452  0.566542  0  4.205579  0
C  C100  1  0.88569069  0.15710950  0.27360807  1  0  -0.335299  0  3.640165  0  0  -0.403007  0  3.888546  0  0  -0.405002  0  3.895237  0  0  -0.241061  -0.401533  0  3.88379  0
C  C101  1  0.11430876  0.84288904  0.72639088  1  0  -0.335336  0  3.640157  0  0  -0.403043  0  3.888522  0  0  -0.40504  0  3.895216  0  0  -0.241074  -0.401564  0  3.883763  0
C  C102  1  0.51031380  0.05120726  0.29421731  1  0  -0.32291  0  3.612256  0  0  -0.393451  0  3.862001  0  0  -0.394965  0  3.868438  0  0  -0.237244  -0.392425  0  3.857172  0
C  C103  1  0.48968808  0.94879369  0.70578159  1  0  -0.322863  0  3.612271  0  0  -0.393413  0  3.862016  0  0  -0.394914  0  3.86845  0  0  -0.237188  -0.392383  0  3.857185  0
S  S104  1  0.78084176  0.40785256  0.57556834  1  0  -0.001771  0  2.426733  0  0  0.007672  0  2.769423  0  0  0.004461  0  2.770616  0  0  -0.00801  0.011453  0  2.768853  0
S  S105  1  0.21916258  0.59214679  0.42443484  1  0  -0.001754  0  2.426756  0  0  0.007664  0  2.769438  0  0  0.004453  0  2.770624  0  0  -0.008032  0.011449  0  2.768876  0
S  S106  1  0.27621103  0.44625883  0.24984679  1  0  0.014516  0  2.378221  0  0  0.024441  0  2.705775  0  0  0.023205  0  2.706719  0  0  -0.005034  0.02581  0  2.705109  0
S  S107  1  0.72379331  0.55374052  0.75015712  1  0  0.014522  0  2.378228  0  0  0.024435  0  2.705762  0  0  0.023198  0  2.706711  0  0  -0.005023  0.025815  0  2.705107  0
S  S108  1  0.75764785  0.77551865  0.34987655  1  0  0.10479  0  2.813848  0  0  0.11581  0  3.239454  0  0  0.119062  0  3.229718  0  0  -0.004227  0.113246  0  3.245659  0
S  S109  1  0.24235382  0.22448392  0.65012384  1  0  0.104869  0  2.813836  0  0  0.11589  0  3.239436  0  0  0.119154  0  3.229679  0  0  -0.004191  0.113323  0  3.245631  0
S  S110  1  0.07746838  0.91903707  0.30561841  1  0  0.138958  0  2.859228  0  0  0.14946  0  3.295543  0  0  0.154005  0  3.282308  0  0  -0.00032  0.145649  0  3.304212  0
S  S111  1  0.92253329  0.08096147  0.69438184  1  0  0.138991  0  2.859168  0  0  0.149475  0  3.295501  0  0  0.154033  0  3.28224  0  0  -0.000332  0.145662  0  3.304161  0
S  S112  1  0.66064399  0.75696840  0.05466344  1  0  0.110454  0  2.810599  0  0  0.120016  0  3.23633  0  0  0.122722  0  3.226717  0  0  -0.013229  0.117502  0  3.243148  0
S  S113  1  0.33935436  0.24303014  0.94533671  1  0  0.110496  0  2.810549  0  0  0.12005  0  3.236256  0  0  0.122768  0  3.226627  0  0  -0.013224  0.11753  0  3.243066  0
S  S114  1  0.85407852  0.60591908  0.17827252  1  0  0.102066  0  2.792955  0  0  0.123077  0  3.211609  0  0  0.126634  0  3.200271  0  0  -0.005949  0.120367  0  3.21961  0
S  S115  1  0.14592071  0.39408108  0.82172791  1  0  0.102038  0  2.793014  0  0  0.123053  0  3.211674  0  0  0.126624  0  3.200308  0  0  -0.005964  0.120338  0  3.219669  0
S  S116  1  0.85602658  0.05467052  0.16847718  1  0  0.009495  0  2.486189  0  0  0.014538  0  2.842245  0  0  0.010809  0  2.842801  0  0  -0.008043  0.018325  0  2.840673  0
S  S117  1  0.14397020  0.94532721  0.83151958  1  0  0.009549  0  2.486114  0  0  0.014599  0  2.842196  0  0  0.010866  0  2.842748  0  0  -0.00801  0.018379  0  2.84062  0
S  S118  1  0.54110533  0.94092681  0.23373722  1  0  -0.022928  0  2.459513  0  0  -0.020879  0  2.817734  0  0  -0.024567  0  2.820199  0  0  -0.023263  -0.017293  0  2.815675  0
S  S119  1  0.45889168  0.05907334  0.76625969  1  0  -0.022875  0  2.459429  0  0  -0.020827  0  2.817624  0  0  -0.024519  0  2.820096  0  0  -0.023237  -0.017244  0  2.815565  0
O  O120  1  0.63809438  0.42844885  0.30034874  1  0  -0.566388  0  2.14045  0  0  -0.511747  0  2.379542  0  0  -0.537624  0  2.369938  0  0  -0.310305  -0.494173  0  2.386679  0
O  O121  1  0.36190640  0.57155211  0.69965212  1  0  -0.56633  0  2.140456  0  0  -0.511656  0  2.37949  0  0  -0.537533  0  2.369892  0  0  -0.310292  -0.494081  0  2.386624  0
O  O122  1  0.48311463  0.27187584  0.32664161  1  0  -0.548049  0  2.031602  0  0  -0.493057  0  2.254961  0  0  -0.516335  0  2.245608  0  0  -0.270897  -0.476601  0  2.260777  0
O  O123  1  0.51688325  0.72812593  0.67335707  1  0  -0.548016  0  2.031473  0  0  -0.493045  0  2.254857  0  0  -0.516323  0  2.245502  0  0  -0.27091  -0.476588  0  2.260672  0
O  O124  1  0.69128133  0.32752334  0.17303549  1  0  -0.567737  0  2.048842  0  0  -0.511406  0  2.271984  0  0  -0.536904  0  2.262797  0  0  -0.300151  -0.493765  0  2.277786  0
O  O125  1  0.30871012  0.67247279  0.82695914  1  0  -0.567667  0  2.048755  0  0  -0.511385  0  2.27193  0  0  -0.536884  0  2.262742  0  0  -0.30014  -0.493743  0  2.277734  0
O  O126  1  0.73795009  0.33939748  0.02053969  1  0  -0.590548  0  1.993738  0  0  -0.536417  0  2.218875  0  0  -0.561947  0  2.21082  0  0  -0.294264  -0.518553  0  2.223464  0
O  O127  1  0.26204513  0.66060348  0.97945680  1  0  -0.590517  0  1.993696  0  0  -0.536392  0  2.218847  0  0  -0.56192  0  2.210789  0  0  -0.294278  -0.51854  0  2.223459  0
O  O128  1  0.73255833  0.81035589  0.60149313  1  0  -0.553729  0  2.123335  0  0  -0.500865  0  2.345014  0  0  -0.524805  0  2.33268  0  0  -0.322051  -0.484144  0  2.352776  0
O  O129  1  0.26744734  0.18964990  0.39851283  1  0  -0.553767  0  2.123347  0  0  -0.500838  0  2.345043  0  0  -0.524779  0  2.33271  0  0  -0.322108  -0.484118  0  2.352804  0
O  O130  1  0.58534883  0.89232413  0.48801263  1  0  -0.524266  0  1.946803  0  0  -0.480963  0  2.163961  0  0  -0.502034  0  2.158095  0  0  -0.27312  -0.466172  0  2.167242  0
O  O131  1  0.41465062  0.10767442  0.51198854  1  0  -0.524292  0  1.946787  0  0  -0.480989  0  2.164032  0  0  -0.502056  0  2.158168  0  0  -0.273134  -0.466197  0  2.167314  0
O  O132  1  0.15019824  0.79577619  0.03042781  1  0  -0.565998  0  2.151551  0  0  -0.516588  0  2.382245  0  0  -0.539435  0  2.365847  0  0  -0.334202  -0.500558  0  2.392515  0
O  O133  1  0.84980655  0.20422396  0.96957550  1  0  -0.566067  0  2.151525  0  0  -0.516663  0  2.38222  0  0  -0.539501  0  2.365822  0  0  -0.334256  -0.500648  0  2.392521  0
O  O134  1  0.16958985  0.95848726  0.09274110  1  0  -0.518434  0  1.937113  0  0  -0.479943  0  2.153751  0  0  -0.500861  0  2.147145  0  0  -0.276659  -0.465182  0  2.157544  0
O  O135  1  0.83041359  0.04151450  0.90725970  1  0  -0.518423  0  1.937024  0  0  -0.479944  0  2.15366  0  0  -0.500856  0  2.14706  0  0  -0.276655  -0.465184  0  2.157453  0
