# generated using pymatgen
data_NdH8(CO)9
_symmetry_space_group_name_H-M   'P 1'
_cell_length_a   7.81765288
_cell_length_b   8.52312437
_cell_length_c   9.69707931
_cell_angle_alpha   68.36847581
_cell_angle_beta   76.55776157
_cell_angle_gamma   76.22307014
_symmetry_Int_Tables_number   1
_chemical_formula_structural   NdH8(CO)9
_chemical_formula_sum   'Nd2 H16 C18 O18'
_cell_volume   575.80196249
_cell_formula_units_Z   2
loop_
 _symmetry_equiv_pos_site_id
 _symmetry_equiv_pos_as_xyz
  1  'x, y, z'
loop_
 _atom_site_type_symbol
 _atom_site_label
 _atom_site_symmetry_multiplicity
 _atom_site_fract_x
 _atom_site_fract_y
 _atom_site_fract_z
 _atom_site_occupancy
 _atom_site_hle17_bader_spin_density
 _atom_site_hle17_ddec_charge
 _atom_site_hle17_ddec_spin_density
 _atom_site_hle17_ddec_sum_bond_order
 _atom_site_hle17_magmom
 _atom_site_hse06_10hf_bader_spin_density
 _atom_site_hse06_10hf_ddec_charge
 _atom_site_hse06_10hf_ddec_spin_density
 _atom_site_hse06_10hf_ddec_sum_bond_order
 _atom_site_hse06_10hf_magmom
 _atom_site_hse06_bader_spin_density
 _atom_site_hse06_ddec_charge
 _atom_site_hse06_ddec_spin_density
 _atom_site_hse06_ddec_sum_bond_order
 _atom_site_hse06_magmom
 _atom_site_pbe_bader_spin_density
 _atom_site_pbe_cm5_charge
 _atom_site_pbe_ddec_charge
 _atom_site_pbe_ddec_spin_density
 _atom_site_pbe_ddec_sum_bond_order
 _atom_site_pbe_magmom
Nd  Nd0  1  0.25205916  0.27509078  0.45240874  1  0  2.333353  0  1.620095  0  0  2.226361  0  1.990611  0  0  2.266067  0  1.946362  0  0  1.485685  2.144002  0  2.120652  0
Nd  Nd1  1  0.74794356  0.72490548  0.54759313  1  0  2.333271  0  1.620173  0  0  2.226276  0  1.99069  0  0  2.26598  0  1.94645  0  0  1.485719  2.143882  0  2.120805  0
H  H2  1  0.01297711  0.31330409  0.23092875  1  0  0.426299  0  0.873397  0  0  0.394022  0  0.938756  0  0  0.404699  0  0.922991  0  0  0.305616  0.386759  0  0.949203  0
H  H3  1  0.98703404  0.68668838  0.76906845  1  0  0.426226  0  0.873508  0  0  0.393968  0  0.938842  0  0  0.40464  0  0.923084  0  0  0.30557  0.386706  0  0.949285  0
H  H4  1  0.88711719  0.38698570  0.35883215  1  0  0.437236  0  0.862753  0  0  0.404368  0  0.929408  0  0  0.416457  0  0.911628  0  0  0.303248  0.395806  0  0.941771  0
H  H5  1  0.11288792  0.61301066  0.64116197  1  0  0.437182  0  0.862794  0  0  0.404365  0  0.929392  0  0  0.416423  0  0.911641  0  0  0.303252  0.395808  0  0.941752  0
H  H6  1  0.84254437  0.59759325  0.02219607  1  0  0.408604  0  0.790781  0  0  0.394381  0  0.839203  0  0  0.402069  0  0.831137  0  0  0.351942  0.388863  0  0.845198  0
H  H7  1  0.15746774  0.40240942  0.97780181  1  0  0.408591  0  0.790861  0  0  0.394422  0  0.839207  0  0  0.402117  0  0.831135  0  0  0.351923  0.388902  0  0.845203  0
H  H8  1  0.68745281  0.74222304  0.19110734  1  0  0.121855  0  0.968711  0  0  0.128173  0  1.036522  0  0  0.132325  0  1.03334  0  0  0.112703  0.125286  0  1.038464  0
H  H9  1  0.31254713  0.25777975  0.80888271  1  0  0.121882  0  0.968636  0  0  0.128156  0  1.036514  0  0  0.13231  0  1.033329  0  0  0.112692  0.125266  0  1.038456  0
H  H10  1  0.99020935  0.97616028  0.75927890  1  0  0.124447  0  0.958483  0  0  0.134264  0  1.021522  0  0  0.137905  0  1.01879  0  0  0.119612  0.131754  0  1.023149  0
H  H11  1  0.00979578  0.02385140  0.24071342  1  0  0.124518  0  0.958438  0  0  0.134299  0  1.021508  0  0  0.13793  0  1.018778  0  0  0.119651  0.131792  0  1.023146  0
H  H12  1  0.63658046  0.29197983  0.00203289  1  0  0.12204  0  0.925298  0  0  0.130454  0  0.986831  0  0  0.135416  0  0.982122  0  0  0.113503  0.126578  0  0.990872  0
H  H13  1  0.36340754  0.70801771  0.99797058  1  0  0.121984  0  0.925245  0  0  0.130418  0  0.986765  0  0  0.135389  0  0.982046  0  0  0.113522  0.126537  0  0.990808  0
H  H14  1  0.32689287  0.91497498  0.48267373  1  0  0.426952  0  0.879199  0  0  0.39497  0  0.945672  0  0  0.406171  0  0.929229  0  0  0.298883  0.387442  0  0.956343  0
H  H15  1  0.67309697  0.08502765  0.51733083  1  0  0.426876  0  0.879265  0  0  0.394874  0  0.945777  0  0  0.406079  0  0.929328  0  0  0.298845  0.387342  0  0.956457  0
H  H16  1  0.13042285  0.88682486  0.57016232  1  0  0.450988  0  0.838113  0  0  0.425653  0  0.891181  0  0  0.435852  0  0.876298  0  0  0.303012  0.417943  0  0.902387  0
H  H17  1  0.86958385  0.11317139  0.42983976  1  0  0.450875  0  0.83823  0  0  0.425562  0  0.891262  0  0  0.435758  0  0.876378  0  0  0.302963  0.417852  0  0.902468  0
C  C18  1  0.52992738  0.03155516  0.25206734  1  0  0.714619  0  3.848437  0  0  0.667189  0  4.140029  0  0  0.702417  0  4.128857  0  0  0.239353  0.643255  0  4.142513  0
C  C19  1  0.47006108  0.96843982  0.74793685  1  0  0.714611  0  3.848702  0  0  0.667083  0  4.140411  0  0  0.702309  0  4.129235  0  0  0.2393  0.64316  0  4.142878  0
C  C20  1  0.65027053  0.01853147  0.11088376  1  0  -0.052335  0  3.768307  0  0  -0.026518  0  4.005436  0  0  -0.035135  0  4.029825  0  0  -0.011464  -0.021321  0  3.989655  0
C  C21  1  0.34972844  0.98146879  0.88910419  1  0  -0.052376  0  3.768246  0  0  -0.026529  0  4.005392  0  0  -0.035149  0  4.02978  0  0  -0.011474  -0.021331  0  3.989598  0
C  C22  1  0.72264740  0.85607683  0.09919575  1  0  -0.185048  0  3.705862  0  0  -0.222901  0  3.964029  0  0  -0.224323  0  3.98258  0  0  -0.086806  -0.221462  0  3.951465  0
C  C23  1  0.27735145  0.14391701  0.90079634  1  0  -0.185012  0  3.705442  0  0  -0.222836  0  3.963601  0  0  -0.224256  0  3.98214  0  0  -0.086735  -0.221395  0  3.951036  0
C  C24  1  0.84127710  0.84175389  0.97144587  1  0  0.320219  0  3.801256  0  0  0.312675  0  4.071335  0  0  0.319786  0  4.088824  0  0  0.081512  0.307225  0  4.060285  0
C  C25  1  0.15870697  0.15824483  0.02856525  1  0  0.320278  0  3.801132  0  0  0.312756  0  4.071216  0  0  0.319887  0  4.088683  0  0  0.081513  0.307295  0  4.060174  0
C  C26  1  0.89335632  0.98660578  0.85732374  1  0  -0.150436  0  3.663222  0  0  -0.186191  0  3.911745  0  0  -0.187245  0  3.931427  0  0  -0.079715  -0.185444  0  3.899209  0
C  C27  1  0.10663834  0.01340707  0.14267862  1  0  -0.150602  0  3.663601  0  0  -0.186357  0  3.912211  0  0  -0.187403  0  3.931873  0  0  -0.07988  -0.185627  0  3.899722  0
C  C28  1  0.81926838  0.14877487  0.86842513  1  0  -0.058056  0  3.752521  0  0  -0.030362  0  3.984103  0  0  -0.03921  0  4.008608  0  0  -0.013633  -0.025286  0  3.969399  0
C  C29  1  0.18072880  0.85123155  0.13158083  1  0  -0.058034  0  3.752578  0  0  -0.030308  0  3.984119  0  0  -0.039159  0  4.008624  0  0  -0.01352  -0.025229  0  3.969417  0
C  C30  1  0.69500008  0.16560258  0.99404979  1  0  -0.071409  0  3.677755  0  0  -0.114668  0  3.931216  0  0  -0.112633  0  3.949707  0  0  -0.077728  -0.116047  0  3.920142  0
C  C31  1  0.30498325  0.83440001  0.00595819  1  0  -0.07132  0  3.67748  0  0  -0.114612  0  3.930976  0  0  -0.112582  0  3.949462  0  0  -0.077729  -0.115984  0  3.919891  0
C  C32  1  0.87395186  0.30370226  0.74280099  1  0  0.727628  0  3.855648  0  0  0.679786  0  4.149937  0  0  0.715176  0  4.138225  0  0  0.235761  0.655511  0  4.153851  0
C  C33  1  0.12604824  0.69631052  0.25720542  1  0  0.727787  0  3.85556  0  0  0.67998  0  4.149755  0  0  0.715371  0  4.138041  0  0  0.235754  0.655694  0  4.153691  0
C  C34  1  0.42504007  0.52776205  0.55871729  1  0  0.567377  0  3.894238  0  0  0.524637  0  4.191114  0  0  0.554212  0  4.181823  0  0  0.223779  0.504684  0  4.192551  0
C  C35  1  0.57497692  0.47223309  0.44126960  1  0  0.567544  0  3.894008  0  0  0.524604  0  4.191121  0  0  0.554152  0  4.181871  0  0  0.223816  0.50465  0  4.192558  0
O  O36  1  0.42519264  0.17064553  0.24958288  1  0  -0.697218  0  1.972204  0  0  -0.654639  0  2.217719  0  0  -0.677145  0  2.204446  0  0  -0.382897  -0.632041  0  2.227948  0
O  O37  1  0.57479109  0.82935332  0.75041796  1  0  -0.697133  0  1.972299  0  0  -0.654505  0  2.217815  0  0  -0.67703  0  2.204584  0  0  -0.382845  -0.631911  0  2.228041  0
O  O38  1  0.20984984  0.97375394  0.52083165  1  0  -0.933122  0  1.843044  0  0  -0.889925  0  2.033456  0  0  -0.907344  0  1.999878  0  0  -0.65138  -0.870909  0  2.060169  0
O  O39  1  0.79015386  0.02622950  0.47917513  1  0  -0.932954  0  1.843044  0  0  -0.889785  0  2.033504  0  0  -0.907193  0  1.999935  0  0  -0.651334  -0.870751  0  2.060199  0
O  O40  1  0.53938514  0.89816852  0.37099564  1  0  -0.783236  0  2.081226  0  0  -0.727593  0  2.328207  0  0  -0.753452  0  2.315893  0  0  -0.391201  -0.701529  0  2.335372  0
O  O41  1  0.46061383  0.10182647  0.62900637  1  0  -0.783283  0  2.08124  0  0  -0.727583  0  2.32823  0  0  -0.753443  0  2.315916  0  0  -0.39119  -0.701529  0  2.335389  0
O  O42  1  0.98283594  0.29072307  0.34074803  1  0  -0.902191  0  1.921698  0  0  -0.851159  0  2.10931  0  0  -0.870754  0  2.075355  0  0  -0.616068  -0.831118  0  2.135039  0
O  O43  1  0.01717163  0.70926807  0.65925447  1  0  -0.902048  0  1.921775  0  0  -0.851086  0  2.109281  0  0  -0.87065  0  2.075412  0  0  -0.616043  -0.831045  0  2.134994  0
O  O44  1  0.91508118  0.68316936  0.95522126  1  0  -0.532611  0  2.119169  0  0  -0.47563  0  2.321123  0  0  -0.492169  0  2.310498  0  0  -0.338462  -0.463963  0  2.328325  0
O  O45  1  0.08492283  0.31684105  0.04477066  1  0  -0.532616  0  2.119154  0  0  -0.475692  0  2.321073  0  0  -0.492266  0  2.310462  0  0  -0.338434  -0.464014  0  2.328276  0
O  O46  1  0.99901118  0.27986578  0.63796743  1  0  -0.767521  0  2.052285  0  0  -0.723782  0  2.324784  0  0  -0.747374  0  2.309529  0  0  -0.421748  -0.697831  0  2.334484  0
O  O47  1  0.00100245  0.72014687  0.36204758  1  0  -0.767492  0  2.052258  0  0  -0.723753  0  2.324726  0  0  -0.747345  0  2.309472  0  0  -0.421714  -0.697798  0  2.334445  0
O  O48  1  0.79159224  0.45032690  0.74584233  1  0  -0.733664  0  2.00268  0  0  -0.690635  0  2.251381  0  0  -0.713673  0  2.237478  0  0  -0.39608  -0.667534  0  2.261927  0
O  O49  1  0.20839521  0.54967563  0.25416998  1  0  -0.733867  0  2.002566  0  0  -0.690878  0  2.251288  0  0  -0.713919  0  2.237378  0  0  -0.396192  -0.66778  0  2.261844  0
O  O50  1  0.27604202  0.47867964  0.57870550  1  0  -0.689069  0  2.120635  0  0  -0.638259  0  2.360155  0  0  -0.662434  0  2.349263  0  0  -0.352884  -0.615588  0  2.367442  0
O  O51  1  0.72397654  0.52131422  0.42128251  1  0  -0.689057  0  2.120511  0  0  -0.638185  0  2.360133  0  0  -0.662365  0  2.349266  0  0  -0.352916  -0.615511  0  2.367419  0
O  O52  1  0.45761396  0.61567856  0.62558119  1  0  -0.625754  0  2.03656  0  0  -0.584676  0  2.269581  0  0  -0.60564  0  2.25991  0  0  -0.354557  -0.565018  0  2.277403  0
O  O53  1  0.54239461  0.38432037  0.37441036  1  0  -0.625778  0  2.036391  0  0  -0.584647  0  2.269506  0  0  -0.605605  0  2.259848  0  0  -0.354496  -0.564996  0  2.277328  0
