# generated using pymatgen
data_AlH7C15ClO7
_symmetry_space_group_name_H-M   'P 1'
_cell_length_a   6.56952800
_cell_length_b   11.14336768
_cell_length_c   17.58050683
_cell_angle_alpha   83.96441158
_cell_angle_beta   81.74661822
_cell_angle_gamma   72.53254088
_symmetry_Int_Tables_number   1
_chemical_formula_structural   AlH7C15ClO7
_chemical_formula_sum   'Al2 H14 C30 Cl2 O14'
_cell_volume   1212.32008255
_cell_formula_units_Z   2
loop_
 _symmetry_equiv_pos_site_id
 _symmetry_equiv_pos_as_xyz
  1  'x, y, z'
loop_
 _atom_site_type_symbol
 _atom_site_label
 _atom_site_symmetry_multiplicity
 _atom_site_fract_x
 _atom_site_fract_y
 _atom_site_fract_z
 _atom_site_occupancy
 _atom_site_pbe_bader_charge
 _atom_site_pbe_bader_spin_density
 _atom_site_pbe_cm5_charge
 _atom_site_pbe_ddec_charge
 _atom_site_pbe_ddec_spin_density
 _atom_site_pbe_ddec_sum_bond_order
 _atom_site_pbe_magmom
Al  Al0  1  0.48500074  0.49293316  0.50440251  1  2.501248  0  0.394077  1.632594  0  2.592682  0
Al  Al1  1  0.98554813  0.49595343  0.50018504  1  2.499155  0  0.392342  1.626758  0  2.590505  0
H  H2  1  0.29023078  0.34126696  0.54271425  1  0.610043  0  0.354362  0.431658  0  0.854166  0
H  H3  1  0.73332232  0.55342405  0.40808742  1  0.611605  0  0.347774  0.418927  0  0.877304  0
H  H4  1  0.57356782  0.60523033  0.27656372  1  0.076301  0  0.107705  0.112021  0  1.000313  0
H  H5  1  0.65884841  0.61416347  0.13401913  1  0.081462  0  0.11119  0.118411  0  0.987165  0
H  H6  1  0.08106918  0.42980022  0.25911527  1  0.107451  0  0.112485  0.127413  0  0.993594  0
H  H7  1  0.90120268  0.59604065  0.72863706  1  0.100117  0  0.114355  0.133942  0  0.987076  0
H  H8  1  0.39832714  0.41933528  0.73585870  1  0.122741  0  0.113687  0.123032  0  0.986186  0
H  H9  1  0.33433134  0.42678339  0.87945193  1  0.103683  0  0.107775  0.115008  0  0.994359  0
H  H10  1  0.19685225  0.23329991  0.39171489  1  0.116545  0  0.112611  0.125275  0  1.015632  0
H  H11  1  0.47055217  0.76570923  0.42592990  1  0.1101  0  0.112746  0.117194  0  1.052211  0
H  H12  1  0.75467355  0.87206124  0.55878688  1  0.069683  0  0.115002  0.122015  0  0.977238  0
H  H13  1  0.63332900  0.10764201  0.55292017  1  0.100265  0  0.112463  0.114175  0  0.982615  0
H  H14  1  0.38149934  0.14553521  0.22908779  1  0.629463  0  0.346237  0.382991  0  0.852636  0
H  H15  1  0.83875055  0.74969411  0.40498787  1  0.644078  0  0.318161  0.360039  0  0.943965  0
C  C16  1  0.84647523  0.26701204  0.49282678  1  1.607562  0  0.273187  0.654775  0  4.077449  0
C  C17  1  0.69177675  0.50090384  0.63909135  1  1.553741  0  0.269797  0.638819  0  4.09879  0
C  C18  1  0.13240834  0.72148110  0.50588099  1  1.542149  0  0.274719  0.645759  0  4.075568  0
C  C19  1  0.28006427  0.50594415  0.36181010  1  1.519036  0  0.268096  0.645851  0  4.080437  0
C  C20  1  0.32390136  0.51558739  0.27668558  1  0.047706  0  -0.010523  -0.0242  0  3.968439  0
C  C21  1  0.48623804  0.56799380  0.24130085  1  -0.003445  0  -0.07732  -0.081322  0  3.96271  0
C  C22  1  0.53374424  0.57330307  0.16197193  1  0.025894  0  -0.070786  -0.098798  0  3.92954  0
C  C23  1  0.42351939  0.52377135  0.11556648  1  0.121021  0  0.006517  0.089441  0  4.074599  0
C  C24  1  0.25840040  0.47261098  0.15226316  1  0.08829  0  0.025831  0.114519  0  3.98814  0
C  C25  1  0.20743254  0.47002175  0.23175254  1  0.038734  0  -0.081811  -0.149164  0  3.963929  0
C  C26  1  0.47963456  0.52444027  0.03517294  1  -0.110571  0  -0.034486  -0.074859  0  4.112224  0
C  C27  1  0.53122612  0.52412341  0.96566981  1  -0.206965  0  -0.040611  -0.089644  0  4.121555  0
C  C28  1  0.57624694  0.51892182  0.88509659  1  0.072434  0  0.002457  0.087698  0  4.082363  0
C  C29  1  0.73638847  0.56730954  0.84126832  1  0.069074  0  0.021473  0.106882  0  4.002835  0
C  C30  1  0.77632068  0.55994324  0.76178402  1  0.050632  0  -0.084499  -0.159321  0  3.959488  0
C  C31  1  0.65319579  0.50696721  0.72406219  1  0.026662  0  -0.01335  -0.032019  0  3.991109  0
C  C32  1  0.49256823  0.45965219  0.76634875  1  -0.077228  0  -0.082282  -0.09625  0  3.98804  0
C  C33  1  0.45679891  0.46416340  0.84567293  1  -0.008862  0  -0.076466  -0.105877  0  3.947649  0
C  C34  1  0.92485370  0.12726355  0.48864006  1  -0.03722  0  0.003091  -0.062664  0  3.910268  0
C  C35  1  0.13078664  0.06495616  0.45000741  1  -0.020158  0  0.010098  0.074807  0  3.933168  0
C  C36  1  0.79226286  0.05800398  0.52593038  1  0.082938  0  -0.072943  -0.078269  0  3.979032  0
C  C37  1  0.25591864  0.13096837  0.39936713  1  0.027851  0  -0.077504  -0.139304  0  3.9143  0
C  C38  1  0.44662001  0.06767205  0.35825045  1  -0.047419  0  -0.00769  -0.063682  0  3.997752  0
C  C39  1  0.06664485  0.86197061  0.49891524  1  -0.04457  0  -0.00397  -0.07793  0  3.939002  0
C  C40  1  0.86118730  0.92568902  0.52997047  1  -0.041872  0  -0.077955  -0.096809  0  3.994752  0
C  C41  1  0.20640999  0.92974276  0.45775249  1  -0.001822  0  0.006336  0.068394  0  3.940195  0
C  C42  1  0.41034262  0.86793891  0.41892484  1  -0.011097  0  -0.079197  -0.138704  0  3.926323  0
C  C43  1  0.52794358  0.93420111  0.36968087  1  -0.035742  0  -0.014761  -0.074319  0  4.020116  0
C  C44  1  0.57069142  0.14170371  0.30378505  1  1.556997  0  0.23592  0.589805  0  4.119781  0
C  C45  1  0.72201950  0.86620914  0.31856964  1  1.542657  0  0.228315  0.574387  0  4.128977  0
Cl  Cl46  1  0.12112381  0.40981528  0.09799798  1  -0.204017  0  0.002634  -0.072519  0  1.483788  0
Cl  Cl47  1  0.88343526  0.63633044  0.88730238  1  -0.192457  0  -0.000964  -0.07447  0  1.483471  0
O  O48  1  0.64837241  0.32041034  0.48713801  1  -1.262134  0  -0.232712  -0.591521  0  2.341582  0
O  O49  1  0.85993049  0.52465295  0.60358089  1  -1.264165  0  -0.233013  -0.57569  0  2.332362  0
O  O50  1  0.99485388  0.66924756  0.49081650  1  -1.253834  0  -0.227059  -0.591625  0  2.378827  0
O  O51  1  0.41864809  0.52536291  0.39937983  1  -1.2761  0  -0.241646  -0.617013  0  2.386402  0
O  O52  1  0.31698336  0.66289630  0.52493761  1  -1.251277  0  -0.224441  -0.557631  0  2.326778  0
O  O53  1  0.10920783  0.47932862  0.39299031  1  -1.264581  0  -0.244395  -0.605305  0  2.341246  0
O  O54  1  0.98225690  0.32187039  0.50551796  1  -1.259921  0  -0.236559  -0.609307  0  2.354432  0
O  O55  1  0.55393850  0.47083700  0.60667990  1  -1.268214  0  -0.234975  -0.594679  0  2.357895  0
O  O56  1  0.25134365  0.43247988  0.53531075  1  -1.411578  0  -0.4471  -0.983238  0  2.200911  0
O  O57  1  0.71919457  0.55225133  0.46400803  1  -1.415846  0  -0.450791  -0.98754  0  2.215472  0
O  O58  1  0.49200249  0.18482515  0.23561494  1  -1.109391  0  -0.324226  -0.467693  0  2.246897  0
O  O59  1  0.72460737  0.16850613  0.32029870  1  -1.110265  0  -0.278742  -0.450257  0  2.060112  0
O  O60  1  0.85818370  0.76051476  0.34808421  1  -1.156286  0  -0.337155  -0.47984  0  2.292404  0
O  O61  1  0.75269034  0.90137014  0.25088394  1  -1.110282  0  -0.281514  -0.451125  0  2.046057  0
