# generated using pymatgen
data_CuH42C32(N3O4)2
_symmetry_space_group_name_H-M   'P 1'
_cell_length_a   6.75767332
_cell_length_b   10.84778872
_cell_length_c   11.38025864
_cell_angle_alpha   86.05083678
_cell_angle_beta   87.24713894
_cell_angle_gamma   78.87770730
_symmetry_Int_Tables_number   1
_chemical_formula_structural   CuH42C32(N3O4)2
_chemical_formula_sum   'Cu1 H42 C32 N6 O8'
_cell_volume   816.11200815
_cell_formula_units_Z   1
loop_
 _symmetry_equiv_pos_site_id
 _symmetry_equiv_pos_as_xyz
  1  'x, y, z'
loop_
 _atom_site_type_symbol
 _atom_site_label
 _atom_site_symmetry_multiplicity
 _atom_site_fract_x
 _atom_site_fract_y
 _atom_site_fract_z
 _atom_site_occupancy
 _atom_site_hle17_ddec_charge
 _atom_site_hle17_ddec_spin_density
 _atom_site_hle17_ddec_sum_bond_order
 _atom_site_hle17_magmom
 _atom_site_hse06_10hf_ddec_charge
 _atom_site_hse06_10hf_ddec_spin_density
 _atom_site_hse06_10hf_ddec_sum_bond_order
 _atom_site_hse06_10hf_magmom
 _atom_site_hse06_ddec_charge
 _atom_site_hse06_ddec_spin_density
 _atom_site_hse06_ddec_sum_bond_order
 _atom_site_hse06_magmom
 _atom_site_pbe_cm5_charge
 _atom_site_pbe_ddec_charge
 _atom_site_pbe_ddec_spin_density
 _atom_site_pbe_ddec_sum_bond_order
 _atom_site_pbe_magmom
Cu  Cu0  1  0.99997517  0.00001720  0.99998438  1  0.811369  0.841098  1.833021  0.495  0.784825  0.970483  2.218318  0.604  0.87611  1.092806  2.146351  0.685  0.744284  0.731719  0.892473  2.265452  0.553
H  H1  1  0.93187753  0.08764338  0.56650207  1  0.117437  -0.001008  0.980471  -0.001  0.123518  8.6e-05  1.047042  0.0  0.12726  -4e-05  1.044917  0.0  0.11206  0.12061  0.000173  1.049019  0.0
H  H2  1  0.06804253  0.91225478  0.43347320  1  0.117267  0.001539  0.980793  0.002  0.123324  0.000692  1.047413  0.001  0.127059  0.000496  1.045275  0.001  0.111926  0.120448  0.000834  1.049348  0.001
H  H3  1  0.09785648  0.00720702  0.75207437  1  0.09373  0.001533  0.951502  0.003  0.095944  0.001187  1.02372  0.001  0.099217  0.000778  1.019677  0.001  0.12007  0.093223  0.001477  1.027063  0.002
H  H4  1  0.90224431  0.99296457  0.24794871  1  0.093763  0.000675  0.951651  0.001  0.095995  0.000751  1.023815  0.001  0.099256  0.000639  1.019794  0.001  0.120052  0.093281  0.000867  1.02715  0.001
H  H5  1  0.57736713  0.13946773  0.95166191  1  0.100392  0.001677  0.927853  0.003  0.107985  0.001026  0.989687  0.002  0.110533  0.000702  0.987009  0.001  0.125571  0.105824  0.001263  0.992  0.002
H  H6  1  0.42263720  0.86056527  0.04833887  1  0.100278  0.00074  0.927653  0.001  0.107886  0.001119  0.989492  0.001  0.110444  0.000894  0.986798  0.001  0.125551  0.105721  0.001318  0.991819  0.002
H  H7  1  0.39079427  0.22820266  0.77513940  1  0.130133  -0.001189  0.955892  -0.001  0.135215  -9e-05  1.020642  0.0  0.139847  -0.000217  1.017287  0.0  0.11407  0.131712  -1e-05  1.023365  0.0
H  H8  1  0.60923816  0.77189341  0.22485107  1  0.130261  0.00183  0.955876  0.002  0.135212  0.001028  1.020674  0.001  0.139916  0.000819  1.017247  0.001  0.114168  0.131683  0.001189  1.02342  0.001
H  H9  1  0.68088211  0.38859366  0.35227846  1  0.118558  0.001027  0.963441  0.001  0.133363  0.000693  1.03218  0.0  0.135507  0.000619  1.03161  0.0  0.091071  0.131769  0.000753  1.032613  0.0
H  H10  1  0.31926628  0.61135260  0.64767005  1  0.118619  -0.001308  0.963766  -0.001  0.133485  -0.001127  1.032401  0.0  0.13563  -0.001054  1.031829  0.0  0.09116  0.131909  -0.001177  1.03282  0.0
H  H11  1  0.56014492  0.39472816  0.21654919  1  0.119162  -0.000557  0.940003  0.0  0.146713  -0.000906  0.99021  -0.001  0.147502  -0.00097  0.991347  -0.001  0.097841  0.145975  -0.000877  0.989648  -0.001
H  H12  1  0.43984606  0.60522291  0.78345314  1  0.119141  0.000413  0.93987  0.0  0.146615  0.000717  0.990183  0.001  0.14746  0.000769  0.991244  0.001  0.097711  0.145881  0.000697  0.989613  0.001
H  H13  1  0.76608380  0.27078119  0.24735453  1  0.124968  0.00113  0.969464  0.001  0.141814  0.000682  1.036517  0.0  0.144898  0.000705  1.034766  0.001  0.094093  0.139565  0.000695  1.037809  0.0
H  H14  1  0.23390466  0.72914606  0.75258008  1  0.125254  -0.000384  0.969036  -0.001  0.14205  0.000118  1.03609  0.0  0.145129  -0.000195  1.034344  0.0  0.094223  0.13981  0.000355  1.037378  0.0
H  H15  1  0.57337074  0.11876043  0.20309024  1  0.12998  0.000417  0.937854  0.0  0.15015  0.000281  0.998509  0.0  0.151916  0.000298  0.997353  0.0  0.100725  0.148689  0.00028  0.999595  0.0
H  H16  1  0.42662029  0.88123394  0.79690913  1  0.129934  -0.000479  0.9378  0.0  0.150131  -0.000264  0.998454  0.0  0.151906  -0.000323  0.997283  0.0  0.100739  0.148661  -0.000216  0.999555  0.0
H  H17  1  0.34463093  0.22654452  0.18031817  1  0.116966  0.000227  0.963458  0.0  0.140457  -1.2e-05  1.021931  0.0  0.140995  6.8e-05  1.023038  0.0  0.095886  0.139931  -6.6e-05  1.021295  0.0
H  H18  1  0.65536443  0.77345936  0.81970152  1  0.117028  -0.00031  0.963551  0.0  0.140539  -4.6e-05  1.022008  0.0  0.141073  -0.00011  1.023122  0.0  0.095932  0.140012  -6e-06  1.021362  0.0
H  H19  1  0.35074267  0.09612532  0.28463894  1  0.112698  -1.5e-05  0.976396  0.0  0.12913  -0.000177  1.044491  0.0  0.129464  -0.00011  1.047167  0.0  0.090558  0.128893  -0.000216  1.042633  0.0
H  H20  1  0.64926452  0.90385967  0.71536593  1  0.112685  -0.000148  0.976372  0.0  0.129142  1.3e-05  1.044482  0.0  0.129481  -7.5e-05  1.047146  0.0  0.090514  0.128899  6.2e-05  1.042629  0.0
H  H21  1  0.17796499  0.15603106  0.45705062  1  0.116797  0.000174  0.963803  0.001  0.129733  -0.000292  1.037681  0.0  0.131895  -0.000272  1.036851  0.0  0.0934  0.12815  -0.000304  1.038286  0.0
H  H22  1  0.82203404  0.84396615  0.54295011  1  0.116697  -0.00035  0.963858  -0.001  0.129729  -2.8e-05  1.037667  0.0  0.131889  -5.9e-05  1.036835  0.0  0.093377  0.128149  -3e-06  1.038266  0.0
H  H23  1  0.05614715  0.25605170  0.34077131  1  0.120403  -0.000629  0.953681  0.0  0.14423  -0.000998  1.010797  -0.001  0.145311  -0.001005  1.011638  -0.001  0.096699  0.143345  -0.001007  1.010342  -0.001
H  H24  1  0.94388431  0.74395586  0.65922172  1  0.120397  0.000423  0.953672  0.0  0.144278  0.000747  1.010753  0.001  0.145361  0.000755  1.011589  0.001  0.096703  0.143386  0.000757  1.0103  0.001
H  H25  1  0.01690614  0.30179874  0.48852658  1  0.118025  0.000929  0.946382  0.001  0.138483  0.000318  1.006458  0.0  0.139832  0.000583  1.006953  0.0  0.095178  0.137437  0.000144  1.006221  0.0
H  H26  1  0.98310891  0.69819942  0.51147279  1  0.117959  -0.001001  0.946535  -0.001  0.138408  -0.000405  1.006636  0.0  0.139761  -0.000699  1.007125  0.0  0.095173  0.137359  -0.000214  1.006403  0.0
H  H27  1  0.10867465  0.50430685  0.41921246  1  0.117158  0.00046  0.966724  0.0  0.132428  0.000472  1.037124  0.0  0.135041  0.000449  1.035026  0.0  0.092197  0.130469  0.000487  1.038702  0.0
H  H28  1  0.89136922  0.49568386  0.58080249  1  0.117008  -0.000514  0.966757  0.0  0.132323  -0.000544  1.037171  0.0  0.13494  -0.000514  1.035064  0.0  0.092127  0.130354  -0.000561  1.038762  0.0
H  H29  1  0.19517478  0.46391926  0.27553535  1  0.113791  0.000266  0.955165  0.0  0.137525  5.8e-05  1.012362  0.0  0.138658  0.000122  1.012587  0.0  0.094649  0.136579  1.5e-05  1.01234  0.0
H  H30  1  0.80486962  0.53606487  0.72448179  1  0.113628  -0.000321  0.955139  0.0  0.137446  -0.000106  1.01227  0.0  0.13858  -0.00016  1.012494  0.0  0.094575  0.136492  -7.2e-05  1.012249  0.0
H  H31  1  0.36123893  0.51388988  0.37099037  1  0.118319  0.000304  0.961109  0.0  0.133173  0.000385  1.030087  0.0  0.135026  0.00022  1.029983  0.0  0.091849  0.13174  0.000489  1.030272  0.0
H  H32  1  0.63880523  0.48609989  0.62902463  1  0.118321  -0.000487  0.961297  0.0  0.133175  -0.000659  1.030299  0.0  0.135049  -0.000505  1.030174  0.0  0.091877  0.131741  -0.000758  1.030486  0.0
H  H33  1  0.98957827  0.62498367  0.86200506  1  0.062404  -0.000493  0.925333  0.0  0.078156  -0.000103  0.982422  0.0  0.079437  -7.8e-05  0.982567  0.0  0.097026  0.077288  -0.000101  0.982382  0.0
H  H34  1  0.01043021  0.37503610  0.13798422  1  0.062443  -0.000545  0.925327  0.0  0.078151  -0.000191  0.982475  0.0  0.07943  -0.000159  0.982621  0.0  0.097008  0.077277  -0.000198  0.98246  0.0
H  H35  1  0.29387762  0.60871435  0.97802331  1  0.071143  0.00066  0.94971  0.0  0.088119  0.000567  1.01331  0.0  0.089253  0.000402  1.01349  0.0  0.089267  0.087203  0.000713  1.013446  0.0
H  H36  1  0.70612450  0.39130642  0.02198188  1  0.071136  0.000552  0.949864  0.0  0.088152  0.000464  1.013387  0.0  0.089286  0.000275  1.013561  0.0  0.089301  0.08723  0.000621  1.013535  0.0
H  H37  1  0.15516797  0.58059748  0.10922756  1  0.061665  -5.6e-05  0.934881  0.0  0.082399  -3e-05  0.992492  0.0  0.082862  -2.2e-05  0.993147  0.0  0.087055  0.082031  -3.5e-05  0.992104  0.0
H  H38  1  0.84482258  0.41940818  0.89076753  1  0.061568  -8.9e-05  0.934999  0.0  0.082354  -7.6e-05  0.992536  0.0  0.082813  -5.6e-05  0.993198  0.0  0.087047  0.081987  -9.1e-05  0.992135  0.0
H  H39  1  0.65218537  0.62270233  0.96520029  1  0.060082  9e-06  0.950612  0.0  0.077479  3.2e-05  1.016799  0.0  0.078295  1.1e-05  1.016835  0.0  0.086091  0.076756  5.9e-05  1.0171  0.0
H  H40  1  0.34781187  0.37731081  0.03478182  1  0.06009  3.4e-05  0.950595  0.0  0.077405  6.7e-05  1.016841  0.0  0.078225  4.1e-05  1.016869  0.0  0.085996  0.076683  9.5e-05  1.017144  0.0
H  H41  1  0.77104217  0.58917489  0.10086081  1  0.076547  -0.00013  0.923818  0.0  0.09712  -1.3e-05  0.981348  0.0  0.098215  -2.1e-05  0.981206  0.0  0.093042  0.096323  -7e-06  0.981497  0.0
H  H42  1  0.22895388  0.41084202  0.89912458  1  0.076464  -0.000152  0.923941  0.0  0.097071  -0.00014  0.981377  0.0  0.098166  -8.9e-05  0.981231  0.0  0.093052  0.096274  -0.000171  0.981523  0.0
C  C43  1  0.64698772  0.16749803  0.65385395  1  0.061916  -0.051401  3.798181  -0.044  0.078597  -0.014389  4.038197  -0.015  0.081238  -0.02759  4.056777  -0.026  0.013728  0.07629  -0.007629  4.02618  -0.009
C  C44  1  0.35300680  0.83248503  0.34614259  1  0.0623  0.022427  3.798584  0.028  0.078801  0.00335  4.038435  0.01  0.081485  0.012004  4.056929  0.02  0.013796  0.076468  -0.000882  4.026497  0.004
C  C45  1  0.84873076  0.10344538  0.64961077  1  -0.141949  0.053633  3.696626  0.043  -0.16528  0.021393  3.943561  0.017  -0.170311  0.032404  3.960763  0.026  -0.080268  -0.162159  0.014793  3.932671  0.012
C  C46  1  0.15126536  0.89650848  0.35038245  1  -0.14186  -0.035825  3.697819  -0.023  -0.164971  -0.015866  3.944248  -0.009  -0.170027  -0.029487  3.96146  -0.018  -0.080159  -0.161852  -0.007649  3.933368  -0.003
C  C47  1  0.94222704  0.05764025  0.75358782  1  0.132115  -0.03872  3.679588  -0.029  0.104594  -0.00871  3.935508  -0.007  0.113  -0.01795  3.952369  -0.014  0.048315  0.099036  -0.003749  3.925043  -0.004
C  C48  1  0.05781841  0.94241818  0.24640489  1  0.1321  0.012689  3.681186  0.011  0.104297  0.002652  3.936382  0.003  0.112797  0.007165  3.953312  0.007  0.048481  0.098685  0.000579  3.925868  0.001
C  C49  1  0.65206522  0.13171126  0.86485760  1  0.140333  -0.038112  3.652247  -0.028  0.114007  -0.008036  3.905341  -0.007  0.122822  -0.017218  3.922673  -0.013  0.056762  0.108148  -0.00309  3.89451  -0.003
C  C50  1  0.34793891  0.86833681  0.13514479  1  0.140975  0.013295  3.652636  0.012  0.114306  0.003411  3.90509  0.003  0.123209  0.007814  3.922498  0.007  0.056849  0.108376  0.001312  3.894229  0.001
C  C51  1  0.54756756  0.18175488  0.76473772  1  -0.123281  0.056456  3.653213  0.045  -0.146808  0.02282  3.898791  0.018  -0.152089  0.034279  3.915516  0.027  -0.070262  -0.143557  0.016004  3.888262  0.013
C  C52  1  0.45244627  0.81828568  0.23526670  1  -0.123692  -0.037036  3.65354  -0.024  -0.146889  -0.016284  3.898713  -0.009  -0.152271  -0.030633  3.915433  -0.018  -0.070413  -0.143589  -0.007672  3.888226  -0.003
C  C53  1  0.54720383  0.21493057  0.54493063  1  0.129948  0.170192  3.654902  0.157  0.083091  0.081056  3.941711  0.086  0.094186  0.134439  3.948005  0.132  0.217383  0.076018  0.047482  3.936267  0.057
C  C54  1  0.45278422  0.78504410  0.45508774  1  0.129986  -0.201012  3.65501  -0.154  0.082813  -0.107334  3.942327  -0.085  0.093988  -0.175335  3.948305  -0.131  0.217319  0.075688  -0.06492  3.937015  -0.056
C  C55  1  0.48890363  0.24804809  0.34007364  1  0.18918  0.005104  3.517669  0.013  0.197663  -0.002459  3.759944  0.006  0.201118  -0.000658  3.775772  0.009  0.084253  0.195243  -0.003618  3.749112  0.005
C  C56  1  0.51112240  0.75192847  0.65993834  1  0.189128  -0.008265  3.51829  -0.013  0.197887  -0.000904  3.760125  -0.006  0.201351  -0.003288  3.776  -0.009  0.084204  0.195448  0.000616  3.749273  -0.005
C  C57  1  0.63417397  0.33087181  0.28715810  1  -0.367304  -0.015941  3.641067  -0.012  -0.451873  -0.014373  3.880163  -0.01  -0.456194  -0.014885  3.889414  -0.01  -0.243467  -0.4485  -0.014087  3.873835  -0.009
C  C58  1  0.36587375  0.66907828  0.71282350  1  -0.367709  0.014217  3.641473  0.013  -0.452219  0.012014  3.880373  0.01  -0.456587  0.012018  3.889622  0.011  -0.243509  -0.4489  0.012135  3.874055  0.01
C  C59  1  0.43523892  0.16682323  0.24731233  1  -0.350922  -0.003083  3.64462  -0.003  -0.436434  -0.002648  3.882493  -0.002  -0.438547  -0.002785  3.891966  -0.003  -0.243262  -0.434683  -0.00258  3.87605  -0.002
C  C60  1  0.56476325  0.83316364  0.75269430  1  -0.35082  0.002351  3.644702  0.003  -0.436454  0.001926  3.882469  0.002  -0.438567  0.001966  3.891928  0.003  -0.243271  -0.434702  0.001936  3.876027  0.002
C  C61  1  0.30668622  0.32301877  0.41070773  1  0.187373  0.004683  3.519501  0.012  0.196723  -0.002599  3.759386  0.006  0.20026  -0.000941  3.775625  0.008  0.085313  0.194222  -0.00367  3.748331  0.004
C  C62  1  0.69333282  0.67697569  0.58930585  1  0.187472  -0.00768  3.519644  -0.012  0.196646  -0.000645  3.759585  -0.006  0.200193  -0.002882  3.775848  -0.008  0.085393  0.194128  0.000786  3.748516  -0.004
C  C63  1  0.12848047  0.25448066  0.42508153  1  -0.362957  -0.016568  3.648389  -0.012  -0.446805  -0.015535  3.886161  -0.01  -0.450778  -0.015614  3.896488  -0.011  -0.242488  -0.443759  -0.015567  3.8791  -0.01
C  C64  1  0.87154107  0.74551562  0.57491868  1  -0.362838  0.013895  3.648505  0.012  -0.446818  0.012205  3.886308  0.01  -0.450787  0.012117  3.896631  0.011  -0.242536  -0.44377  0.01237  3.879237  0.01
C  C65  1  0.24056621  0.45985084  0.36723009  1  -0.351499  -0.002556  3.657174  -0.003  -0.435567  -0.001926  3.897678  -0.002  -0.438092  -0.002208  3.905198  -0.002  -0.240472  -0.433465  -0.001787  3.892687  -0.002
C  C66  1  0.75947144  0.54014081  0.63278583  1  -0.35123  0.001997  3.657047  0.003  -0.435409  0.001298  3.897598  0.002  -0.437954  0.00149  3.905092  0.002  -0.240412  -0.433306  0.00121  3.892615  0.002
C  C67  1  0.94000415  0.77409653  0.97872938  1  0.633252  -0.007088  3.871616  -0.008  0.591794  -0.002181  4.180421  -0.004  0.627086  -0.002684  4.175913  -0.004  0.189793  0.568056  -0.001395  4.182668  -0.004
C  C68  1  0.05994032  0.22592415  0.02126500  1  0.633557  -0.007013  3.871117  -0.008  0.592098  -0.002155  4.179942  -0.004  0.627392  -0.00262  4.17543  -0.004  0.190027  0.568365  -0.001392  4.182205  -0.004
C  C69  1  0.97040445  0.63436589  0.95819739  1  -0.110441  0.010077  3.655978  0.009  -0.109843  0.006203  3.894232  0.006  -0.115865  0.004321  3.908326  0.004  -0.091822  -0.105537  0.007637  3.884089  0.007
C  C70  1  0.02959601  0.36565105  0.04179229  1  -0.110838  0.010051  3.656284  0.009  -0.11029  0.006122  3.89457  0.005  -0.116313  0.004246  3.908661  0.004  -0.091909  -0.105977  0.007556  3.88444  0.007
C  C71  1  0.16773697  0.56578459  0.01395035  1  -0.113807  0.000666  3.665303  0.0  -0.158004  0.000523  3.924467  0.0  -0.15843  0.000269  3.938465  0.0  -0.163407  -0.157417  0.000802  3.914584  0.0
C  C72  1  0.83226078  0.43423143  0.98604385  1  -0.113643  0.000505  3.665583  0.0  -0.157803  0.000325  3.924682  0.0  -0.158226  5.4e-05  3.938683  0.0  -0.163407  -0.15722  0.000606  3.914794  0.0
C  C73  1  0.79327009  0.57471673  0.00585310  1  -0.119572  0.002253  3.694333  0.002  -0.168524  0.001338  3.959871  0.001  -0.168988  0.0008  3.973758  0.001  -0.168628  -0.167974  0.001812  3.950138  0.002
C  C74  1  0.20673368  0.42529925  0.99412952  1  -0.119337  0.002318  3.69436  0.002  -0.168114  0.001393  3.959685  0.001  -0.168567  0.000888  3.973551  0.001  -0.168442  -0.167578  0.001847  3.949965  0.002
N  N75  1  0.84545048  0.07103215  0.85940010  1  -0.282496  0.123528  3.354225  0.128  -0.232804  0.080256  3.641036  0.085  -0.26132  0.081688  3.662277  0.088  -0.348127  -0.216338  0.07863  3.628792  0.082
N  N76  1  0.15458481  0.92905925  0.14059764  1  -0.284168  0.055696  3.356433  0.059  -0.233223  0.050598  3.641795  0.055  -0.261961  0.031925  3.663298  0.037  -0.348416  -0.216574  0.060745  3.629334  0.064
N  N77  1  0.59605075  0.16455553  0.43876548  1  0.137728  -0.29835  3.533597  -0.25  0.183877  -0.257558  3.819452  -0.205  0.182929  -0.283083  3.832125  -0.229  -0.107812  0.18396  -0.241918  3.809825  -0.19
N  N78  1  0.40388123  0.83539929  0.56124690  1  0.138  0.25009  3.53477  0.248  0.18432  0.20285  3.820388  0.204  0.183342  0.221466  3.833176  0.228  -0.107435  0.184453  0.191899  3.810647  0.19
N  N79  1  0.39276956  0.31508563  0.53216800  1  0.137314  -0.290454  3.542469  -0.243  0.185865  -0.250029  3.82604  -0.198  0.183947  -0.274986  3.839428  -0.221  -0.10535  0.186452  -0.234747  3.816019  -0.184
N  N80  1  0.60722416  0.68489469  0.46784984  1  0.137033  0.243557  3.543385  0.241  0.185706  0.197089  3.826951  0.197  0.18377  0.215244  3.840429  0.221  -0.105605  0.186314  0.186421  3.816847  0.183
O  O81  1  0.72026800  0.06251474  0.41927542  1  -0.396174  -0.318925  1.73218  -0.27  -0.367049  -0.294537  1.946539  -0.243  -0.380502  -0.314849  1.946883  -0.265  -0.173317  -0.35655  -0.27912  1.945758  -0.227
O  O82  1  0.27951185  0.93736013  0.58079293  1  -0.396726  0.267538  1.732751  0.268  -0.36749  0.23229  1.947116  0.243  -0.381014  0.246524  1.947571  0.264  -0.173622  -0.356945  0.221828  1.946241  0.227
O  O83  1  0.31432804  0.38957178  0.61137537  1  -0.396832  -0.321755  1.697935  -0.273  -0.371934  -0.297492  1.904901  -0.246  -0.383552  -0.320043  1.904399  -0.27  -0.180888  -0.362802  -0.280897  1.904759  -0.229
O  O84  1  0.68563863  0.61037563  0.38866035  1  -0.396946  0.269957  1.698195  0.272  -0.371842  0.234713  1.904963  0.246  -0.383543  0.250634  1.9046  0.27  -0.180738  -0.362656  0.223385  1.904713  0.23
O  O85  1  0.79772509  0.82637087  0.04383109  1  -0.624683  0.000128  1.924782  0.002  -0.590603  -0.000495  2.163622  0.001  -0.617806  -0.00168  2.154967  0.0  -0.327481  -0.571894  0.000672  2.169189  0.002
O  O86  1  0.20224961  0.17361797  0.95620159  1  -0.62474  2.5e-05  1.924497  0.002  -0.590604  -0.000609  2.163302  0.001  -0.617807  -0.001796  2.154635  0.0  -0.32755  -0.571894  0.000538  2.168883  0.002
O  O87  1  0.07467889  0.83258197  0.92806477  1  -0.612406  0.123189  2.012512  0.134  -0.590034  0.082463  2.294449  0.095  -0.63289  0.066791  2.288986  0.079  -0.338905  -0.562002  0.091368  2.298082  0.103
O  O88  1  0.92517801  0.16748840  0.07189333  1  -0.612509  0.12332  2.012559  0.134  -0.590224  0.082695  2.294605  0.095  -0.633055  0.066955  2.289094  0.079  -0.339129  -0.562222  0.091673  2.29826  0.103
