# generated using pymatgen
data_TlH16AuC20(NCl5)2
_symmetry_space_group_name_H-M   'P 1'
_cell_length_a   11.30816548
_cell_length_b   11.78774193
_cell_length_c   12.83517153
_cell_angle_alpha   64.20709392
_cell_angle_beta   72.56222679
_cell_angle_gamma   73.65668944
_symmetry_Int_Tables_number   1
_chemical_formula_structural   TlH16AuC20(NCl5)2
_chemical_formula_sum   'Tl2 H32 Au2 C40 N4 Cl20'
_cell_volume   1446.76751279
_cell_formula_units_Z   2
loop_
 _symmetry_equiv_pos_site_id
 _symmetry_equiv_pos_as_xyz
  1  'x, y, z'
loop_
 _atom_site_type_symbol
 _atom_site_label
 _atom_site_symmetry_multiplicity
 _atom_site_fract_x
 _atom_site_fract_y
 _atom_site_fract_z
 _atom_site_occupancy
 _atom_site_pbe_bader_spin_density
 _atom_site_pbe_cm5_charge
 _atom_site_pbe_ddec_charge
 _atom_site_pbe_ddec_spin_density
 _atom_site_pbe_ddec_sum_bond_order
 _atom_site_pbe_magmom
Tl  Tl0  1  0.42422930  0.24630804  0.05591594  1  0  0.224774  0.416396  0  1.594546  0
Tl  Tl1  1  0.57577378  0.75369341  0.94408396  1  0  0.224773  0.41642  0  1.594569  0
H  H2  1  0.15274632  0.30999147  0.18307763  1  0  0.082264  0.125897  0  1.042236  0
H  H3  1  0.84726133  0.69000520  0.81692450  1  0  0.082293  0.125928  0  1.04224  0
H  H4  1  0.06740592  0.39189427  0.28003495  1  0  0.085438  0.136334  0  1.020419  0
H  H5  1  0.93259988  0.60810238  0.71996923  1  0  0.085487  0.136376  0  1.020379  0
H  H6  1  0.04362382  0.23724016  0.31327922  1  0  0.08652  0.13258  0  1.02146  0
H  H7  1  0.95638198  0.76275651  0.68672340  1  0  0.086509  0.132593  0  1.021527  0
H  H8  1  0.10617523  0.17866437  0.52371909  1  0  0.08379  0.134825  0  1.043409  0
H  H9  1  0.89383087  0.82133041  0.47628108  1  0  0.08379  0.134794  0  1.043402  0
H  H10  1  0.12685931  0.33853135  0.46291612  1  0  0.083566  0.133173  0  1.037445  0
H  H11  1  0.87314776  0.66146340  0.53708770  1  0  0.083634  0.133283  0  1.037442  0
H  H12  1  0.25265553  0.21484157  0.51493034  1  0  0.08408  0.12971  0  1.042973  0
H  H13  1  0.74735111  0.78515031  0.48507394  1  0  0.084083  0.129695  0  1.04303  0
H  H14  1  0.80141852  0.98284401  0.06874850  1  0  0.081498  0.130032  0  1.039865  0
H  H15  1  0.19858471  0.01715651  0.93124940  1  0  0.081484  0.130065  0  1.039851  0
H  H16  1  0.84983274  0.13308922  0.00249537  1  0  0.088144  0.141081  0  1.00712  0
H  H17  1  0.15016954  0.86691132  0.99749887  1  0  0.088146  0.141079  0  1.00717  0
H  H18  1  0.69657064  0.12201168  0.99878926  1  0  0.080017  0.129323  0  1.047201  0
H  H19  1  0.30343109  0.87798690  0.00121215  1  0  0.080014  0.129354  0  1.047192  0
H  H20  1  0.84413855  0.14581703  0.23672307  1  0  0.087458  0.13644  0  1.029734  0
H  H21  1  0.15586909  0.85417965  0.76327827  1  0  0.087435  0.136436  0  1.02973  0
H  H22  1  0.89866699  0.00004811  0.21422252  1  0  0.086919  0.13667  0  1.016835  0
H  H23  1  0.10133860  0.99994955  0.78577509  1  0  0.086936  0.136723  0  1.016734  0
H  H24  1  0.77703974  0.00919274  0.33743936  1  0  0.09238  0.139266  0  1.01898  0
H  H25  1  0.22296400  0.99080491  0.66255876  1  0  0.092352  0.13925  0  1.018986  0
H  H26  1  0.40114165  0.12319850  0.45705982  1  0  0.092607  0.062785  0  1.020988  0
H  H27  1  0.59886683  0.87680393  0.54293902  1  0  0.092611  0.062721  0  1.021072  0
H  H28  1  0.44002336  0.01953529  0.38013236  1  0  0.10018  0.083675  0  0.985518  0
H  H29  1  0.55998452  0.98046522  0.61986740  1  0  0.100181  0.083735  0  0.985423  0
H  H30  1  0.61347145  0.12672745  0.36632430  1  0  0.089974  0.060157  0  1.036013  0
H  H31  1  0.38653607  0.87327500  0.63367167  1  0  0.089959  0.060162  0  1.036091  0
H  H32  1  0.53168220  0.27428597  0.28123287  1  0  0.092944  0.076234  0  1.020655  0
H  H33  1  0.46832440  0.72571647  0.71876413  1  0  0.092892  0.076261  0  1.02062  0
Au  Au34  1  0.50000511  0.50000078  0.99999942  1  0  0.239853  -0.036383  0  3.09394  0
Au  Au35  1  0.49999244  0.99999879  0.00000193  1  0  0.236935  -0.03339  0  3.036863  0
C  C36  1  0.32333676  0.56056797  0.08381379  1  0  -0.170775  -0.237528  0  4.046685  0
C  C37  1  0.67666288  0.43943728  0.91618710  1  0  -0.17074  -0.237449  0  4.046781  0
C  C38  1  0.30488915  0.57156749  0.19247829  1  0  -0.005773  0.098585  0  4.044776  0
C  C39  1  0.69511277  0.42843012  0.80752501  1  0  -0.005797  0.098537  0  4.044654  0
C  C40  1  0.18544313  0.60678407  0.25551180  1  0  -0.007001  0.023417  0  4.044705  0
C  C41  1  0.81455456  0.39321640  0.74448916  1  0  -0.007004  0.023485  0  4.044694  0
C  C42  1  0.07957992  0.63841003  0.20587787  1  0  -0.006315  0.018118  0  4.090543  0
C  C43  1  0.92042289  0.36158761  0.79412050  1  0  -0.006309  0.01803  0  4.090586  0
C  C44  1  0.09424405  0.63102306  0.09604486  1  0  -0.0049  0.016539  0  4.061598  0
C  C45  1  0.90575590  0.36898030  0.90395357  1  0  -0.004918  0.016553  0  4.061579  0
C  C46  1  0.21499180  0.59052472  0.03839199  1  0  -0.005359  0.096333  0  4.04731  0
C  C47  1  0.78501145  0.40947577  0.96160902  1  0  -0.005369  0.096292  0  4.047454  0
C  C48  1  0.42618064  0.91251004  0.17804213  1  0  -0.170838  -0.241548  0  4.038396  0
C  C49  1  0.57379632  0.08749226  0.82196212  1  0  -0.170836  -0.241702  0  4.038243  0
C  C50  1  0.29996759  0.94220336  0.23184996  1  0  -0.007881  0.092397  0  4.050706  0
C  C51  1  0.70002337  0.05779809  0.76814462  1  0  -0.007978  0.092318  0  4.050849  0
C  C52  1  0.25367972  0.88606648  0.35415043  1  0  -0.00994  0.013122  0  4.073388  0
C  C53  1  0.74629794  0.11393197  0.64585749  1  0  -0.009965  0.01313  0  4.073581  0
C  C54  1  0.33435778  0.79268887  0.42718587  1  0  -0.009087  0.019942  0  4.088756  0
C  C55  1  0.66563320  0.20731258  0.57280949  1  0  -0.009049  0.019977  0  4.0883  0
C  C56  1  0.46149483  0.76031982  0.37713610  1  0  -0.011494  0.013696  0  4.07024  0
C  C57  1  0.53848095  0.23967865  0.62286843  1  0  -0.011336  0.013994  0  4.070057  0
C  C58  1  0.50416714  0.82037470  0.25465270  1  0  -0.011851  0.094156  0  4.066921  0
C  C59  1  0.49582018  0.17963155  0.74533864  1  0  -0.012062  0.093854  0  4.067095  0
C  C60  1  0.21676904  0.23898153  0.34688403  1  0  0.150751  0.404865  0  3.891859  0
C  C61  1  0.78323802  0.76101322  0.65311901  1  0  0.150644  0.404746  0  3.891957  0
C  C62  1  0.11557582  0.29879668  0.27554757  1  0  -0.245151  -0.460237  0  3.920587  0
C  C63  1  0.88442981  0.70120095  0.72445472  1  0  -0.245188  -0.460322  0  3.920714  0
C  C64  1  0.17573911  0.24180144  0.46881999  1  0  -0.250931  -0.474911  0  3.920193  0
C  C65  1  0.82426812  0.75819236  0.53118338  1  0  -0.250974  -0.47492  0  3.920274  0
C  C66  1  0.71874875  0.10139732  0.16812109  1  0  0.150967  0.408565  0  3.88641  0
C  C67  1  0.28125465  0.89860224  0.83187714  1  0  0.151019  0.408614  0  3.886498  0
C  C68  1  0.76823805  0.08492849  0.05268818  1  0  -0.25068  -0.470032  0  3.939937  0
C  C69  1  0.23176517  0.91507203  0.94730893  1  0  -0.250682  -0.470152  0  3.939965  0
C  C70  1  0.81457432  0.06106659  0.24367015  1  0  -0.246924  -0.472005  0  3.912656  0
C  C71  1  0.18543128  0.93893106  0.75632824  1  0  -0.246892  -0.472019  0  3.91255  0
C  C72  1  0.42489857  0.12070395  0.36818110  1  0  -0.067966  -0.031846  0  3.949855  0
C  C73  1  0.57511302  0.87929659  0.63181687  1  0  -0.067949  -0.031798  0  3.949903  0
C  C74  1  0.54928418  0.17025250  0.30394722  1  0  -0.074307  -0.050564  0  3.969038  0
C  C75  1  0.45072578  0.82975187  0.69604811  1  0  -0.074293  -0.050732  0  3.969119  0
N  N76  1  0.32550070  0.18934874  0.30155981  1  0  -0.325073  -0.311772  0  3.269261  0
N  N77  1  0.67450719  0.81065177  0.69843994  1  0  -0.325018  -0.311685  0  3.269333  0
N  N78  1  0.60199859  0.14851128  0.19494231  1  0  -0.328056  -0.308148  0  3.290873  0
N  N79  1  0.39800911  0.85149020  0.80505556  1  0  -0.328061  -0.30809  0  3.290978  0
Cl  Cl80  1  0.43463396  0.54029700  0.25223388  1  0  0.005249  -0.053085  0  1.759615  0
Cl  Cl81  1  0.56536466  0.45970347  0.74776839  1  0  0.005249  -0.053083  0  1.759533  0
Cl  Cl82  1  0.16646723  0.60812455  0.39299879  1  0  0.011694  -0.039232  0  1.726175  0
Cl  Cl83  1  0.83352835  0.39187209  0.60700348  1  0  0.011688  -0.039254  0  1.726194  0
Cl  Cl84  1  0.93294406  0.68273196  0.28022830  1  0  0.015153  -0.031282  0  1.762208  0
Cl  Cl85  1  0.06705676  0.31727146  0.71976364  1  0  0.01517  -0.031269  0  1.762286  0
Cl  Cl86  1  0.96446784  0.66896357  0.03601678  1  0  0.003477  -0.044548  0  1.725459  0
Cl  Cl87  1  0.03554042  0.33103986  0.96397627  1  0  0.003455  -0.044571  0  1.72537  0
Cl  Cl88  1  0.22948154  0.57561005  0.90617867  1  0  -0.003796  -0.068318  0  1.68032  0
Cl  Cl89  1  0.77052767  0.42439336  0.09381725  1  0  -0.003774  -0.06828  0  1.680381  0
Cl  Cl90  1  0.19432664  0.05301166  0.14553873  1  0  0.008973  -0.057139  0  1.745522  0
Cl  Cl91  1  0.80566017  0.94699260  0.85446288  1  0  0.009004  -0.057096  0  1.745454  0
Cl  Cl92  1  0.09979949  0.93106187  0.41581698  1  0  0.009493  -0.044813  0  1.781737  0
Cl  Cl93  1  0.90018986  0.06894909  0.58418364  1  0  0.009485  -0.044823  0  1.781591  0
Cl  Cl94  1  0.27717888  0.71557660  0.57537330  1  0  0.010378  -0.035323  0  1.692396  0
Cl  Cl95  1  0.72279975  0.28442667  0.42462856  1  0  0.010394  -0.035318  0  1.692548  0
Cl  Cl96  1  0.56179933  0.64851608  0.46582083  1  0  -0.001582  -0.052866  0  1.782327  0
Cl  Cl97  1  0.43818536  0.35148435  0.53418052  1  0  -0.001597  -0.052957  0  1.782314  0
Cl  Cl98  1  0.66066026  0.77500415  0.19681203  1  0  -0.011391  -0.084197  0  1.81478  0
Cl  Cl99  1  0.33932297  0.22500483  0.80319413  1  0  -0.011304  -0.084028  0  1.814547  0
