# generated using pymatgen
data_AgH10C12(NO)3
_symmetry_space_group_name_H-M   'P 1'
_cell_length_a   6.72444480
_cell_length_b   14.27060722
_cell_length_c   14.65530000
_cell_angle_alpha   119.49763719
_cell_angle_beta   101.98599598
_cell_angle_gamma   89.59704876
_symmetry_Int_Tables_number   1
_chemical_formula_structural   AgH10C12(NO)3
_chemical_formula_sum   'Ag4 H40 C48 N12 O12'
_cell_volume   1189.85512212
_cell_formula_units_Z   4
loop_
 _symmetry_equiv_pos_site_id
 _symmetry_equiv_pos_as_xyz
  1  'x, y, z'
loop_
 _atom_site_type_symbol
 _atom_site_label
 _atom_site_symmetry_multiplicity
 _atom_site_fract_x
 _atom_site_fract_y
 _atom_site_fract_z
 _atom_site_occupancy
 _atom_site_hle17_bader_spin_density
 _atom_site_hle17_ddec_charge
 _atom_site_hle17_ddec_spin_density
 _atom_site_hle17_ddec_sum_bond_order
 _atom_site_hle17_magmom
 _atom_site_hse06_10hf_bader_spin_density
 _atom_site_hse06_10hf_ddec_charge
 _atom_site_hse06_10hf_ddec_spin_density
 _atom_site_hse06_10hf_ddec_sum_bond_order
 _atom_site_hse06_10hf_magmom
 _atom_site_hse06_bader_spin_density
 _atom_site_hse06_ddec_charge
 _atom_site_hse06_ddec_spin_density
 _atom_site_hse06_ddec_sum_bond_order
 _atom_site_hse06_magmom
 _atom_site_pbe_bader_charge
 _atom_site_pbe_bader_spin_density
 _atom_site_pbe_cm5_charge
 _atom_site_pbe_ddec_charge
 _atom_site_pbe_ddec_spin_density
 _atom_site_pbe_ddec_sum_bond_order
 _atom_site_pbe_magmom
Ag  Ag0  1  0.16355589  0.03320299  0.27891749  1  0  0.616274  0  1.430094  0  0  0.497905  0  1.870022  0  0  0.522089  0  1.82495  0  0.675508  0  0.49951  0.481981  0  1.90084  0
Ag  Ag1  1  0.33526533  0.75401211  0.72154493  1  0  0.616842  0  1.435459  0  0  0.498585  0  1.876225  0  0  0.522689  0  1.831173  0  0.673877  0  0.500969  0.482694  0  1.90706  0
Ag  Ag2  1  0.83644559  0.96679657  0.72108067  1  0  0.616175  0  1.43014  0  0  0.49781  0  1.870061  0  0  0.521987  0  1.825005  0  0.675477  0  0.499491  0.481885  0  1.90088  0
Ag  Ag3  1  0.66473869  0.24599231  0.27845717  1  0  0.616843  0  1.435429  0  0  0.498611  0  1.87616  0  0  0.522705  0  1.831133  0  0.673885  0  0.500972  0.482721  0  1.906996  0
H  H4  1  0.21391068  0.15220615  0.19179854  1  0  0.11817  0  0.973468  0  0  0.123011  0  1.045878  0  0  0.127635  0  1.041276  0  0.129793  0  0.103236  0.119487  0  1.049464  0
H  H5  1  0.28590884  0.95966046  0.80966375  1  0  0.118986  0  0.974928  0  0  0.123587  0  1.047508  0  0  0.128264  0  1.042752  0  0.150368  0  0.103253  0.120047  0  1.051199  0
H  H6  1  0.78610872  0.84779908  0.80820814  1  0  0.118065  0  0.973693  0  0  0.122957  0  1.04605  0  0  0.127584  0  1.041437  0  0.12985  0  0.103227  0.119451  0  1.049614  0
H  H7  1  0.71409418  0.04034638  0.19033941  1  0  0.11906  0  0.974765  0  0  0.123651  0  1.04736  0  0  0.12833  0  1.042603  0  0.150633  0  0.103323  0.120106  0  1.051064  0
H  H8  1  0.23740718  0.25451626  0.09744578  1  0  0.09061  0  0.943382  0  0  0.103153  0  1.002949  0  0  0.105315  0  1.002916  0  0.081074  0  0.102686  0.101548  0  1.00312  0
H  H9  1  0.26280115  0.15749260  0.90486896  1  0  0.091207  0  0.942525  0  0  0.103366  0  1.002282  0  0  0.105394  0  1.002436  0  0.063493  0  0.102768  0.101822  0  1.002392  0
H  H10  1  0.76259483  0.74549302  0.90256118  1  0  0.090621  0  0.943478  0  0  0.103209  0  1.002961  0  0  0.105372  0  1.002927  0  0.081122  0  0.102705  0.101593  0  1.003157  0
H  H11  1  0.73719257  0.84251344  0.09513566  1  0  0.091165  0  0.942511  0  0  0.103322  0  1.002273  0  0  0.105346  0  1.00243  0  0.06345  0  0.102756  0.10178  0  1.002383  0
H  H12  1  0.42454380  0.88663042  0.25805602  1  0  0.101685  0  0.96779  0  0  0.10732  0  1.036905  0  0  0.111204  0  1.033562  0  0.092806  0  0.099806  0.104415  0  1.039483  0
H  H13  1  0.07631458  0.62793198  0.74171689  1  0  0.101769  0  0.96574  0  0  0.107637  0  1.034715  0  0  0.111565  0  1.031292  0  0.099654  0  0.100033  0.104732  0  1.037299  0
H  H14  1  0.57545329  0.11336995  0.74194346  1  0  0.101652  0  0.96768  0  0  0.107276  0  1.036813  0  0  0.111159  0  1.033472  0  0.09274  0  0.09978  0.104371  0  1.039389  0
H  H15  1  0.92368504  0.37206595  0.25828100  1  0  0.101768  0  0.965742  0  0  0.107658  0  1.034696  0  0  0.111588  0  1.031271  0  0.099646  0  0.100043  0.104753  0  1.03728  0
H  H16  1  0.33983741  0.80436184  0.36217909  1  0  0.107148  0  0.96982  0  0  0.111347  0  1.037473  0  0  0.115218  0  1.035063  0  0.1389  0  0.103953  0.108428  0  1.039373  0
H  H17  1  0.16159657  0.44013037  0.63690120  1  0  0.106392  0  0.973083  0  0  0.110211  0  1.041083  0  0  0.114045  0  1.038757  0  0.169707  0  0.103434  0.107325  0  1.04294  0
H  H18  1  0.66015764  0.19563609  0.63781904  1  0  0.107169  0  0.969815  0  0  0.111372  0  1.03747  0  0  0.115241  0  1.035061  0  0.138598  0  0.103945  0.108452  0  1.03937  0
H  H19  1  0.83839967  0.55986594  0.36309967  1  0  0.106409  0  0.9731  0  0  0.110232  0  1.041091  0  0  0.114068  0  1.03877  0  0.169683  0  0.10344  0.107345  0  1.042949  0
H  H20  1  0.07184483  0.64708637  0.27429484  1  0  0.084145  0  0.974254  0  0  0.095682  0  1.0352  0  0  0.098071  0  1.034807  0  0.063868  0  0.099521  0.093888  0  1.035682  0
H  H21  1  0.43029267  0.36962811  0.72401667  1  0  0.083782  0  0.976436  0  0  0.095058  0  1.037745  0  0  0.097437  0  1.037384  0  0.069808  0  0.09885  0.093276  0  1.0382  0
H  H22  1  0.92814937  0.35290752  0.72569581  1  0  0.08407  0  0.974397  0  0  0.095646  0  1.035296  0  0  0.098031  0  1.034907  0  0.063723  0  0.099504  0.093853  0  1.035779  0
H  H23  1  0.56970221  0.63036902  0.27598583  1  0  0.08381  0  0.976499  0  0  0.095072  0  1.037822  0  0  0.097445  0  1.037465  0  0.069781  0  0.098847  0.093289  0  1.038277  0
H  H24  1  0.89396344  0.56936779  0.08156400  1  0  0.086232  0  0.964574  0  0  0.096569  0  1.026857  0  0  0.098777  0  1.026951  0  0.069542  0  0.096439  0.095012  0  1.026809  0
H  H25  1  0.60770189  0.48484041  0.91695083  1  0  0.085545  0  0.967427  0  0  0.096214  0  1.029411  0  0  0.098423  0  1.029612  0  0.073416  0  0.096319  0.094628  0  1.029335  0
H  H26  1  0.10603262  0.43062772  0.91842624  1  0  0.086249  0  0.964587  0  0  0.09662  0  1.026826  0  0  0.09882  0  1.026943  0  0.069607  0  0.096436  0.095064  0  1.026772  0
H  H27  1  0.39229385  0.51516076  0.08305234  1  0  0.085514  0  0.96745  0  0  0.096193  0  1.029434  0  0  0.098401  0  1.029626  0  0.073245  0  0.09632  0.094607  0  1.029358  0
H  H28  1  0.97682491  0.65150998  0.97697117  1  0  0.088194  0  0.959678  0  0  0.099535  0  1.020922  0  0  0.102096  0  1.020455  0  0.061908  0  0.098333  0.097702  0  1.021331  0
H  H29  1  0.52419519  0.67300742  0.02237357  1  0  0.088288  0  0.960076  0  0  0.09974  0  1.021362  0  0  0.102253  0  1.020905  0  0.075226  0  0.098294  0.097969  0  1.021722  0
H  H30  1  0.02317200  0.34848958  0.02302245  1  0  0.088216  0  0.959757  0  0  0.099616  0  1.020932  0  0  0.102149  0  1.020497  0  0.061654  0  0.098372  0.097782  0  1.021341  0
H  H31  1  0.47580038  0.32699295  0.97762441  1  0  0.088288  0  0.959908  0  0  0.099663  0  1.021298  0  0  0.102174  0  1.020846  0  0.075142  0  0.098302  0.09789  0  1.021667  0
H  H32  1  0.94408661  0.83809793  0.45473647  1  0  0.170145  0  0.941944  0  0  0.180907  0  1.010014  0  0  0.183547  0  1.008503  0  0.148148  0  0.115689  0.178927  0  1.011183  0
H  H33  1  0.55744668  0.38196560  0.54449731  1  0  0.169795  0  0.942233  0  0  0.181094  0  1.009718  0  0  0.183688  0  1.008277  0  0.160237  0  0.115788  0.179145  0  1.010848  0
H  H34  1  0.05591671  0.16189596  0.54526051  1  0  0.170084  0  0.941962  0  0  0.180873  0  1.010046  0  0  0.183512  0  1.008536  0  0.148398  0  0.115671  0.178893  0  1.011216  0
H  H35  1  0.44255548  0.61803720  0.45550656  1  0  0.169814  0  0.942209  0  0  0.181093  0  1.009695  0  0  0.183685  0  1.008254  0  0.160204  0  0.115793  0.179144  0  1.010824  0
H  H36  1  0.73717058  0.77755769  0.33788174  1  0  0.138749  0  0.946246  0  0  0.158372  0  1.00444  0  0  0.159282  0  1.004994  0  0.066048  0  0.109032  0.15771  0  1.004085  0
H  H37  1  0.76442251  0.43805954  0.66118628  1  0  0.1394  0  0.944734  0  0  0.159605  0  1.00238  0  0  0.160541  0  1.002882  0  0.084762  0  0.109536  0.158935  0  1.002043  0
H  H38  1  0.26283291  0.22243700  0.66211359  1  0  0.138732  0  0.946169  0  0  0.158353  0  1.00441  0  0  0.159248  0  1.004976  0  0.06617  0  0.109003  0.157692  0  1.004055  0
H  H39  1  0.23557813  0.56194326  0.33881880  1  0  0.139448  0  0.944713  0  0  0.159623  0  1.002384  0  0  0.160544  0  1.0029  0  0.084827  0  0.10952  0.158948  0  1.002054  0
H  H40  1  0.70672461  0.89686710  0.45711579  1  0  0.174207  0  0.936192  0  0  0.188723  0  0.99869  0  0  0.191305  0  0.996803  0  0.170422  0  0.118666  0.186738  0  1.000208  0
H  H41  1  0.79448593  0.43700306  0.54208258  1  0  0.174427  0  0.93658  0  0  0.188353  0  1.000258  0  0  0.191035  0  0.998258  0  0.157731  0  0.118238  0.186315  0  1.001828  0
H  H42  1  0.29327653  0.10313083  0.54288156  1  0  0.174247  0  0.936329  0  0  0.188809  0  0.998773  0  0  0.191392  0  0.996883  0  0.170479  0  0.118711  0.186826  0  1.000291  0
H  H43  1  0.20551472  0.56299974  0.45792046  1  0  0.174382  0  0.936642  0  0  0.188332  0  1.000276  0  0  0.191011  0  0.99828  0  0.157721  0  0.118232  0.186295  0  1.001845  0
C  C44  1  0.23573223  0.83425928  0.05416890  1  0  0.150768  0  3.700132  0  0  0.141954  0  3.946242  0  0  0.147639  0  3.963889  0  0.566511  0  0.136264  0.137892  0  3.934549  0
C  C45  1  0.26496706  0.77976788  0.94595637  1  0  0.149953  0  3.701627  0  0  0.142464  0  3.946794  0  0  0.148147  0  3.964427  0  0.54406  0  0.136271  0.138353  0  3.935193  0
C  C46  1  0.76426706  0.16574433  0.94582962  1  0  0.150879  0  3.699936  0  0  0.142049  0  3.946076  0  0  0.147736  0  3.963723  0  0.565874  0  0.136269  0.137987  0  3.934383  0
C  C47  1  0.73503223  0.22023573  0.05404284  1  0  0.149834  0  3.70179  0  0  0.142301  0  3.947023  0  0  0.147976  0  3.96466  0  0.544118  0  0.136277  0.138195  0  3.935422  0
C  C48  1  0.24074740  0.99765812  0.05525612  1  0  0.166144  0  3.777754  0  0  0.167216  0  4.010275  0  0  0.170003  0  4.033744  0  0.499604  0  0.111172  0.165184  0  3.994516  0
C  C49  1  0.25880057  0.94253235  0.94576333  1  0  0.165541  0  3.781936  0  0  0.167357  0  4.013858  0  0  0.170194  0  4.037311  0  0.434518  0  0.11112  0.165326  0  3.998067  0
C  C50  1  0.75926187  0.00234954  0.94474598  1  0  0.166188  0  3.777832  0  0  0.167285  0  4.010324  0  0  0.170072  0  4.033794  0  0.499241  0  0.111207  0.165252  0  3.994566  0
C  C51  1  0.74120616  0.05747045  0.05423688  1  0  0.165666  0  3.78147  0  0  0.167492  0  4.013394  0  0  0.170333  0  4.036841  0  0.434535  0  0.111174  0.165462  0  3.997601  0
C  C52  1  0.23187724  0.11106740  0.10891600  1  0  -0.133988  0  3.688652  0  0  -0.156344  0  3.94881  0  0  -0.159009  0  3.965915  0  -0.035271  0  -0.088655  -0.154623  0  3.937708  0
C  C53  1  0.26774419  0.00205787  0.89255219  1  0  -0.1379  0  3.695828  0  0  -0.159934  0  3.955604  0  0  -0.162648  0  3.972614  0  -0.010096  0  -0.089402  -0.158215  0  3.944526  0
C  C54  1  0.76813438  0.88893702  0.89108477  1  0  -0.134125  0  3.688353  0  0  -0.156581  0  3.948622  0  0  -0.159242  0  3.965709  0  -0.03508  0  -0.088763  -0.15487  0  3.937507  0
C  C55  1  0.73226757  0.99793278  0.10744198  1  0  -0.137968  0  3.695813  0  0  -0.159951  0  3.95554  0  0  -0.162667  0  3.972548  0  -0.010095  0  -0.089433  -0.158233  0  3.944461  0
C  C56  1  0.24110622  0.16699769  0.05512399  1  0  -0.044827  0  3.73675  0  0  -0.066728  0  4.002288  0  0  -0.068555  0  4.024184  0  -0.045728  0  -0.085949  -0.065456  0  3.987508  0
C  C57  1  0.25874954  0.11241474  0.94678449  1  0  -0.041824  0  3.737536  0  0  -0.063288  0  4.002597  0  0  -0.065033  0  4.024571  0  -0.100677  0  -0.085399  -0.062066  0  3.987754  0
C  C58  1  0.75890134  0.83300187  0.94488225  1  0  -0.044659  0  3.736115  0  0  -0.066566  0  4.001632  0  0  -0.068391  0  4.023523  0  -0.045681  0  -0.085863  -0.065301  0  3.986865  0
C  C59  1  0.74125669  0.88759292  0.05322210  1  0  -0.041882  0  3.737704  0  0  -0.06336  0  4.002803  0  0  -0.065107  0  4.024779  0  -0.100828  0  -0.085472  -0.062142  0  3.987964  0
C  C60  1  0.20438935  0.77566429  0.11086870  1  0  0.008566  0  3.806815  0  0  0.026063  0  4.037302  0  0  0.024155  0  4.061338  0  -0.050343  0  -0.01567  0.027423  0  4.020982  0
C  C61  1  0.29670258  0.66378590  0.88875255  1  0  0.009805  0  3.807381  0  0  0.026676  0  4.038538  0  0  0.024748  0  4.062595  0  -0.01166  0  -0.015337  0.028038  0  4.022265  0
C  C62  1  0.79560588  0.22433446  0.88912642  1  0  0.008422  0  3.807047  0  0  0.025993  0  4.037425  0  0  0.024085  0  4.061452  0  -0.049858  0  -0.015719  0.027347  0  4.021116  0
C  C63  1  0.70329841  0.33621852  0.11124926  1  0  0.009666  0  3.807235  0  0  0.02663  0  4.038309  0  0  0.024719  0  4.062338  0  -0.010691  0  -0.015363  0.027981  0  4.022058  0
C  C64  1  0.30883613  0.81667746  0.21896844  1  0  -0.120522  0  3.747201  0  0  -0.137223  0  3.993741  0  0  -0.138984  0  4.012552  0  0.002824  0  -0.093755  -0.136038  0  3.981189  0
C  C65  1  0.19229771  0.59660295  0.78054991  1  0  -0.120762  0  3.744594  0  0  -0.137809  0  3.991762  0  0  -0.139579  0  4.010624  0  -0.10113  0  -0.094319  -0.136614  0  3.979164  0
C  C66  1  0.69116620  0.18332615  0.78103310  1  0  -0.120424  0  3.747316  0  0  -0.137124  0  3.993801  0  0  -0.138884  0  4.012614  0  0.002791  0  -0.093706  -0.135938  0  3.981249  0
C  C67  1  0.80770597  0.40339984  0.21945069  1  0  -0.120653  0  3.744763  0  0  -0.137737  0  3.9919  0  0  -0.139512  0  4.010761  0  -0.102175  0  -0.094283  -0.13654  0  3.979305  0
C  C68  1  0.26377927  0.76938536  0.27712030  1  0  -0.058876  0  3.744975  0  0  -0.070478  0  3.991619  0  0  -0.073003  0  4.01284  0  -0.062343  0  -0.087906  -0.068742  0  3.977391  0
C  C69  1  0.23769837  0.49035858  0.72198114  1  0  -0.059956  0  3.744766  0  0  -0.07107  0  3.991457  0  0  -0.073661  0  4.012806  0  -0.091183  0  -0.088876  -0.069304  0  3.977154  0
C  C70  1  0.73620597  0.23060934  0.72287262  1  0  -0.058954  0  3.744937  0  0  -0.070571  0  3.991615  0  0  -0.073095  0  4.01283  0  -0.062195  0  -0.087961  -0.068836  0  3.97739  0
C  C71  1  0.76229938  0.50963774  0.27801920  1  0  -0.0601  0  3.744937  0  0  -0.071231  0  3.991645  0  0  -0.07383  0  4.013002  0  -0.091441  0  -0.088932  -0.069464  0  3.977341  0
C  C72  1  0.11307664  0.68131991  0.22781591  1  0  -0.063888  0  3.752081  0  0  -0.078765  0  3.998714  0  0  -0.080801  0  4.020717  0  -0.000226  0  -0.088715  -0.077316  0  3.983793  0
C  C73  1  0.38873482  0.45092771  0.77090487  1  0  -0.063199  0  3.7522  0  0  -0.077759  0  3.998069  0  0  -0.07984  0  4.020209  0  -0.055026  0  -0.087858  -0.076281  0  3.983052  0
C  C74  1  0.88691690  0.31867803  0.77217389  1  0  -0.063855  0  3.752002  0  0  -0.078764  0  3.998639  0  0  -0.080793  0  4.020639  0  9.6e-05  0  -0.088695  -0.077316  0  3.983721  0
C  C75  1  0.61125280  0.54907104  0.22909567  1  0  -0.063127  0  3.75208  0  0  -0.077669  0  3.997956  0  0  -0.079745  0  4.020094  0  -0.054953  0  -0.087802  -0.07619  0  3.982937  0
C  C76  1  0.01142685  0.63826103  0.11958320  1  0  -0.081994  0  3.784066  0  0  -0.09261  0  4.031475  0  0  -0.094486  0  4.053245  0  -0.107529  0  -0.096684  -0.091307  0  4.016628  0
C  C77  1  0.49016525  0.51624236  0.87921726  1  0  -0.081479  0  3.786506  0  0  -0.092147  0  4.033137  0  0  -0.094154  0  4.055052  0  -0.058852  0  -0.096904  -0.09074  0  4.018194  0
C  C78  1  0.98857091  0.36173529  0.88041100  1  0  -0.082055  0  3.784189  0  0  -0.0927  0  4.031618  0  0  -0.09458  0  4.053377  0  -0.107415  0  -0.096718  -0.091396  0  4.01677  0
C  C79  1  0.50982963  0.48375477  0.12078183  1  0  -0.08152  0  3.786788  0  0  -0.092209  0  4.033411  0  0  -0.094208  0  4.05533  0  -0.057996  0  -0.096921  -0.090801  0  4.018468  0
C  C80  1  0.05797684  0.68451771  0.06096186  1  0  -0.109216  0  3.753734  0  0  -0.129156  0  3.999296  0  0  -0.131801  0  4.021117  0  -0.094784  0  -0.092049  -0.127222  0  3.984414  0
C  C81  1  0.44327166  0.62191069  0.93831536  1  0  -0.110098  0  3.755551  0  0  -0.13012  0  4.001386  0  0  -0.132744  0  4.023281  0  -0.063726  0  -0.092502  -0.128202  0  3.986429  0
C  C82  1  0.94202312  0.31548185  0.93903000  1  0  -0.109155  0  3.753942  0  0  -0.129163  0  3.999485  0  0  -0.131786  0  4.021317  0  -0.094682  0  -0.092029  -0.127227  0  3.984604  0
C  C83  1  0.55672392  0.37809697  0.06168475  1  0  -0.109963  0  3.755456  0  0  -0.129938  0  4.001274  0  0  -0.132564  0  4.023161  0  -0.064068  0  -0.092509  -0.12802  0  3.986321  0
C  C84  1  0.89044026  0.91979614  0.36874029  1  0  0.439703  0  3.673177  0  0  0.429543  0  3.944206  0  0  0.443335  0  3.961487  0  0.874766  0  0.218907  0.419909  0  3.932761  0
C  C85  1  0.61051320  0.55016884  0.63063102  1  0  0.439633  0  3.673282  0  0  0.429576  0  3.944588  0  0  0.443462  0  3.961856  0  0.898842  0  0.218869  0.419869  0  3.93317  0
C  C86  1  0.10956118  0.08018883  0.63125906  1  0  0.439703  0  3.67344  0  0  0.429583  0  3.944475  0  0  0.443372  0  3.961749  0  0.874356  0  0.218985  0.419952  0  3.93303  0
C  C87  1  0.38949014  0.44983234  0.36937491  1  0  0.439627  0  3.673454  0  0  0.429556  0  3.944749  0  0  0.443446  0  3.962006  0  0.898846  0  0.218794  0.419849  0  3.93333  0
C  C88  1  0.81466014  0.85481528  0.40699779  1  0  -0.38779  0  3.734305  0  0  -0.456159  0  3.961065  0  0  -0.460082  0  3.965691  0  0.037268  0  -0.212729  -0.453112  0  3.958082  0
C  C89  1  0.68672849  0.44613708  0.59223715  1  0  -0.388189  0  3.735  0  0  -0.457876  0  3.96366  0  0  -0.461907  0  3.96824  0  0.007  0  -0.213214  -0.454771  0  3.960702  0
C  C90  1  0.18534401  0.14517537  0.59299634  1  0  -0.387755  0  3.73409  0  0  -0.456236  0  3.960934  0  0  -0.460145  0  3.96557  0  0.03682  0  -0.212771  -0.453193  0  3.957949  0
C  C91  1  0.31327316  0.55386328  0.40776618  1  0  -0.388182  0  3.735143  0  0  -0.457808  0  3.963728  0  0  -0.461824  0  3.968326  0  0.006973  0  -0.213134  -0.454699  0  3.960768  0
N  N92  1  0.22702199  0.94096707  0.10653405  1  0  -0.324008  0  3.225534  0  0  -0.261305  0  3.488525  0  0  -0.274376  0  3.503292  0  -1.161839  0  -0.303036  -0.252431  0  3.478549  0
N  N93  1  0.27280136  0.83396761  0.89400752  1  0  -0.325676  0  3.230073  0  0  -0.263801  0  3.49335  0  0  -0.276926  0  3.508148  0  -1.170286  0  -0.304115  -0.254887  0  3.483361  0
N  N94  1  0.77298219  0.05903086  0.89346427  1  0  -0.323949  0  3.225436  0  0  -0.261265  0  3.488468  0  0  -0.274333  0  3.503228  0  -1.161501  0  -0.303021  -0.252393  0  3.478495  0
N  N95  1  0.72721010  0.16603600  0.10599284  1  0  -0.325644  0  3.229951  0  0  -0.263826  0  3.493321  0  0  -0.276952  0  3.508123  0  -1.170414  0  -0.304137  -0.254911  0  3.483328  0
N  N96  1  0.95664376  0.97149321  0.33823326  1  0  -0.472319  0  2.929677  0  0  -0.426275  0  3.229297  0  0  -0.443413  0  3.234859  0  -1.240148  0  -0.355664  -0.415049  0  3.225953  0
N  N97  1  0.54405233  0.63307504  0.66122289  1  0  -0.472341  0  2.935219  0  0  -0.425667  0  3.235171  0  0  -0.442805  0  3.240592  0  -1.251109  0  -0.356445  -0.414447  0  3.231927  0
N  N98  1  0.04336243  0.02849987  0.66176496  1  0  -0.472253  0  2.930236  0  0  -0.426201  0  3.229833  0  0  -0.443337  0  3.235392  0  -1.239764  0  -0.3557  -0.414977  0  3.226489  0
N  N99  1  0.45594797  0.36692614  0.33878002  1  0  -0.472378  0  2.935301  0  0  -0.425718  0  3.23527  0  0  -0.442854  0  3.240685  0  -1.251139  0  -0.35644  -0.414498  0  3.232028  0
N  N100  1  0.11360490  0.28685802  0.41842298  1  0  0.688513  0  4.155224  0  0  0.717224  0  4.450562  0  0  0.746113  0  4.457137  0  0.839988  0  0.093646  0.697722  0  4.445539  0
N  N101  1  0.38595471  0.86849525  0.58223780  1  0  0.692116  0  4.152923  0  0  0.719809  0  4.449788  0  0  0.748933  0  4.45606  0  0.831742  0  0.093864  0.700151  0  4.444968  0
N  N102  1  0.88639422  0.71314477  0.58158128  1  0  0.688557  0  4.155104  0  0  0.717267  0  4.450437  0  0  0.746155  0  4.457013  0  0.83962  0  0.093676  0.697766  0  4.445417  0
N  N103  1  0.61404372  0.13150431  0.41776416  1  0  0.692286  0  4.152959  0  0  0.720028  0  4.449752  0  0  0.749156  0  4.456018  0  0.831304  0  0.093957  0.700367  0  4.444937  0
O  O104  1  0.02715649  0.20916861  0.32226175  1  0  -0.525483  0  1.906856  0  0  -0.495204  0  2.184665  0  0  -0.515808  0  2.171682  0  -0.590045  0  -0.22168  -0.480513  0  2.193145  0
O  O105  1  0.47120936  0.88686699  0.67822757  1  0  -0.527065  0  1.893069  0  0  -0.497814  0  2.169135  0  0  -0.518219  0  2.15637  0  -0.590045  0  -0.22161  -0.483267  0  2.177519  0
O  O106  1  0.97284212  0.79083176  0.67774130  1  0  -0.525479  0  1.906838  0  0  -0.495206  0  2.184681  0  0  -0.51581  0  2.171696  0  -0.589751  0  -0.221681  -0.480514  0  2.193155  0
O  O107  1  0.52878638  0.11313418  0.32177628  1  0  -0.527156  0  1.893213  0  0  -0.497909  0  2.169239  0  0  -0.518317  0  2.156473  0  -0.589505  0  -0.221617  -0.483362  0  2.177626  0
O  O108  1  0.25791737  0.26869936  0.47519117  1  0  -0.442679  0  1.757585  0  0  -0.425978  0  1.969719  0  0  -0.441404  0  1.965315  0  -0.529192  0  -0.17743  -0.415083  0  1.972456  0
O  O109  1  0.24107419  0.79428477  0.52489568  1  0  -0.445814  0  1.756597  0  0  -0.428667  0  1.969329  0  0  -0.444431  0  1.965191  0  -0.521299  0  -0.179293  -0.417563  0  1.971936  0
O  O110  1  0.74207989  0.73130182  0.52481213  1  0  -0.442656  0  1.757525  0  0  -0.425956  0  1.96967  0  0  -0.441376  0  1.965258  0  -0.529195  0  -0.177432  -0.415068  0  1.972416  0
O  O111  1  0.75892104  0.20571398  0.47510831  1  0  -0.445836  0  1.75666  0  0  -0.428726  0  1.969406  0  0  -0.44449  0  1.965266  0  -0.521269  0  -0.179316  -0.41762  0  1.972014  0
O  O112  1  0.04892816  0.37835623  0.45121370  1  0  -0.459405  0  1.761132  0  0  -0.444137  0  1.976357  0  0  -0.459658  0  1.970199  0  -0.534455  0  -0.184016  -0.433062  0  1.980218  0
O  O113  1  0.45198580  0.92647368  0.54977696  1  0  -0.463399  0  1.758726  0  0  -0.447494  0  1.974139  0  0  -0.46322  0  1.967922  0  -0.53641  0  -0.185222  -0.436218  0  1.977927  0
O  O114  1  0.95107214  0.62164495  0.54878854  1  0  -0.459438  0  1.761004  0  0  -0.444189  0  1.976231  0  0  -0.459711  0  1.970075  0  -0.53439  0  -0.18405  -0.433105  0  1.980071  0
O  O115  1  0.54801230  0.07352426  0.45022419  1  0  -0.463481  0  1.758667  0  0  -0.447623  0  1.97409  0  0  -0.463346  0  1.967863  0  -0.536535  0  -0.185295  -0.436347  0  1.97788  0
