# generated using pymatgen
data_ZnH10C16N2O5
_symmetry_space_group_name_H-M   'P 1'
_cell_length_a   7.92388139
_cell_length_b   7.98958976
_cell_length_c   13.19675431
_cell_angle_alpha   107.81546283
_cell_angle_beta   101.38644681
_cell_angle_gamma   98.91607710
_symmetry_Int_Tables_number   1
_chemical_formula_structural   ZnH10C16N2O5
_chemical_formula_sum   'Zn2 H20 C32 N4 O10'
_cell_volume   758.70015806
_cell_formula_units_Z   2
loop_
 _symmetry_equiv_pos_site_id
 _symmetry_equiv_pos_as_xyz
  1  'x, y, z'
loop_
 _atom_site_type_symbol
 _atom_site_label
 _atom_site_symmetry_multiplicity
 _atom_site_fract_x
 _atom_site_fract_y
 _atom_site_fract_z
 _atom_site_occupancy
 _atom_site_hle17_bader_spin_density
 _atom_site_hle17_ddec_charge
 _atom_site_hle17_ddec_spin_density
 _atom_site_hle17_ddec_sum_bond_order
 _atom_site_hle17_magmom
 _atom_site_hse06_10hf_bader_spin_density
 _atom_site_hse06_10hf_ddec_charge
 _atom_site_hse06_10hf_ddec_spin_density
 _atom_site_hse06_10hf_ddec_sum_bond_order
 _atom_site_hse06_10hf_magmom
 _atom_site_hse06_bader_spin_density
 _atom_site_hse06_ddec_charge
 _atom_site_hse06_ddec_spin_density
 _atom_site_hse06_ddec_sum_bond_order
 _atom_site_hse06_magmom
 _atom_site_pbe_bader_spin_density
 _atom_site_pbe_cm5_charge
 _atom_site_pbe_ddec_charge
 _atom_site_pbe_ddec_spin_density
 _atom_site_pbe_ddec_sum_bond_order
 _atom_site_pbe_magmom
Zn  Zn0  1  0.23989521  0.63451940  0.17367871  1  0  1.026766  0  1.822993  0  0  0.8361  0  2.2866  0  0  0.885737  0  2.230533  0  0  0.683056  0.801598  0  2.325092  0
Zn  Zn1  1  0.76010427  0.36548417  0.82632043  1  0  1.026771  0  1.82296  0  0  0.836116  0  2.286574  0  0  0.885741  0  2.230502  0  0  0.683051  0.801611  0  2.325065  0
H  H2  1  0.04497222  0.83098596  0.34528114  1  0  0.083864  0  0.938492  0  0  0.095263  0  0.997577  0  0  0.097593  0  0.995373  0  0  0.11909  0.093475  0  0.999291  0
H  H3  1  0.95501787  0.16900422  0.65471765  1  0  0.083795  0  0.93853  0  0  0.09522  0  0.997578  0  0  0.097552  0  0.995367  0  0  0.119086  0.093427  0  0.999308  0
H  H4  1  0.10805606  0.94885014  0.55267975  1  0  0.099389  0  0.954678  0  0  0.112552  0  1.010656  0  0  0.115219  0  1.010668  0  0  0.106681  0.110651  0  1.010805  0
H  H5  1  0.89193058  0.05113609  0.44732024  1  0  0.099307  0  0.954756  0  0  0.112552  0  1.010653  0  0  0.115222  0  1.01066  0  0  0.106673  0.110646  0  1.010808  0
H  H6  1  0.38883757  0.91391226  0.66522538  1  0  0.123551  0  0.949383  0  0  0.135288  0  1.004304  0  0  0.138428  0  1.001923  0  0  0.114527  0.132949  0  1.00611  0
H  H7  1  0.61115748  0.08608870  0.33477507  1  0  0.123523  0  0.949337  0  0  0.135256  0  1.004271  0  0  0.138394  0  1.001893  0  0  0.114521  0.132916  0  1.006073  0
H  H8  1  0.66423783  0.79395906  0.66790306  1  0  0.132304  0  0.956703  0  0  0.140073  0  1.019085  0  0  0.143549  0  1.016878  0  0  0.108899  0.137444  0  1.020882  0
H  H9  1  0.33575751  0.20604318  0.33209612  1  0  0.132266  0  0.956741  0  0  0.140042  0  1.01913  0  0  0.143519  0  1.01692  0  0  0.108894  0.137437  0  1.020896  0
H  H10  1  0.85145268  0.63021360  0.56660041  1  0  0.101487  0  0.952608  0  0  0.112897  0  1.014045  0  0  0.115835  0  1.012709  0  0  0.102684  0.110774  0  1.015098  0
H  H11  1  0.14853703  0.36978067  0.43339979  1  0  0.101448  0  0.952583  0  0  0.112851  0  1.014046  0  0  0.115789  0  1.01271  0  0  0.102666  0.110727  0  1.015097  0
H  H12  1  0.90842959  0.46330195  0.37945244  1  0  0.094583  0  0.948765  0  0  0.106032  0  1.010738  0  0  0.108904  0  1.008857  0  0  0.105782  0.103954  0  1.012137  0
H  H13  1  0.09157283  0.53670317  0.62055110  1  0  0.094633  0  0.94881  0  0  0.106072  0  1.010788  0  0  0.108944  0  1.008909  0  0  0.105813  0.103996  0  1.012187  0
H  H14  1  0.80742716  0.35917864  0.17436001  1  0  0.116263  0  0.960962  0  0  0.124171  0  1.021525  0  0  0.126492  0  1.021988  0  0  0.111304  0.122431  0  1.021462  0
H  H15  1  0.19258087  0.64083441  0.82564175  1  0  0.116241  0  0.961012  0  0  0.124125  0  1.021598  0  0  0.126447  0  1.022057  0  0  0.111288  0.122385  0  1.021536  0
H  H16  1  0.53489792  0.43251803  0.08537830  1  0  0.095657  0  0.933559  0  0  0.101573  0  0.998231  0  0  0.104674  0  0.995011  0  0  0.121946  0.099241  0  1.000646  0
H  H17  1  0.46510621  0.56749490  0.91462070  1  0  0.095571  0  0.933629  0  0  0.101533  0  0.998254  0  0  0.104633  0  0.995036  0  0  0.121952  0.099198  0  1.000673  0
H  H18  1  0.94837216  0.68964959  0.06687639  1  0  0.430203  0  0.869273  0  0  0.397501  0  0.9343  0  0  0.408851  0  0.918002  0  0  0.292112  0.389478  0  0.945805  0
H  H19  1  0.05162609  0.31034847  0.93311939  1  0  0.430215  0  0.869251  0  0  0.397537  0  0.934254  0  0  0.408896  0  0.917943  0  0  0.292103  0.38951  0  0.945766  0
H  H20  1  0.05531110  0.87036509  0.15948700  1  0  0.415619  0  0.840262  0  0  0.390952  0  0.90994  0  0  0.399114  0  0.900806  0  0  0.307954  0.385143  0  0.916465  0
H  H21  1  0.94468332  0.12963306  0.84051062  1  0  0.41562  0  0.840304  0  0  0.390952  0  0.909978  0  0  0.399114  0  0.900843  0  0  0.307934  0.385145  0  0.916501  0
C  C22  1  0.46648277  0.96604595  0.02882100  1  0  -0.137172  0  3.71872  0  0  -0.135978  0  3.976073  0  0  -0.139616  0  3.994933  0  0  -0.03633  -0.133723  0  3.963434  0
C  C23  1  0.53352673  0.03396205  0.97118689  1  0  -0.136994  0  3.718778  0  0  -0.135784  0  3.976122  0  0  -0.139418  0  3.994972  0  0  -0.036218  -0.133539  0  3.963484  0
C  C24  1  0.38766655  0.88352913  0.09736315  1  0  0.6918  0  4.02939  0  0  0.643996  0  4.315847  0  0  0.680204  0  4.303166  0  0  0.201054  0.619435  0  4.323718  0
C  C25  1  0.61233629  0.11647205  0.90264204  1  0  0.691749  0  4.029495  0  0  0.643939  0  4.315968  0  0  0.680149  0  4.303284  0  0  0.201041  0.619391  0  4.32382  0
C  C26  1  0.16411468  0.81877306  0.39754174  1  0  0.147521  0  3.701297  0  0  0.112156  0  3.959619  0  0  0.121118  0  3.976626  0  0  0.056715  0.10641  0  3.94796  0
C  C27  1  0.83587946  0.18122378  0.60245638  1  0  0.147504  0  3.701347  0  0  0.112119  0  3.959725  0  0  0.121082  0  3.976732  0  0  0.056714  0.106369  0  3.948064  0
C  C28  1  0.20053968  0.88351641  0.51313014  1  0  -0.133202  0  3.751832  0  0  -0.147433  0  4.012673  0  0  -0.155366  0  4.034293  0  0  -0.086394  -0.142336  0  3.998064  0
C  C29  1  0.79945390  0.11647788  0.48687052  1  0  -0.13299  0  3.751816  0  0  -0.147276  0  4.012639  0  0  -0.155214  0  4.034267  0  0  -0.086322  -0.142178  0  3.998027  0
C  C30  1  0.35367898  0.86381154  0.57527952  1  0  -0.030317  0  3.647817  0  0  -0.058063  0  3.89668  0  0  -0.053921  0  3.912796  0  0  -0.058601  -0.060592  0  3.885753  0
C  C31  1  0.64631805  0.13618673  0.42472071  1  0  -0.030388  0  3.64766  0  0  -0.058146  0  3.896566  0  0  -0.054006  0  3.912684  0  0  -0.058671  -0.060671  0  3.885629  0
C  C32  1  0.46970017  0.77662337  0.52092486  1  0  0.02572  0  3.775609  0  0  0.04425  0  4.006512  0  0  0.04097  0  4.030992  0  0  3e-05  0.046236  0  3.990031  0
C  C33  1  0.53030033  0.22337893  0.47907570  1  0  0.025751  0  3.775538  0  0  0.044242  0  4.006421  0  0  0.040961  0  4.030902  0  0  5.2e-05  0.046224  0  3.989944  0
C  C34  1  0.62866623  0.74556524  0.57812528  1  0  -0.088567  0  3.695303  0  0  -0.114203  0  3.95154  0  0  -0.116548  0  3.9739  0  0  -0.079643  -0.112423  0  3.936468  0
C  C35  1  0.37133168  0.25443702  0.42187421  1  0  -0.08845  0  3.695087  0  0  -0.114103  0  3.951347  0  0  -0.116447  0  3.973706  0  0  -0.079579  -0.11234  0  3.936252  0
C  C36  1  0.73303748  0.65510831  0.52109829  1  0  -0.108687  0  3.748462  0  0  -0.132371  0  4.009043  0  0  -0.136805  0  4.033006  0  0  -0.087038  -0.12934  0  3.992783  0
C  C37  1  0.26695573  0.34489010  0.47890454  1  0  -0.108699  0  3.748367  0  0  -0.132381  0  4.00897  0  0  -0.136818  0  4.032939  0  0  -0.087085  -0.12935  0  3.992708  0
C  C38  1  0.68872710  0.59030865  0.40310367  1  0  0.023022  0  3.812316  0  0  0.037868  0  4.045222  0  0  0.035745  0  4.070784  0  0  -0.002516  0.039212  0  4.027879  0
C  C39  1  0.31126987  0.40969509  0.59689899  1  0  0.023014  0  3.812379  0  0  0.037853  0  4.045315  0  0  0.035729  0  4.070879  0  0  -0.002482  0.0392  0  4.027971  0
C  C40  1  0.78847862  0.49265089  0.33903588  1  0  -0.056238  0  3.695476  0  0  -0.080387  0  3.946214  0  0  -0.079243  0  3.965198  0  0  -0.06417  -0.080871  0  3.933194  0
C  C41  1  0.21151734  0.50735417  0.66096613  1  0  -0.056417  0  3.695572  0  0  -0.080571  0  3.946337  0  0  -0.079426  0  3.965321  0  0  -0.064262  -0.081055  0  3.933321  0
C  C42  1  0.73353356  0.43480617  0.22541277  1  0  -0.084818  0  3.687143  0  0  -0.099191  0  3.940523  0  0  -0.10514  0  3.961302  0  0  -0.070711  -0.09543  0  3.926669  0
C  C43  1  0.26646398  0.56520016  0.77458812  1  0  -0.084684  0  3.68715  0  0  -0.099028  0  3.940524  0  0  -0.104978  0  3.961303  0  0  -0.070657  -0.095265  0  3.926672  0
C  C44  1  0.57927429  0.47544522  0.17491523  1  0  0.168536  0  3.643279  0  0  0.134046  0  3.898312  0  0  0.142385  0  3.913603  0  0  0.068589  0.128574  0  3.888019  0
C  C45  1  0.42072540  0.52456506  0.82508432  1  0  0.168595  0  3.643264  0  0  0.134068  0  3.898295  0  0  0.142406  0  3.913586  0  0  0.068538  0.128597  0  3.888003  0
C  C46  1  0.53374117  0.62215656  0.34465110  1  0  0.127168  0  3.765512  0  0  0.123021  0  3.998432  0  0  0.126243  0  4.021232  0  0  0.116638  0.12086  0  3.983046  0
C  C47  1  0.46625616  0.37784306  0.65534939  1  0  0.127311  0  3.765511  0  0  0.123111  0  3.99841  0  0  0.126333  0  4.02121  0  0  0.116702  0.12095  0  3.983026  0
C  C48  1  0.42196753  0.71478709  0.40410820  1  0  0.134297  0  3.756139  0  0  0.125232  0  3.992378  0  0  0.130176  0  4.014335  0  0  0.121196  0.121944  0  3.97761  0
C  C49  1  0.57803008  0.28521381  0.59589103  1  0  0.13421  0  3.756152  0  0  0.125296  0  3.992206  0  0  0.130241  0  4.014163  0  0  0.121187  0.122008  0  3.97744  0
C  C50  1  0.08463263  0.25704437  0.11595462  1  0  0.716646  0  3.974269  0  0  0.661097  0  4.273385  0  0  0.697819  0  4.259095  0  0  0.216872  0.636173  0  4.282445  0
C  C51  1  0.91538374  0.74294833  0.88404162  1  0  0.716676  0  3.974271  0  0  0.661109  0  4.273424  0  0  0.697811  0  4.259153  0  0  0.216832  0.636182  0  4.28249  0
C  C52  1  0.02514792  0.07489247  0.03521028  1  0  -0.150713  0  3.717046  0  0  -0.146092  0  3.970112  0  0  -0.149509  0  3.987897  0  0  -0.031371  -0.144099  0  3.958485  0
C  C53  1  0.97487221  0.92510557  0.96478580  1  0  -0.150654  0  3.716851  0  0  -0.14601  0  3.969922  0  0  -0.149428  0  3.987714  0  0  -0.031323  -0.144024  0  3.958304  0
N  N54  1  0.48279692  0.56643081  0.23324869  1  0  -0.345386  0  3.279427  0  0  -0.275056  0  3.546308  0  0  -0.293457  0  3.562852  0  0  -0.314141  -0.262635  0  3.535044  0
N  N55  1  0.51720258  0.43357279  0.76675122  1  0  -0.345457  0  3.279383  0  0  -0.275098  0  3.546255  0  0  -0.2935  0  3.562802  0  0  -0.314131  -0.262676  0  3.534995  0
N  N56  1  0.27194385  0.73702354  0.34465806  1  0  -0.346868  0  3.291123  0  0  -0.273239  0  3.568023  0  0  -0.292016  0  3.581822  0  0  -0.317371  -0.260722  0  3.558687  0
N  N57  1  0.72805385  0.26297196  0.65534026  1  0  -0.346803  0  3.291043  0  0  -0.273239  0  3.56793  0  0  -0.292017  0  3.58173  0  0  -0.317391  -0.260721  0  3.558596  0
O  O58  1  0.32773200  0.71080913  0.05543583  1  0  -0.624112  0  1.991379  0  0  -0.554898  0  2.239487  0  0  -0.584136  0  2.226414  0  0  -0.315595  -0.534394  0  2.247734  0
O  O59  1  0.67227334  0.28919181  0.94456431  1  0  -0.624114  0  1.991433  0  0  -0.554903  0  2.23955  0  0  -0.584142  0  2.226474  0  0  -0.315591  -0.534399  0  2.247792  0
O  O60  1  0.38179201  0.98093434  0.19103399  1  0  -0.619811  0  1.914686  0  0  -0.575308  0  2.13763  0  0  -0.598573  0  2.127161  0  0  -0.312053  -0.558795  0  2.144273  0
O  O61  1  0.61820445  0.01906135  0.80896800  1  0  -0.61979  0  1.914639  0  0  -0.575279  0  2.137584  0  0  -0.598545  0  2.127115  0  0  -0.312036  -0.558766  0  2.144218  0
O  O62  1  0.11721098  0.38072662  0.07254661  1  0  -0.644358  0  2.061496  0  0  -0.556891  0  2.307408  0  0  -0.588437  0  2.291894  0  0  -0.307931  -0.534962  0  2.31753  0
O  O63  1  0.88280019  0.61927161  0.92745299  1  0  -0.644336  0  2.061656  0  0  -0.556876  0  2.307594  0  0  -0.588371  0  2.292049  0  0  -0.307892  -0.534941  0  2.317707  0
O  O64  1  0.09863130  0.28286768  0.21541111  1  0  -0.577527  0  1.854433  0  0  -0.537682  0  2.069644  0  0  -0.558522  0  2.059151  0  0  -0.30255  -0.522867  0  2.076293  0
O  O65  1  0.90137742  0.71711955  0.78458255  1  0  -0.577542  0  1.854455  0  0  -0.53771  0  2.069723  0  0  -0.558552  0  2.059244  0  0  -0.302499  -0.522888  0  2.076361  0
O  O66  1  0.00729796  0.74363863  0.14817300  1  0  -0.806753  0  1.886243  0  0  -0.747418  0  2.0853  0  0  -0.767918  0  2.056229  0  0  -0.568835  -0.732936  0  2.105476  0
O  O67  1  0.99269774  0.25635949  0.85182401  1  0  -0.806752  0  1.886289  0  0  -0.747448  0  2.08528  0  0  -0.767949  0  2.056198  0  0  -0.56879  -0.732964  0  2.105456  0
