# generated using pymatgen
data_ZnH14C14(NO2)4
_symmetry_space_group_name_H-M   'P 1'
_cell_length_a   7.41330254
_cell_length_b   9.38448681
_cell_length_c   12.67036695
_cell_angle_alpha   105.52013657
_cell_angle_beta   90.00281239
_cell_angle_gamma   113.24876244
_symmetry_Int_Tables_number   1
_chemical_formula_structural   ZnH14C14(NO2)4
_chemical_formula_sum   'Zn2 H28 C28 N8 O16'
_cell_volume   774.79108442
_cell_formula_units_Z   2
loop_
 _symmetry_equiv_pos_site_id
 _symmetry_equiv_pos_as_xyz
  1  'x, y, z'
loop_
 _atom_site_type_symbol
 _atom_site_label
 _atom_site_symmetry_multiplicity
 _atom_site_fract_x
 _atom_site_fract_y
 _atom_site_fract_z
 _atom_site_occupancy
 _atom_site_hle17_bader_spin_density
 _atom_site_hle17_ddec_charge
 _atom_site_hle17_ddec_spin_density
 _atom_site_hle17_ddec_sum_bond_order
 _atom_site_hle17_magmom
 _atom_site_hse06_10hf_bader_spin_density
 _atom_site_hse06_10hf_ddec_charge
 _atom_site_hse06_10hf_ddec_spin_density
 _atom_site_hse06_10hf_ddec_sum_bond_order
 _atom_site_hse06_10hf_magmom
 _atom_site_hse06_bader_spin_density
 _atom_site_hse06_ddec_charge
 _atom_site_hse06_ddec_spin_density
 _atom_site_hse06_ddec_sum_bond_order
 _atom_site_hse06_magmom
 _atom_site_pbe_bader_spin_density
 _atom_site_pbe_cm5_charge
 _atom_site_pbe_ddec_charge
 _atom_site_pbe_ddec_spin_density
 _atom_site_pbe_ddec_sum_bond_order
 _atom_site_pbe_magmom
Zn  Zn0  1  0.85418708  0.99998855  0.74987539  1  0  1.147381  0  1.761301  0  0  0.971882  0  2.253274  0  0  1.02271  0  2.184874  0  0  0.680493  0.936401  0  2.300389  0
Zn  Zn1  1  0.14581352  0.00001141  0.25012532  1  0  1.147389  0  1.761281  0  0  0.97189  0  2.253249  0  0  1.022722  0  2.184848  0  0  0.680493  0.936407  0  2.300364  0
H  H2  1  0.21298948  0.86648820  0.65128952  1  0  0.131675  0  0.925388  0  0  0.139917  0  0.991794  0  0  0.142547  0  0.990162  0  0  0.121993  0.138017  0  0.993065  0
H  H3  1  0.34684787  0.13364722  0.84872257  1  0  0.131581  0  0.925655  0  0  0.140208  0  0.991535  0  0  0.142813  0  0.989937  0  0  0.122044  0.138084  0  0.993087  0
H  H4  1  0.78701051  0.13351055  0.34871095  1  0  0.131665  0  0.925395  0  0  0.139911  0  0.991799  0  0  0.14254  0  0.99017  0  0  0.121991  0.138009  0  0.993071  0
H  H5  1  0.65315199  0.86635396  0.15127837  1  0  0.131573  0  0.925618  0  0  0.140221  0  0.991497  0  0  0.14282  0  0.989892  0  0  0.122038  0.138092  0  0.993046  0
H  H6  1  0.24440382  0.85623247  0.50989456  1  0  0.130804  0  0.91772  0  0  0.143024  0  0.975106  0  0  0.145767  0  0.973414  0  0  0.126133  0.14093  0  0.97664  0
H  H7  1  0.38858528  0.14390728  0.99010758  1  0  0.13123  0  0.917059  0  0  0.143168  0  0.974851  0  0  0.145894  0  0.973207  0  0  0.126163  0.141165  0  0.976157  0
H  H8  1  0.75559678  0.14376750  0.49010536  1  0  0.130792  0  0.917723  0  0  0.143017  0  0.975108  0  0  0.145759  0  0.973418  0  0  0.126132  0.140921  0  0.976645  0
H  H9  1  0.61141457  0.85609390  0.00989337  1  0  0.131188  0  0.917074  0  0  0.143141  0  0.97487  0  0  0.14586  0  0.973225  0  0  0.126164  0.141137  0  0.976178  0
H  H10  1  0.38251433  0.67574786  0.71935483  1  0  0.143551  0  0.952214  0  0  0.146326  0  1.020512  0  0  0.150843  0  1.014509  0  0  0.149267  0.143104  0  1.024775  0
H  H11  1  0.70701549  0.32423657  0.78061857  1  0  0.143893  0  0.952187  0  0  0.146763  0  1.020086  0  0  0.15123  0  1.01416  0  0  0.149178  0.143143  0  1.024827  0
H  H12  1  0.61748822  0.32425331  0.28064453  1  0  0.143555  0  0.952251  0  0  0.14629  0  1.020593  0  0  0.150807  0  1.014589  0  0  0.149261  0.143095  0  1.024805  0
H  H13  1  0.29298376  0.67576340  0.21938134  1  0  0.143926  0  0.952145  0  0  0.146762  0  1.020081  0  0  0.151228  0  1.014156  0  0  0.149181  0.143141  0  1.024819  0
H  H14  1  0.17388708  0.58767964  0.38677703  1  0  0.143284  0  0.963442  0  0  0.150927  0  1.025404  0  0  0.154424  0  1.023041  0  0  0.131207  0.148353  0  1.027257  0
H  H15  1  0.58651292  0.41261802  0.11319766  1  0  0.143384  0  0.963365  0  0  0.151182  0  1.025  0  0  0.154646  0  1.022703  0  0  0.131344  0.148579  0  1.026845  0
H  H16  1  0.82611095  0.41231790  0.61322241  1  0  0.143272  0  0.963443  0  0  0.150914  0  1.025406  0  0  0.15441  0  1.023046  0  0  0.131197  0.148341  0  1.02726  0
H  H17  1  0.41348693  0.58738315  0.88680250  1  0  0.143393  0  0.963377  0  0  0.151191  0  1.025016  0  0  0.154655  0  1.022718  0  0  0.131357  0.14859  0  1.026862  0
H  H18  1  0.20606361  0.30820531  0.41067018  1  0  0.131351  0  0.964345  0  0  0.138678  0  1.029167  0  0  0.142085  0  1.02672  0  0  0.129522  0.136215  0  1.031091  0
H  H19  1  0.89815026  0.69195910  0.08923115  1  0  0.131598  0  0.963625  0  0  0.138494  0  1.028876  0  0  0.141932  0  1.026371  0  0  0.129582  0.135989  0  1.030809  0
H  H20  1  0.79393308  0.69179223  0.58933005  1  0  0.13136  0  0.964386  0  0  0.138703  0  1.029169  0  0  0.142107  0  1.026729  0  0  0.129526  0.13624  0  1.031096  0
H  H21  1  0.10184959  0.30804208  0.91076900  1  0  0.131669  0  0.963574  0  0  0.138577  0  1.028803  0  0  0.14202  0  1.026294  0  0  0.129598  0.136074  0  1.030737  0
H  H22  1  0.44063313  0.40144244  0.69379403  1  0  0.126165  0  0.935543  0  0  0.136622  0  1.000688  0  0  0.13907  0  0.999342  0  0  0.121663  0.134826  0  1.001801  0
H  H23  1  0.03929619  0.59845486  0.80604867  1  0  0.126645  0  0.934506  0  0  0.136491  0  1.000267  0  0  0.138943  0  0.998948  0  0  0.121515  0.134765  0  1.001348  0
H  H24  1  0.55936612  0.59855753  0.30620668  1  0  0.126154  0  0.935554  0  0  0.136604  0  1.000705  0  0  0.139055  0  0.999356  0  0  0.121655  0.134808  0  1.001817  0
H  H25  1  0.96070441  0.40154510  0.19395125  1  0  0.126646  0  0.934506  0  0  0.136491  0  1.000269  0  0  0.138945  0  0.998948  0  0  0.121515  0.134765  0  1.001348  0
H  H26  1  0.32983584  0.24327471  0.56946754  1  0  0.137399  0  0.921929  0  0  0.145457  0  0.985235  0  0  0.149016  0  0.982563  0  0  0.122507  0.1431  0  0.987075  0
H  H27  1  0.08658344  0.75677664  0.93031529  1  0  0.137329  0  0.921922  0  0  0.145916  0  0.984277  0  0  0.149458  0  0.981623  0  0  0.122592  0.143234  0  0.986432  0
H  H28  1  0.67016416  0.75672404  0.43053293  1  0  0.137401  0  0.921933  0  0  0.145456  0  0.985236  0  0  0.149014  0  0.982565  0  0  0.122519  0.143099  0  0.987077  0
H  H29  1  0.91341716  0.24322332  0.06968462  1  0  0.137336  0  0.921906  0  0  0.145927  0  0.98426  0  0  0.149468  0  0.981602  0  0  0.122593  0.143245  0  0.986416  0
C  C30  1  0.51565905  0.96447056  0.62090143  1  0  0.687982  0  3.880381  0  0  0.638636  0  4.186286  0  0  0.671354  0  4.180137  0  0  0.210511  0.61644  0  4.189748  0
C  C31  1  0.55169724  0.03574080  0.87910118  1  0  0.688758  0  3.877907  0  0  0.640196  0  4.182511  0  0  0.673012  0  4.176339  0  0  0.210853  0.61796  0  4.186295  0
C  C32  1  0.48434155  0.03552940  0.37909927  1  0  0.687939  0  3.880418  0  0  0.638561  0  4.186365  0  0  0.67128  0  4.180218  0  0  0.210487  0.616362  0  4.189829  0
C  C33  1  0.44830336  0.96425916  0.12089953  1  0  0.688638  0  3.878129  0  0  0.640141  0  4.182647  0  0  0.672951  0  4.176475  0  0  0.210842  0.617905  0  4.18643  0
C  C34  1  0.30005413  0.84091715  0.58433554  1  0  -0.173805  0  3.588355  0  0  -0.231912  0  3.83268  0  0  -0.233175  0  3.838925  0  0  -0.052628  -0.230678  0  3.828343  0
C  C35  1  0.45951813  0.15923860  0.91566680  1  0  -0.173499  0  3.586332  0  0  -0.231732  0  3.830767  0  0  -0.233143  0  3.837158  0  0  -0.052139  -0.230908  0  3.827084  0
C  C36  1  0.69994512  0.15908281  0.41566438  1  0  -0.173799  0  3.588294  0  0  -0.23191  0  3.832649  0  0  -0.233175  0  3.838899  0  0  -0.052635  -0.230675  0  3.828313  0
C  C37  1  0.54048112  0.84076136  0.08433391  1  0  -0.173403  0  3.586251  0  0  -0.231718  0  3.830748  0  0  -0.233095  0  3.837095  0  0  -0.052125  -0.230888  0  3.827057  0
C  C38  1  0.32391032  0.61014679  0.63345729  1  0  0.149908  0  3.492025  0  0  0.077715  0  3.755979  0  0  0.095449  0  3.76111  0  0  0.175328  0.066393  0  3.7525  0
C  C39  1  0.71403121  0.38992140  0.86650024  1  0  0.147949  0  3.496221  0  0  0.076519  0  3.758924  0  0  0.094372  0  3.763955  0  0  0.174657  0.065467  0  3.755181  0
C  C40  1  0.67609163  0.38985318  0.36654262  1  0  0.149847  0  3.492091  0  0  0.077698  0  3.756038  0  0  0.095432  0  3.761167  0  0  0.175324  0.066367  0  3.75254  0
C  C41  1  0.28596865  0.61007977  0.13349991  1  0  0.147927  0  3.496234  0  0  0.076528  0  3.758937  0  0  0.094381  0  3.763973  0  0  0.174646  0.065479  0  3.755187  0
C  C42  1  0.22153645  0.56028701  0.45694640  1  0  -0.033713  0  3.619634  0  0  -0.08137  0  3.892787  0  0  -0.079225  0  3.910475  0  0  0.016965  -0.082958  0  3.881215  0
C  C43  1  0.66154063  0.43991682  0.04300767  1  0  -0.034447  0  3.619424  0  0  -0.08219  0  3.892729  0  0  -0.079997  0  3.910369  0  0  0.017149  -0.083553  0  3.880983  0
C  C44  1  0.77846219  0.43971174  0.54305328  1  0  -0.03374  0  3.619654  0  0  -0.081398  0  3.892816  0  0  -0.079253  0  3.910501  0  0  0.016961  -0.082987  0  3.881247  0
C  C45  1  0.33845862  0.56008314  0.95699145  1  0  -0.03443  0  3.619409  0  0  -0.082176  0  3.892715  0  0  -0.079983  0  3.910359  0  0  0.017148  -0.083542  0  3.880976  0
C  C46  1  0.23366159  0.42399473  0.46957231  1  0  -0.035714  0  3.624171  0  0  -0.08422  0  3.897623  0  0  -0.082581  0  3.915436  0  0  0.012697  -0.085579  0  3.886013  0
C  C47  1  0.80994126  0.57616755  0.03036089  1  0  -0.034273  0  3.62358  0  0  -0.0828  0  3.897802  0  0  -0.081094  0  3.915545  0  0  0.012802  -0.083998  0  3.885847  0
C  C48  1  0.76633766  0.57600523  0.53042760  1  0  -0.035725  0  3.6242  0  0  -0.084236  0  3.897654  0  0  -0.082596  0  3.915472  0  0  0.012701  -0.085597  0  3.886049  0
C  C49  1  0.19005664  0.42383241  0.96963823  1  0  -0.034355  0  3.623622  0  0  -0.082895  0  3.897836  0  0  -0.081191  0  3.915578  0  0  0.012778  -0.084096  0  3.885887  0
C  C50  1  0.31014402  0.34090324  0.63166305  1  0  -0.173006  0  3.592453  0  0  -0.230274  0  3.832912  0  0  -0.231788  0  3.839104  0  0  -0.053904  -0.22875  0  3.828191  0
C  C51  1  0.96933185  0.65904274  0.86816817  1  0  -0.172793  0  3.591685  0  0  -0.229551  0  3.831947  0  0  -0.231112  0  3.838193  0  0  -0.054064  -0.228555  0  3.827824  0
C  C52  1  0.68985598  0.65909551  0.36833742  1  0  -0.172977  0  3.592436  0  0  -0.230228  0  3.832855  0  0  -0.231744  0  3.839046  0  0  -0.053895  -0.228704  0  3.828134  0
C  C53  1  0.03066740  0.34095722  0.13183174  1  0  -0.172783  0  3.591696  0  0  -0.229548  0  3.831965  0  0  -0.231106  0  3.838205  0  0  -0.054071  -0.228553  0  3.827842  0
C  C54  1  0.12452903  0.27261293  0.68822555  1  0  0.6756  0  3.887671  0  0  0.632288  0  4.184011  0  0  0.664686  0  4.178044  0  0  0.208945  0.610322  0  4.187056  0
C  C55  1  0.85174371  0.72712891  0.81156132  1  0  0.67739  0  3.88596  0  0  0.633585  0  4.182514  0  0  0.666066  0  4.176549  0  0  0.20994  0.611607  0  4.185607  0
C  C56  1  0.87546887  0.72738703  0.31177357  1  0  0.675598  0  3.887597  0  0  0.632321  0  4.183889  0  0  0.664719  0  4.177921  0  0  0.208971  0.610352  0  4.186937  0
C  C57  1  0.14825554  0.27287106  0.18843860  1  0  0.677366  0  3.885991  0  0  0.633553  0  4.182552  0  0  0.666033  0  4.176587  0  0  0.20992  0.611572  0  4.185647  0
N  N58  1  0.27683065  0.67348210  0.55990872  1  0  -0.013798  0  3.593958  0  0  0.074184  0  3.815398  0  0  0.060376  0  3.841066  0  0  -0.229639  0.083313  0  3.797798  0
N  N59  1  0.60359807  0.32668053  0.94006195  1  0  -0.012173  0  3.593068  0  0  0.075476  0  3.814593  0  0  0.061723  0  3.840157  0  0  -0.229643  0.084738  0  3.79679  0
N  N60  1  0.72316995  0.32651787  0.44009199  1  0  -0.013713  0  3.593845  0  0  0.074258  0  3.815284  0  0  0.060452  0  3.840948  0  0  -0.229623  0.083384  0  3.797688  0
N  N61  1  0.39640118  0.67331944  0.05993876  1  0  -0.012128  0  3.593036  0  0  0.075527  0  3.814579  0  0  0.061765  0  3.840137  0  0  -0.229652  0.084789  0  3.796773  0
N  N62  1  0.29874270  0.45813398  0.57961252  1  0  -0.018835  0  3.601516  0  0  0.069511  0  3.823627  0  0  0.055867  0  3.849202  0  0  -0.231259  0.078432  0  3.806201  0
N  N63  1  0.84087726  0.54191073  0.92031501  1  0  -0.020548  0  3.605354  0  0  0.067589  0  3.827073  0  0  0.05386  0  3.852819  0  0  -0.230958  0.076799  0  3.809021  0
N  N64  1  0.70125790  0.54186598  0.42038740  1  0  -0.018823  0  3.601544  0  0  0.069504  0  3.823651  0  0  0.05586  0  3.849224  0  0  -0.231257  0.078422  0  3.806229  0
N  N65  1  0.15912064  0.45808923  0.07968411  1  0  -0.020633  0  3.605406  0  0  0.067509  0  3.827118  0  0  0.05378  0  3.852866  0  0  -0.230951  0.07672  0  3.809065  0
O  O66  1  0.64570447  0.90474669  0.62370997  1  0  -0.696926  0  2.057459  0  0  -0.625578  0  2.343891  0  0  -0.654174  0  2.325881  0  0  -0.340865  -0.605736  0  2.356047  0
O  O67  1  0.74137125  0.09552050  0.87613292  1  0  -0.697501  0  2.056964  0  0  -0.626485  0  2.343795  0  0  -0.655131  0  2.325424  0  0  -0.341222  -0.607102  0  2.355817  0
O  O68  1  0.35429418  0.09525207  0.37629050  1  0  -0.696903  0  2.057492  0  0  -0.625518  0  2.343906  0  0  -0.654116  0  2.325894  0  0  -0.340825  -0.605678  0  2.356061  0
O  O69  1  0.25862800  0.90447947  0.12386700  1  0  -0.697454  0  2.057066  0  0  -0.626463  0  2.343882  0  0  -0.655102  0  2.325496  0  0  -0.341203  -0.607076  0  2.355891  0
O  O70  1  0.54550400  0.10996078  0.64626553  1  0  -0.599519  0  1.920984  0  0  -0.553511  0  2.151707  0  0  -0.577306  0  2.145025  0  0  -0.312279  -0.537302  0  2.155987  0
O  O71  1  0.43624367  0.89022020  0.85380488  1  0  -0.599979  0  1.920302  0  0  -0.554125  0  2.15053  0  0  -0.578028  0  2.143838  0  0  -0.312708  -0.538039  0  2.154682  0
O  O72  1  0.45449660  0.89003919  0.35373596  1  0  -0.599513  0  1.921002  0  0  -0.553492  0  2.151745  0  0  -0.577287  0  2.145063  0  0  -0.312291  -0.53728  0  2.15602  0
O  O73  1  0.56375558  0.10977977  0.14619503  1  0  -0.599954  0  1.920369  0  0  -0.554101  0  2.150561  0  0  -0.578005  0  2.143869  0  0  -0.312709  -0.538023  0  2.154713  0
O  O74  1  0.10990464  0.14631747  0.71636133  1  0  -0.664086  0  2.036405  0  0  -0.589609  0  2.307491  0  0  -0.618601  0  2.290525  0  0  -0.332341  -0.569266  0  2.318545  0
O  O75  1  0.96326569  0.85343547  0.78341568  1  0  -0.664753  0  2.036568  0  0  -0.589956  0  2.307947  0  0  -0.618996  0  2.290851  0  0  -0.332712  -0.570023  0  2.319091  0
O  O76  1  0.89009326  0.85368249  0.28363859  1  0  -0.664084  0  2.036312  0  0  -0.589651  0  2.307423  0  0  -0.618644  0  2.290456  0  0  -0.332385  -0.569311  0  2.318478  0
O  O77  1  0.03673552  0.14656570  0.21658447  1  0  -0.664748  0  2.036582  0  0  -0.589941  0  2.30795  0  0  -0.618984  0  2.290865  0  0  -0.332704  -0.570009  0  2.319097  0
O  O78  1  0.00929538  0.34113135  0.70518637  1  0  -0.622578  0  1.978077  0  0  -0.583444  0  2.218644  0  0  -0.60655  0  2.211198  0  0  -0.314056  -0.567081  0  2.223341  0
O  O79  1  0.66805877  0.65847986  0.79459353  1  0  -0.622906  0  1.976923  0  0  -0.583995  0  2.218328  0  0  -0.607243  0  2.210791  0  0  -0.314622  -0.567836  0  2.222403  0
O  O80  1  0.99070387  0.65886860  0.29481118  1  0  -0.622579  0  1.978093  0  0  -0.583452  0  2.218633  0  0  -0.606558  0  2.211185  0  0  -0.314055  -0.56709  0  2.223331  0
O  O81  1  0.33194109  0.34152132  0.20540741  1  0  -0.622896  0  1.976902  0  0  -0.583971  0  2.218296  0  0  -0.607222  0  2.210764  0  0  -0.314624  -0.567816  0  2.222374  0
