# generated using pymatgen
data_Cu2H8C4SI2
_symmetry_space_group_name_H-M   'P 1'
_cell_length_a   11.51331096
_cell_length_b   11.67717244
_cell_length_c   13.37620000
_cell_angle_alpha   90.00000000
_cell_angle_beta   90.00000000
_cell_angle_gamma   90.00000000
_symmetry_Int_Tables_number   1
_chemical_formula_structural   Cu2H8C4SI2
_chemical_formula_sum   'Cu16 H64 C32 S8 I16'
_cell_volume   1798.33535313
_cell_formula_units_Z   8
loop_
 _symmetry_equiv_pos_site_id
 _symmetry_equiv_pos_as_xyz
  1  'x, y, z'
loop_
 _atom_site_type_symbol
 _atom_site_label
 _atom_site_symmetry_multiplicity
 _atom_site_fract_x
 _atom_site_fract_y
 _atom_site_fract_z
 _atom_site_occupancy
 _atom_site_pbe_bader_charge
 _atom_site_pbe_bader_spin_density
 _atom_site_pbe_cm5_charge
 _atom_site_pbe_ddec_charge
 _atom_site_pbe_ddec_spin_density
 _atom_site_pbe_ddec_sum_bond_order
 _atom_site_pbe_magmom
Cu  Cu0  1  0.50721205  0.25891884  0.79394522  1  0.327714  0  0.181591  0.082989  0  2.804788  0
Cu  Cu1  1  0.99278740  0.74108095  0.29394447  1  0.32771  0  0.181591  0.082989  0  2.804799  0
Cu  Cu2  1  0.49278787  0.75891917  0.70605404  1  0.327649  0  0.181594  0.083006  0  2.804775  0
Cu  Cu3  1  0.00721252  0.24108062  0.20605553  1  0.327659  0  0.181588  0.082977  0  2.804795  0
Cu  Cu4  1  0.30730778  0.24585918  0.88289724  1  0.327087  0  0.179772  0.075556  0  2.836812  0
Cu  Cu5  1  0.19269175  0.75413633  0.38289275  1  0.327109  0  0.179822  0.07559  0  2.836818  0
Cu  Cu6  1  0.69269214  0.74586207  0.61710501  1  0.326986  0  0.179822  0.075602  0  2.836806  0
Cu  Cu7  1  0.80730817  0.25413515  0.11710725  1  0.3271  0  0.179828  0.075607  0  2.836809  0
Cu  Cu8  1  0.43071450  0.05621224  0.85394955  1  0.320331  0  0.181266  0.071534  0  2.880047  0
Cu  Cu9  1  0.06928589  0.94378755  0.35394880  1  0.320344  0  0.181277  0.071564  0  2.879977  0
Cu  Cu10  1  0.56928541  0.55621256  0.64605045  1  0.320336  0  0.181269  0.07152  0  2.880119  0
Cu  Cu11  1  0.93071489  0.44378723  0.14605045  1  0.320419  0  0.181273  0.071537  0  2.880065  0
Cu  Cu12  1  0.50389415  0.20331891  0.98185808  1  0.322101  0  0.178678  0.068886  0  2.889727  0
Cu  Cu13  1  0.99610703  0.79667917  0.48185808  1  0.32222  0  0.178696  0.068915  0  2.889696  0
Cu  Cu14  1  0.49610838  0.70331924  0.51814192  1  0.322228  0  0.178658  0.068858  0  2.889697  0
Cu  Cu15  1  0.00389115  0.29667799  0.01814192  1  0.32223  0  0.178688  0.068926  0  2.889675  0
H  H16  1  0.50748304  0.23981576  0.55494311  1  0.089088  0  0.085859  0.107035  0  1.031447  0
H  H17  1  0.99251640  0.76018403  0.05494161  1  0.089098  0  0.085861  0.107033  0  1.031491  0
H  H18  1  0.49251688  0.73981608  0.94505540  1  0.089081  0  0.085847  0.107006  0  1.031507  0
H  H19  1  0.00748351  0.26018456  0.44505764  1  0.089103  0  0.085862  0.10705  0  1.031469  0
H  H20  1  0.59262014  0.35014555  0.49481467  1  0.056326  0  0.080792  0.098571  0  1.026531  0
H  H21  1  0.90737930  0.64985424  0.99481318  1  0.056339  0  0.080806  0.098592  0  1.026477  0
H  H22  1  0.40737804  0.85014416  0.00518458  1  0.056218  0  0.080807  0.098594  0  1.026485  0
H  H23  1  0.09262149  0.14985477  0.50518608  1  0.056176  0  0.080795  0.098577  0  1.026507  0
H  H24  1  0.71467973  0.17539777  0.48113665  1  0.059672  0  0.085767  0.094501  0  1.010421  0
H  H25  1  0.78531971  0.82460202  0.98113590  1  0.059671  0  0.085779  0.094493  0  1.010379  0
H  H26  1  0.28532105  0.67539467  0.01886036  1  0.059871  0  0.085769  0.094526  0  1.010411  0
H  H27  1  0.21468021  0.32460341  0.51886335  1  0.059747  0  0.085792  0.094555  0  1.010361  0
H  H28  1  0.68156068  0.13730207  0.60648839  1  0.049324  0  0.076404  0.085375  0  1.039294  0
H  H29  1  0.81843963  0.86269772  0.10648689  1  0.049331  0  0.076431  0.085427  0  1.039264  0
H  H30  1  0.31844098  0.63729983  0.89350937  1  0.049249  0  0.076426  0.08541  0  1.039266  0
H  H31  1  0.18156028  0.36269911  0.39351161  1  0.049302  0  0.076425  0.085407  0  1.039233  0
H  H32  1  0.87451473  0.23181811  0.61082370  1  0.029122  0  0.093685  0.098873  0  0.986465  0
H  H33  1  0.62548558  0.76818254  0.11082370  1  0.029121  0  0.093687  0.098859  0  0.986478  0
H  H34  1  0.12548606  0.73181586  0.88917331  1  0.029208  0  0.0937  0.09887  0  0.986451  0
H  H35  1  0.37451434  0.26818307  0.38917630  1  0.029114  0  0.09368  0.098854  0  0.986485  0
H  H36  1  0.82125290  0.34719963  0.53711517  1  0.048129  0  0.075724  0.082366  0  1.029847  0
H  H37  1  0.67874741  0.65280101  0.03711517  1  0.04813  0  0.075726  0.082348  0  1.029841  0
H  H38  1  0.17874615  0.84719653  0.96288333  1  0.048185  0  0.075713  0.082317  0  1.029816  0
H  H39  1  0.32125337  0.15280069  0.46288557  1  0.04813  0  0.075724  0.082342  0  1.029855  0
H  H40  1  0.79383594  0.42983008  0.70000748  1  0.089983  0  0.088084  0.106085  0  1.014883  0
H  H41  1  0.70616611  0.57017399  0.20000673  1  0.089999  0  0.088026  0.106006  0  1.014986  0
H  H42  1  0.20616398  0.92982869  0.79999103  1  0.089942  0  0.088072  0.106088  0  1.014917  0
H  H43  1  0.29383641  0.07017024  0.29999327  1  0.089991  0  0.088077  0.106066  0  1.014891  0
H  H44  1  0.76631041  0.29331758  0.75649736  1  0.11637  0  0.07488  0.091102  0  1.061984  0
H  H45  1  0.73368990  0.70668478  0.25649811  1  0.116368  0  0.074882  0.091067  0  1.061894  0
H  H46  1  0.23368951  0.79331791  0.74350040  1  0.116344  0  0.074894  0.091101  0  1.061935  0
H  H47  1  0.26631001  0.20668274  0.24350339  1  0.116378  0  0.074888  0.0911  0  1.061978  0
H  H48  1  0.08393242  0.20867380  0.73668979  1  0.079816  0  0.085304  0.102937  0  1.041368  0
H  H49  1  0.41606971  0.79132770  0.23669278  1  0.079681  0  0.085289  0.102914  0  1.04138  0
H  H50  1  0.91606837  0.70867498  0.76330871  1  0.079872  0  0.085329  0.10298  0  1.041337  0
H  H51  1  0.58392933  0.29132823  0.26330722  1  0.079853  0  0.085309  0.102942  0  1.04139  0
H  H52  1  0.95553139  0.27740448  0.78508396  1  0.081943  0  0.089874  0.101455  0  1.027153  0
H  H53  1  0.54446805  0.72259531  0.28508695  1  0.081825  0  0.089844  0.101427  0  1.027209  0
H  H54  1  0.04446940  0.77740652  0.71491455  1  0.081831  0  0.089827  0.101412  0  1.027132  0
H  H55  1  0.45553013  0.22259670  0.21491380  1  0.081793  0  0.089879  0.101461  0  1.027237  0
H  H56  1  0.15811264  0.38854183  0.67000718  1  0.033152  0  0.078431  0.084856  0  1.025951  0
H  H57  1  0.34189036  0.61146224  0.17000643  1  0.033254  0  0.078451  0.084923  0  1.025953  0
H  H58  1  0.84188814  0.88854216  0.82999282  1  0.03317  0  0.078443  0.084876  0  1.025967  0
H  H59  1  0.65811130  0.11146277  0.32999432  1  0.033256  0  0.078432  0.084887  0  1.025924  0
H  H60  1  0.00898438  0.39455785  0.63644383  1  0.041719  0  0.092541  0.103571  0  0.990014  0
H  H61  1  0.49101948  0.60544623  0.13644234  1  0.041673  0  0.092556  0.103589  0  0.990024  0
H  H62  1  0.99101640  0.89455817  0.86355617  1  0.041696  0  0.092557  0.103597  0  0.990033  0
H  H63  1  0.50898130  0.10544762  0.36355990  1  0.041654  0  0.092539  0.103589  0  0.989962  0
H  H64  1  0.96537478  0.50890830  0.78928844  1  0.038626  0  0.079168  0.080262  0  1.019506  0
H  H65  1  0.53462380  0.49109063  0.28928619  1  0.039086  0  0.07918  0.080267  0  1.019457  0
H  H66  1  0.03462514  0.00890969  0.71071306  1  0.038624  0  0.079189  0.080281  0  1.019425  0
H  H67  1  0.46537352  0.99109181  0.21071680  1  0.039087  0  0.079186  0.080279  0  1.019473  0
H  H68  1  0.08645384  0.57511183  0.72911514  1  0.047427  0  0.086332  0.096876  0  1.007566  0
H  H69  1  0.41354568  0.42488967  0.22910916  1  0.047504  0  0.086316  0.096873  0  1.007558  0
H  H70  1  0.91354781  0.07511322  0.77088635  1  0.04741  0  0.086327  0.096878  0  1.007544  0
H  H71  1  0.58645076  0.92489000  0.27089233  1  0.047483  0  0.08633  0.096891  0  1.007498  0
H  H72  1  0.10211051  0.51856047  0.92753996  1  0.065966  0  0.089364  0.106697  0  1.011366  0
H  H73  1  0.39789076  0.48143590  0.42753772  1  0.065978  0  0.089369  0.106751  0  1.011249  0
H  H74  1  0.89789028  0.01856357  0.57246004  1  0.065939  0  0.089377  0.106736  0  1.01124  0
H  H75  1  0.60210742  0.98143451  0.07246378  1  0.065996  0  0.089374  0.106765  0  1.011199  0
H  H76  1  0.22331022  0.49354585  0.84619922  1  0.085287  0  0.07866  0.095757  0  1.056465  0
H  H77  1  0.27669365  0.50645308  0.34619623  1  0.085292  0  0.078639  0.095755  0  1.056584  0
H  H78  1  0.77669230  0.99354789  0.65380153  1  0.08529  0  0.078668  0.095779  0  1.056441  0
H  H79  1  0.72330453  0.00645190  0.15380527  1  0.085299  0  0.078625  0.095706  0  1.056595  0
C  C80  1  0.59013085  0.28657965  0.55538120  1  -0.138647  0  -0.154538  -0.166225  0  3.813261  0
C  C81  1  0.90986946  0.71342100  0.05537970  1  -0.138584  0  -0.154557  -0.166279  0  3.81326  0
C  C82  1  0.40986907  0.78657741  0.94461731  1  -0.1389  0  -0.154509  -0.166161  0  3.813209  0
C  C83  1  0.09013133  0.21342153  0.44461880  1  -0.138773  0  -0.154516  -0.166236  0  3.813298  0
C  C84  1  0.69698283  0.20996607  0.55603535  1  -0.040648  0  -0.174307  -0.141323  0  3.923114  0
C  C85  1  0.80301748  0.79003458  0.05603609  1  -0.040653  0  -0.174316  -0.141312  0  3.923033  0
C  C86  1  0.30301709  0.70996382  0.94396391  1  -0.040546  0  -0.174366  -0.141474  0  3.923142  0
C  C87  1  0.19698330  0.29003425  0.44396615  1  -0.040475  0  -0.174363  -0.14143  0  3.923151  0
C  C88  1  0.79721550  0.28373478  0.59427939  1  -0.027891  0  -0.16967  -0.13622  0  3.912911  0
C  C89  1  0.70278481  0.71626586  0.09427939  1  -0.027892  0  -0.169672  -0.136188  0  3.912921  0
C  C90  1  0.20278441  0.78373254  0.90571762  1  -0.028003  0  -0.169623  -0.13608  0  3.912825  0
C  C91  1  0.29721511  0.21626640  0.40571986  1  -0.027876  0  -0.16965  -0.136145  0  3.912946  0
C  C92  1  0.75524756  0.34499362  0.68860364  1  -0.183669  0  -0.156993  -0.171766  0  3.800459  0
C  C93  1  0.74475275  0.65500531  0.18860214  1  -0.183665  0  -0.156962  -0.171657  0  3.800419  0
C  C94  1  0.24475236  0.84499309  0.81139561  1  -0.18362  0  -0.157021  -0.171802  0  3.800422  0
C  C95  1  0.25524717  0.15500670  0.31139711  1  -0.183672  0  -0.157009  -0.171769  0  3.800467  0
C  C96  1  0.04766049  0.28846367  0.76652263  1  -0.152265  0  -0.154861  -0.175627  0  3.826454  0
C  C97  1  0.45234251  0.71153527  0.26652412  1  -0.152115  0  -0.154849  -0.17556  0  3.826442  0
C  C98  1  0.95233943  0.78846485  0.73347662  1  -0.152275  0  -0.154849  -0.175642  0  3.826444  0
C  C99  1  0.54765740  0.21153666  0.23347737  1  -0.152309  0  -0.154911  -0.175659  0  3.826632  0
C  C100  1  0.06922596  0.39224050  0.70014279  1  -0.00426  0  -0.170794  -0.138636  0  3.917439  0
C  C101  1  0.43077356  0.60776186  0.20014130  1  -0.004229  0  -0.170792  -0.1387  0  3.91747  0
C  C102  1  0.93077569  0.89224083  0.79985796  1  -0.004175  0  -0.170825  -0.138689  0  3.917544  0
C  C103  1  0.56922375  0.10776410  0.29985945  1  -0.004098  0  -0.170756  -0.138614  0  3.917385  0
C  C104  1  0.05680382  0.49716659  0.76740554  1  -0.040932  0  -0.171586  -0.137945  0  3.9185  0
C  C105  1  0.44320179  0.50283320  0.26740405  1  -0.041542  0  -0.171586  -0.13793  0  3.918434  0
C  C106  1  0.94319871  0.99716777  0.73259446  1  -0.040971  0  -0.171623  -0.137967  0  3.918453  0
C  C107  1  0.55679726  0.00283373  0.23259820  1  -0.041708  0  -0.171622  -0.13803  0  3.918529  0
C  C108  1  0.13125069  0.47462089  0.85960886  1  -0.128509  0  -0.155474  -0.168464  0  3.799753  0
C  C109  1  0.36874710  0.52537719  0.35960437  1  -0.128476  0  -0.155467  -0.16861  0  3.800035  0
C  C110  1  0.86874923  0.97462293  0.64039339  1  -0.128486  0  -0.155474  -0.168521  0  3.799791  0
C  C111  1  0.63125108  0.02537686  0.14039787  1  -0.128245  0  -0.155469  -0.16855  0  3.80008  0
S  S112  1  0.59774117  0.36540096  0.67381618  1  -0.04263  0  -0.060871  0.157609  0  3.552911  0
S  S113  1  0.90226000  0.63459969  0.17381469  1  -0.042735  0  -0.060865  0.157636  0  3.55286  0
S  S114  1  0.40225961  0.86540043  0.82618382  1  -0.04249  0  -0.060886  0.157598  0  3.55286  0
S  S115  1  0.09774078  0.13459937  0.32618531  1  -0.04264  0  -0.060865  0.157653  0  3.552858  0
S  S116  1  0.12292120  0.31968270  0.88419955  1  -0.043935  0  -0.064455  0.155036  0  3.569329  0
S  S117  1  0.37707919  0.68031538  0.38419805  1  -0.043903  0  -0.064443  0.155077  0  3.569363  0
S  S118  1  0.87707872  0.81968473  0.61580045  1  -0.043923  0  -0.064461  0.155036  0  3.569407  0
S  S119  1  0.62292072  0.18031420  0.11580269  1  -0.043987  0  -0.064428  0.155071  0  3.569347  0
I  I120  1  0.32763990  0.15908474  0.69780730  1  -0.382439  0  -0.150164  -0.227612  0  2.122765  0
I  I121  1  0.17235789  0.84091248  0.19780431  1  -0.382434  0  -0.150173  -0.227644  0  2.122754  0
I  I122  1  0.67236089  0.65908507  0.80219345  1  -0.382392  0  -0.150173  -0.22762  0  2.122743  0
I  I123  1  0.82763855  0.34091472  0.30219420  1  -0.382351  0  -0.150174  -0.227644  0  2.122776  0
I  I124  1  0.45378866  0.41502085  0.93575156  1  -0.366534  0  -0.165878  -0.217252  0  2.109078  0
I  I125  1  0.04620912  0.58497723  0.43575006  1  -0.366521  0  -0.165901  -0.217273  0  2.109073  0
I  I126  1  0.54621038  0.91502288  0.56424919  1  -0.366452  0  -0.165888  -0.217268  0  2.109048  0
I  I127  1  0.95379079  0.08497605  0.06424994  1  -0.366507  0  -0.165901  -0.217272  0  2.109051  0
I  I128  1  0.31016708  0.08651067  0.02634829  1  -0.374666  0  -0.159234  -0.232011  0  2.134674  0
I  I129  1  0.18984113  0.91348398  0.52634156  1  -0.374744  0  -0.159255  -0.232039  0  2.134679  0
I  I130  1  0.68984153  0.58651271  0.47365545  1  -0.374675  0  -0.159233  -0.232012  0  2.134656  0
I  I131  1  0.81015878  0.41348280  0.97365844  1  -0.374727  0  -0.15925  -0.232037  0  2.134706  0
I  I132  1  0.65651662  0.09281699  0.85333428  1  -0.382232  0  -0.153372  -0.234868  0  2.034877  0
I  I133  1  0.84348369  0.90718280  0.35333428  1  -0.382223  0  -0.153375  -0.234876  0  2.034865  0
I  I134  1  0.34348416  0.59281731  0.64666572  1  -0.38222  0  -0.153362  -0.234836  0  2.034859  0
I  I135  1  0.15651536  0.40718162  0.14666497  1  -0.382349  0  -0.153373  -0.234859  0  2.034876  0
