# generated using pymatgen
data_CdH22C25N4O7
_symmetry_space_group_name_H-M   'P 1'
_cell_length_a   10.32432639
_cell_length_b   10.96424145
_cell_length_c   14.03216000
_cell_angle_alpha   89.23319298
_cell_angle_beta   72.47907792
_cell_angle_gamma   75.55638462
_symmetry_Int_Tables_number   1
_chemical_formula_structural   CdH22C25N4O7
_chemical_formula_sum   'Cd2 H44 C50 N8 O14'
_cell_volume   1463.57313595
_cell_formula_units_Z   2
loop_
 _symmetry_equiv_pos_site_id
 _symmetry_equiv_pos_as_xyz
  1  'x, y, z'
loop_
 _atom_site_type_symbol
 _atom_site_label
 _atom_site_symmetry_multiplicity
 _atom_site_fract_x
 _atom_site_fract_y
 _atom_site_fract_z
 _atom_site_occupancy
 _atom_site_hle17_bader_spin_density
 _atom_site_hle17_ddec_charge
 _atom_site_hle17_ddec_spin_density
 _atom_site_hle17_ddec_sum_bond_order
 _atom_site_hle17_magmom
 _atom_site_hse06_10hf_bader_spin_density
 _atom_site_hse06_10hf_ddec_charge
 _atom_site_hse06_10hf_ddec_spin_density
 _atom_site_hse06_10hf_ddec_sum_bond_order
 _atom_site_hse06_10hf_magmom
 _atom_site_hse06_bader_spin_density
 _atom_site_hse06_ddec_charge
 _atom_site_hse06_ddec_spin_density
 _atom_site_hse06_ddec_sum_bond_order
 _atom_site_hse06_magmom
 _atom_site_pbe_bader_spin_density
 _atom_site_pbe_cm5_charge
 _atom_site_pbe_ddec_charge
 _atom_site_pbe_ddec_spin_density
 _atom_site_pbe_ddec_sum_bond_order
 _atom_site_pbe_magmom
Cd  Cd0  1  0.89459594  0.36052046  0.73869028  1  0  1.107294  0  1.724752  0  0  0.914876  0  2.174413  0  0  0.971566  0  2.122617  0  0  0.766659  0.871569  0  2.211842  0
Cd  Cd1  1  0.10540320  0.63947839  0.26130919  1  0  1.107286  0  1.724697  0  0  0.914868  0  2.174345  0  0  0.971562  0  2.122548  0  0  0.766652  0.871562  0  2.211773  0
H  H2  1  0.26785858  0.68347554  0.54410498  1  0  0.122303  0  0.941219  0  0  0.130991  0  1.005669  0  0  0.135535  0  1.001914  0  0  0.108267  0.127676  0  1.008512  0
H  H3  1  0.73214074  0.31652615  0.45589656  1  0  0.122299  0  0.941252  0  0  0.130987  0  1.005692  0  0  0.135533  0  1.00193  0  0  0.108261  0.127674  0  1.008535  0
H  H4  1  0.02733795  0.54080958  0.61049328  1  0  0.411238  0  0.875026  0  0  0.379953  0  0.952815  0  0  0.392188  0  0.938649  0  0  0.307504  0.371378  0  0.961837  0
H  H5  1  0.97266199  0.45919018  0.38950102  1  0  0.411191  0  0.875072  0  0  0.37992  0  0.952839  0  0  0.392151  0  0.938692  0  0  0.307509  0.371345  0  0.96186  0
H  H6  1  0.70434458  0.64845629  0.52197458  1  0  0.116085  0  0.980029  0  0  0.1226  0  1.047175  0  0  0.125979  0  1.045199  0  0  0.105755  0.120179  0  1.048578  0
H  H7  1  0.29565525  0.35154727  0.47802398  1  0  0.116077  0  0.980027  0  0  0.122578  0  1.047192  0  0  0.125956  0  1.045216  0  0  0.105728  0.120156  0  1.048595  0
H  H8  1  0.58330611  0.63179580  0.25702144  1  0  0.103997  0  0.96822  0  0  0.109399  0  1.039355  0  0  0.114276  0  1.034179  0  0  0.100227  0.105847  0  1.043287  0
H  H9  1  0.41669073  0.36820400  0.74297852  1  0  0.103968  0  0.968303  0  0  0.109373  0  1.039431  0  0  0.114251  0  1.034254  0  0  0.10021  0.105822  0  1.043362  0
H  H10  1  0.41760990  0.93699648  0.67345502  1  0  0.088997  0  0.973871  0  0  0.096638  0  1.040094  0  0  0.099687  0  1.039148  0  0  0.096348  0.09447  0  1.041066  0
H  H11  1  0.58238840  0.06300523  0.32654816  1  0  0.088991  0  0.973903  0  0  0.096645  0  1.040114  0  0  0.099695  0  1.039168  0  0  0.096354  0.094476  0  1.041087  0
H  H12  1  0.47890903  0.70117601  0.77876103  1  0  0.077264  0  0.902018  0  0  0.092934  0  0.959433  0  0  0.093747  0  0.958217  0  0  0.111004  0.092344  0  0.960292  0
H  H13  1  0.52109370  0.29882095  0.22123769  1  0  0.077258  0  0.901938  0  0  0.09293  0  0.959361  0  0  0.093743  0  0.958144  0  0  0.111  0.092339  0  0.960225  0
H  H14  1  0.61328369  0.60240898  0.68178621  1  0  0.078229  0  0.963518  0  0  0.08824  0  1.030978  0  0  0.088425  0  1.031246  0  0  0.107  0.088086  0  1.030635  0
H  H15  1  0.38671825  0.39759080  0.31821122  1  0  0.0782  0  0.963497  0  0  0.088182  0  1.031009  0  0  0.088366  0  1.031279  0  0  0.106994  0.088029  0  1.030664  0
H  H16  1  0.85225437  0.89047446  0.41362733  1  0  0.110809  0  0.950282  0  0  0.122279  0  1.005248  0  0  0.124069  0  1.005767  0  0  0.121616  0.120902  0  1.005131  0
H  H17  1  0.14774620  0.10953005  0.58637247  1  0  0.110823  0  0.950266  0  0  0.122291  0  1.005229  0  0  0.124083  0  1.005749  0  0  0.121602  0.120915  0  1.005112  0
H  H18  1  0.93069945  0.86714590  0.61058860  1  0  0.097724  0  0.951807  0  0  0.105289  0  1.017693  0  0  0.108329  0  1.016203  0  0  0.103234  0.103078  0  1.018931  0
H  H19  1  0.06929887  0.13285579  0.38941245  1  0  0.097697  0  0.951785  0  0  0.105229  0  1.017718  0  0  0.108265  0  1.016226  0  0  0.103219  0.10302  0  1.018953  0
H  H20  1  0.05330578  0.31765940  0.91818165  1  0  0.114143  0  0.956741  0  0  0.122191  0  1.022078  0  0  0.125996  0  1.016958  0  0  0.136639  0.119341  0  1.025778  0
H  H21  1  0.94669494  0.68233754  0.08181466  1  0  0.1142  0  0.956698  0  0  0.122251  0  1.022018  0  0  0.126058  0  1.016896  0  0  0.136646  0.1194  0  1.025718  0
H  H22  1  0.99273973  0.26125597  0.24817397  1  0  0.08742  0  0.949096  0  0  0.104888  0  1.00983  0  0  0.105025  0  1.011345  0  0  0.101948  0.104703  0  1.008844  0
H  H23  1  0.00726220  0.73874382  0.75182489  1  0  0.087411  0  0.949099  0  0  0.104884  0  1.009834  0  0  0.105021  0  1.011348  0  0  0.101948  0.104699  0  1.008848  0
H  H24  1  0.81526522  0.30912427  0.25019852  1  0  0.091498  0  0.937344  0  0  0.105277  0  1.001079  0  0  0.106834  0  1.000682  0  0  0.099924  0.104081  0  1.001448  0
H  H25  1  0.18473698  0.69087457  0.74979887  1  0  0.091493  0  0.937338  0  0  0.105264  0  1.001093  0  0  0.106821  0  1.000693  0  0  0.099913  0.104067  0  1.001463  0
H  H26  1  0.62202484  0.47252245  0.96242609  1  0  0.111984  0  0.946993  0  0  0.125414  0  0.998913  0  0  0.12782  0  0.997651  0  0  0.123275  0.123645  0  0.999901  0
H  H27  1  0.37797525  0.52748018  0.03757384  1  0  0.111959  0  0.946929  0  0  0.125391  0  0.998849  0  0  0.127798  0  0.997584  0  0  0.123266  0.123608  0  0.99986  0
H  H28  1  0.77383686  0.13030674  0.34680509  1  0  0.118871  0  0.98472  0  0  0.124165  0  1.053108  0  0  0.127361  0  1.051167  0  0  0.123085  0.121765  0  1.054717  0
H  H29  1  0.22616603  0.86969682  0.65319279  1  0  0.118844  0  0.98482  0  0  0.124186  0  1.053143  0  0  0.127382  0  1.051205  0  0  0.123094  0.121785  0  1.054752  0
H  H30  1  0.11330231  0.89969645  0.11932369  1  0  0.090095  0  0.931528  0  0  0.100253  0  0.992981  0  0  0.102953  0  0.989863  0  0  0.134413  0.098227  0  0.995219  0
H  H31  1  0.88669811  0.10030146  0.88067624  1  0  0.090116  0  0.931521  0  0  0.100274  0  0.992973  0  0  0.102973  0  0.989855  0  0  0.134431  0.098241  0  0.995219  0
H  H32  1  0.94190756  0.46424373  0.16762972  1  0  0.09409  0  0.969452  0  0  0.105174  0  1.036981  0  0  0.106119  0  1.037045  0  0  0.112517  0.10429  0  1.03713  0
H  H33  1  0.05809179  0.53575795  0.83236967  1  0  0.094084  0  0.969473  0  0  0.105174  0  1.037001  0  0  0.106121  0  1.037067  0  0  0.112518  0.10429  0  1.037153  0
H  H34  1  0.07457505  0.34473098  0.08426155  1  0  0.081393  0  0.902089  0  0  0.100386  0  0.956151  0  0  0.100895  0  0.956573  0  0  0.116844  0.099976  0  0.955943  0
H  H35  1  0.92542585  0.65526881  0.91573753  1  0  0.081396  0  0.90208  0  0  0.100389  0  0.956155  0  0  0.100899  0  0.956578  0  0  0.116851  0.099979  0  0.955947  0
H  H36  1  0.52667964  0.11485083  0.62913376  1  0  0.091004  0  0.973912  0  0  0.100747  0  1.034966  0  0  0.102392  0  1.035747  0  0  0.09898  0.099595  0  1.034332  0
H  H37  1  0.47331865  0.88515089  0.37087085  1  0  0.091006  0  0.973936  0  0  0.100676  0  1.03506  0  0  0.102317  0  1.035849  0  0  0.098945  0.099525  0  1.034423  0
H  H38  1  0.78493884  0.08153547  0.59764538  1  0  0.101813  0  0.947948  0  0  0.111388  0  1.007121  0  0  0.114042  0  1.006884  0  0  0.103575  0.109198  0  1.007883  0
H  H39  1  0.21505842  0.91846625  0.40235945  1  0  0.101792  0  0.947945  0  0  0.1114  0  1.007088  0  0  0.114055  0  1.00684  0  0  0.1036  0.10921  0  1.007851  0
H  H40  1  0.04249520  0.12246824  0.08661214  1  0  0.067846  0  0.908645  0  0  0.088265  0  0.965025  0  0  0.088685  0  0.964863  0  0  0.114492  0.087815  0  0.96534  0
H  H41  1  0.95750774  0.87753155  0.91338650  1  0  0.067882  0  0.90866  0  0  0.088284  0  0.965017  0  0  0.088707  0  0.964857  0  0  0.11446  0.087833  0  0.965332  0
H  H42  1  0.85745908  0.15399531  0.11320474  1  0  0.067337  0  0.908567  0  0  0.085157  0  0.966428  0  0  0.085512  0  0.966572  0  0  0.108974  0.084737  0  0.966546  0
H  H43  1  0.14254312  0.84600353  0.88679265  1  0  0.067385  0  0.908546  0  0  0.085188  0  0.966387  0  0  0.085541  0  0.966534  0  0  0.108996  0.084762  0  0.96651  0
H  H44  1  0.67206179  0.48044752  0.14686138  1  0  0.12771  0  0.955754  0  0  0.138899  0  1.014245  0  0  0.141833  0  1.012361  0  0  0.127627  0.136677  0  1.015827  0
H  H45  1  0.32794237  0.51955510  0.85313696  1  0  0.127681  0  0.955734  0  0  0.138841  0  1.014269  0  0  0.141773  0  1.012386  0  0  0.127606  0.136619  0  1.01585  0
C  C46  1  0.47983570  0.67362085  0.54675593  1  0  0.260125  0  3.811229  0  0  0.257005  0  4.074048  0  0  0.264777  0  4.092176  0  0  0.08022  0.251273  0  4.06183  0
C  C47  1  0.52016365  0.32638083  0.45324346  1  0  0.260182  0  3.811325  0  0  0.257081  0  4.074128  0  0  0.264857  0  4.092254  0  0  0.080226  0.251348  0  4.061912  0
C  C48  1  0.41638995  0.65221475  0.39614076  1  0  -0.036566  0  3.781864  0  0  -0.010577  0  4.017038  0  0  -0.017539  0  4.039607  0  0  -0.018083  -0.006044  0  4.001553  0
C  C49  1  0.58360662  0.34778599  0.60385996  1  0  -0.036573  0  3.781876  0  0  -0.010604  0  4.01707  0  0  -0.017564  0  4.039636  0  0  -0.018065  -0.006071  0  4.001584  0
C  C50  1  0.37770246  0.67146947  0.50035704  1  0  -0.172336  0  3.688149  0  0  -0.209255  0  3.944316  0  0  -0.210499  0  3.961626  0  0  -0.091412  -0.208006  0  3.932509  0
C  C51  1  0.62229715  0.32853127  0.49964303  1  0  -0.172368  0  3.688206  0  0  -0.209275  0  3.944356  0  0  -0.210519  0  3.961666  0  0  -0.091412  -0.208028  0  3.932551  0
C  C52  1  0.65790604  0.63695380  0.38471833  1  0  -0.04795  0  3.800498  0  0  -0.021992  0  4.035495  0  0  -0.028882  0  4.057389  0  0  -0.023854  -0.017602  0  4.021052  0
C  C53  1  0.34209283  0.36304600  0.61528190  1  0  -0.047979  0  3.800391  0  0  -0.022042  0  4.035437  0  0  -0.028933  0  4.05733  0  0  -0.023899  -0.017652  0  4.020994  0
C  C54  1  0.84477274  0.65929728  0.66845698  1  0  0.652788  0  3.822273  0  0  0.599517  0  4.12456  0  0  0.633947  0  4.115267  0  0  0.232109  0.575926  0  4.130657  0
C  C55  1  0.15522618  0.34069875  0.33154401  1  0  0.652664  0  3.822491  0  0  0.599387  0  4.124753  0  0  0.633818  0  4.115461  0  0  0.232059  0.575796  0  4.13085  0
C  C56  1  0.62106358  0.65140752  0.48916692  1  0  -0.18573  0  3.715064  0  0  -0.219633  0  3.96556  0  0  -0.221316  0  3.984752  0  0  -0.09851  -0.218198  0  3.952584  0
C  C57  1  0.37893577  0.34859416  0.51083248  1  0  -0.18573  0  3.714983  0  0  -0.219616  0  3.965497  0  0  -0.221302  0  3.984697  0  0  -0.098469  -0.21818  0  3.952519  0
C  C58  1  0.75475541  0.78397535  0.65607179  1  0  -0.120915  0  3.748657  0  0  -0.10369  0  3.983984  0  0  -0.113261  0  4.007487  0  0  -0.019586  -0.097163  0  3.967879  0
C  C59  1  0.24524576  0.21602351  0.34392796  1  0  -0.120997  0  3.748693  0  0  -0.103725  0  3.983962  0  0  -0.113295  0  4.007467  0  0  -0.019607  -0.097198  0  3.967859  0
C  C60  1  0.55582862  0.63858555  0.33819147  1  0  -0.099744  0  3.733496  0  0  -0.141128  0  3.989454  0  0  -0.139007  0  4.005774  0  0  -0.092414  -0.142474  0  3.97885  0
C  C61  1  0.44416821  0.36141425  0.66180992  1  0  -0.099748  0  3.733626  0  0  -0.141131  0  3.989613  0  0  -0.139012  0  4.005933  0  0  -0.092425  -0.142478  0  3.979009  0
C  C62  1  0.30858445  0.64833711  0.34541446  1  0  0.607591  0  3.968841  0  0  0.562898  0  4.256846  0  0  0.595809  0  4.253076  0  0  0.179025  0.540608  0  4.258097  0
C  C63  1  0.69141055  0.35166553  0.65458801  1  0  0.607674  0  3.96882  0  0  0.562995  0  4.256806  0  0  0.595909  0  4.253031  0  0  0.179055  0.540706  0  4.258056  0
C  C64  1  0.60883304  0.80208825  0.67386631  1  0  0.04671  0  3.716471  0  0  0.059179  0  3.951898  0  0  0.059768  0  3.976084  0  0  -0.008772  0.058944  0  3.935274  0
C  C65  1  0.39116687  0.19791153  0.32613157  1  0  0.046718  0  3.716428  0  0  0.059173  0  3.951845  0  0  0.059755  0  3.97604  0  0  -0.008786  0.058937  0  3.935222  0
C  C66  1  0.52968838  0.92201000  0.66257886  1  0  -0.114954  0  3.746126  0  0  -0.134557  0  3.991206  0  0  -0.138546  0  4.012405  0  0  -0.094965  -0.132017  0  3.976955  0
C  C67  1  0.47031176  0.07798886  0.33742182  1  0  -0.114945  0  3.746081  0  0  -0.134548  0  3.991137  0  0  -0.138535  0  4.012334  0  0  -0.094964  -0.13201  0  3.976887  0
C  C68  1  0.53755518  0.69511187  0.69861125  1  0  0.045651  0  3.621112  0  0  -0.019727  0  3.890162  0  0  -0.01108  0  3.892958  0  0  -0.063594  -0.025499  0  3.887642  0
C  C69  1  0.46244626  0.30488604  0.30138845  1  0  0.045742  0  3.620976  0  0  -0.019623  0  3.890057  0  0  -0.010974  0  3.892861  0  0  -0.063554  -0.025394  0  3.887535  0
C  C70  1  0.89486496  0.92770239  0.34229253  1  0  0.017667  0  3.732561  0  0  -0.012974  0  3.989215  0  0  -0.010912  0  4.009983  0  0  0.006101  -0.014551  0  3.975672  0
C  C71  1  0.10513614  0.07230024  0.65770789  1  0  0.017675  0  3.732541  0  0  -0.012965  0  3.9892  0  0  -0.010908  0  4.00997  0  0  0.006138  -0.014542  0  3.975657  0
C  C72  1  0.80585233  0.62740931  0.32177934  1  0  0.642124  0  3.907636  0  0  0.593532  0  4.196417  0  0  0.626944  0  4.189397  0  0  0.201964  0.570729  0  4.200448  0
C  C73  1  0.19414626  0.37259144  0.67822166  1  0  0.642214  0  3.907515  0  0  0.593615  0  4.196314  0  0  0.627026  0  4.189294  0  0  0.202003  0.570812  0  4.200347  0
C  C74  1  0.81726319  0.88421038  0.62691803  1  0  -0.068615  0  3.743981  0  0  -0.095623  0  3.998275  0  0  -0.094672  0  4.018399  0  0  -0.084889  -0.096093  0  3.984535  0
C  C75  1  0.18273666  0.11578944  0.37308484  1  0  -0.068526  0  3.743914  0  0  -0.095523  0  3.998224  0  0  -0.094569  0  4.018343  0  0  -0.08485  -0.095995  0  3.984487  0
C  C76  1  0.94201155  0.35741374  0.95520290  1  0  0.13224  0  3.693431  0  0  0.065492  0  3.968383  0  0  0.078872  0  3.981628  0  0  0.130221  0.056956  0  3.958763  0
C  C77  1  0.05798962  0.64258510  0.04479613  1  0  0.132062  0  3.693643  0  0  0.065316  0  3.968568  0  0  0.078691  0  3.981818  0  0  0.130178  0.056781  0  3.958948  0
C  C78  1  0.92382159  0.27441886  0.20063015  1  0  -0.151728  0  3.666438  0  0  -0.192459  0  3.930064  0  0  -0.194385  0  3.942737  0  0  -0.159178  -0.191018  0  3.921334  0
C  C79  1  0.07617985  0.72557905  0.79936955  1  0  -0.151685  0  3.666395  0  0  -0.192455  0  3.930052  0  0  -0.194375  0  3.942731  0  0  -0.159188  -0.191009  0  3.921306  0
C  C80  1  0.71864839  0.43994093  0.98144871  1  0  -0.002608  0  3.770272  0  0  -0.035379  0  4.031211  0  0  -0.032997  0  4.051691  0  0  -0.002483  -0.037052  0  4.017354  0
C  C81  1  0.28135145  0.56006262  0.01854912  1  0  -0.002662  0  3.770327  0  0  -0.035442  0  4.031272  0  0  -0.03306  0  4.051751  0  0  -0.002504  -0.037104  0  4.017426  0
C  C82  1  0.85504037  0.04670906  0.31075625  1  0  -0.074047  0  3.665864  0  0  -0.110283  0  3.920443  0  0  -0.109544  0  3.938794  0  0  -0.000205  -0.110788  0  3.908656  0
C  C83  1  0.14496100  0.95329263  0.68924341  1  0  -0.07404  0  3.666007  0  0  -0.110332  0  3.920583  0  0  -0.109593  0  3.938936  0  0  -0.000236  -0.110836  0  3.908796  0
C  C84  1  0.03192732  0.92761078  0.19079673  1  0  0.143271  0  3.708313  0  0  0.081696  0  3.974455  0  0  0.0947  0  3.98876  0  0  0.136531  0.073335  0  3.964364  0
C  C85  1  0.96807331  0.07238996  0.80920311  1  0  0.143315  0  3.708294  0  0  0.081721  0  3.974436  0  0  0.094725  0  3.988739  0  0  0.136548  0.073366  0  3.96435  0
C  C86  1  0.96238826  0.37303781  0.12734673  1  0  -0.005919  0  3.621091  0  0  -0.06917  0  3.880661  0  0  -0.065477  0  3.89265  0  0  -0.054384  -0.071404  0  3.872413  0
C  C87  1  0.03761263  0.62696198  0.87265306  1  0  -0.005888  0  3.62107  0  0  -0.069177  0  3.88072  0  0  -0.065488  0  3.892712  0  0  -0.054405  -0.071411  0  3.872474  0
C  C88  1  0.59148542  0.02215971  0.63614664  1  0  -0.040965  0  3.749201  0  0  -0.054227  0  3.993518  0  0  -0.053869  0  4.014432  0  0  -0.083572  -0.054298  0  3.979317  0
C  C89  1  0.40851287  0.97784200  0.36385726  1  0  -0.040973  0  3.749249  0  0  -0.054173  0  3.993571  0  0  -0.053816  0  4.014485  0  0  -0.083552  -0.054243  0  3.979368  0
C  C90  1  0.73590869  0.00364034  0.61844047  1  0  -0.078137  0  3.762689  0  0  -0.09225  0  4.015705  0  0  -0.096062  0  4.037467  0  0  -0.091294  -0.08984  0  4.001479  0
C  C91  1  0.26408858  0.99636138  0.38156365  1  0  -0.078117  0  3.762703  0  0  -0.092263  0  4.015702  0  0  -0.096067  0  4.037458  0  0  -0.091301  -0.089855  0  4.001478  0
C  C92  1  0.94183494  0.14813670  0.14725886  1  0  0.017378  0  3.64613  0  0  -0.051749  0  3.918035  0  0  -0.046736  0  3.929315  0  0  -0.048105  -0.055046  0  3.910448  0
C  C93  1  0.05816751  0.85186121  0.85273991  1  0  0.017233  0  3.646212  0  0  -0.051795  0  3.917983  0  0  -0.046793  0  3.929278  0  0  -0.048095  -0.055088  0  3.910397  0
C  C94  1  0.74195301  0.44410807  0.07283862  1  0  -0.071406  0  3.663573  0  0  -0.11269  0  3.919768  0  0  -0.111875  0  3.939069  0  0  -0.000679  -0.113304  0  3.907129  0
C  C95  1  0.25804939  0.55589361  0.92716011  1  0  -0.071285  0  3.663644  0  0  -0.112539  0  3.919822  0  0  -0.111725  0  3.939124  0  0  -0.000624  -0.113155  0  3.907179  0
N  N96  1  0.84412759  0.38599648  0.90893419  1  0  -0.385849  0  3.286949  0  0  -0.309088  0  3.573027  0  0  -0.330645  0  3.590802  0  0  -0.358468  -0.29387  0  3.559905  0
N  N97  1  0.15587258  0.61400236  0.09106364  1  0  -0.385707  0  3.287036  0  0  -0.308946  0  3.573121  0  0  -0.330503  0  3.590898  0  0  -0.358434  -0.29373  0  3.559995  0
N  N98  1  0.00493097  0.85475661  0.26675582  1  0  -0.371051  0  3.267986  0  0  -0.299827  0  3.552018  0  0  -0.320375  0  3.570047  0  0  -0.352752  -0.285718  0  3.539489  0
N  N99  1  0.99506965  0.14524414  0.73324474  1  0  -0.371067  0  3.267972  0  0  -0.29983  0  3.551998  0  0  -0.320377  0  3.570025  0  0  -0.352771  -0.285721  0  3.539468  0
N  N100  1  0.88452852  0.39147224  0.05449015  1  0  -0.06352  0  3.578516  0  0  0.03226  0  3.799877  0  0  0.017563  0  3.827235  0  0  -0.246931  0.041937  0  3.781235  0
N  N101  1  0.11547394  0.60852566  0.94550862  1  0  -0.06354  0  3.578648  0  0  0.032258  0  3.799985  0  0  0.017565  0  3.827345  0  0  -0.246915  0.041935  0  3.781343  0
N  N102  1  0.94323672  0.04507207  0.21416391  1  0  -0.068415  0  3.582786  0  0  0.026942  0  3.803487  0  0  0.012377  0  3.83015  0  0  -0.246314  0.036453  0  3.785447  0
N  N103  1  0.05676622  0.95492772  0.78583473  1  0  -0.06845  0  3.582809  0  0  0.026912  0  3.803469  0  0  0.012351  0  3.830133  0  0  -0.246321  0.036423  0  3.785426  0
O  O104  1  0.43241143  0.69946358  0.64903410  1  0  -0.30659  0  2.307241  0  0  -0.240062  0  2.547255  0  0  -0.257795  0  2.550018  0  0  -0.189558  -0.227248  0  2.544622  0
O  O105  1  0.56758790  0.30053812  0.35096672  1  0  -0.306635  0  2.307372  0  0  -0.240121  0  2.547387  0  0  -0.25786  0  2.550155  0  0  -0.18958  -0.227304  0  2.544754  0
O  O106  1  0.80311649  0.59346852  0.73839899  1  0  -0.580672  0  1.987763  0  0  -0.526625  0  2.225523  0  0  -0.550543  0  2.214834  0  0  -0.295967  -0.510254  0  2.233096  0
O  O107  1  0.19688316  0.40652846  0.26160325  1  0  -0.580594  0  1.98786  0  0  -0.526538  0  2.225599  0  0  -0.550455  0  2.214911  0  0  -0.295925  -0.510166  0  2.233172  0
O  O108  1  0.34826116  0.62910296  0.25025115  1  0  -0.64785  0  1.890383  0  0  -0.591648  0  2.112506  0  0  -0.618468  0  2.103125  0  0  -0.353333  -0.571715  0  2.11763  0
O  O109  1  0.65173668  0.37089685  0.74975002  1  0  -0.647871  0  1.890484  0  0  -0.59167  0  2.1126  0  0  -0.61849  0  2.103213  0  0  -0.353329  -0.571737  0  2.117723  0
O  O110  1  0.97035908  0.62849493  0.60042070  1  0  -0.514259  0  2.089344  0  0  -0.463088  0  2.305595  0  0  -0.484774  0  2.289979  0  0  -0.314245  -0.448134  0  2.315366  0
O  O111  1  0.02963704  0.37150391  0.39957730  1  0  -0.514166  0  2.089357  0  0  -0.463006  0  2.305584  0  0  -0.484691  0  2.28998  0  0  -0.314237  -0.448051  0  2.315355  0
O  O112  1  0.90354216  0.59542147  0.36517642  1  0  -0.670129  0  2.044875  0  0  -0.591768  0  2.282467  0  0  -0.620358  0  2.269084  0  0  -0.334672  -0.570647  0  2.291498  0
O  O113  1  0.09645673  0.40457832  0.63482168  1  0  -0.670219  0  2.0448  0  0  -0.591842  0  2.282392  0  0  -0.620433  0  2.269005  0  0  -0.334707  -0.570719  0  2.291426  0
O  O114  1  0.82992158  0.65290891  0.23179079  1  0  -0.620667  0  1.943342  0  0  -0.577384  0  2.169661  0  0  -0.600344  0  2.160906  0  0  -0.326515  -0.560891  0  2.175088  0
O  O115  1  0.17007885  0.34708900  0.76820842  1  0  -0.620685  0  1.943335  0  0  -0.577393  0  2.169653  0  0  -0.60035  0  2.160894  0  0  -0.326522  -0.5609  0  2.17508  0
O  O116  1  0.18134472  0.66315373  0.40012706  1  0  -0.624064  0  1.93233  0  0  -0.567074  0  2.166829  0  0  -0.594067  0  2.15717  0  0  -0.341334  -0.546867  0  2.173346  0
O  O117  1  0.81865039  0.33684137  0.59987619  1  0  -0.624068  0  1.932259  0  0  -0.567086  0  2.166751  0  0  -0.594079  0  2.15709  0  0  -0.341345  -0.546879  0  2.173268  0
