# generated using pymatgen
data_ZnH17C17N4O7
_symmetry_space_group_name_H-M   'P 1'
_cell_length_a   9.56046437
_cell_length_b   10.87051505
_cell_length_c   18.97559025
_cell_angle_alpha   89.59816421
_cell_angle_beta   90.47506587
_cell_angle_gamma   89.23980351
_symmetry_Int_Tables_number   1
_chemical_formula_structural   ZnH17C17N4O7
_chemical_formula_sum   'Zn2 H34 C34 N8 O14'
_cell_volume   1971.78802883
_cell_formula_units_Z   2
loop_
 _symmetry_equiv_pos_site_id
 _symmetry_equiv_pos_as_xyz
  1  'x, y, z'
loop_
 _atom_site_type_symbol
 _atom_site_label
 _atom_site_symmetry_multiplicity
 _atom_site_fract_x
 _atom_site_fract_y
 _atom_site_fract_z
 _atom_site_occupancy
 _atom_site_pbe_bader_charge
 _atom_site_pbe_bader_spin_density
 _atom_site_pbe_cm5_charge
 _atom_site_pbe_ddec_charge
 _atom_site_pbe_ddec_spin_density
 _atom_site_pbe_ddec_sum_bond_order
 _atom_site_pbe_magmom
Zn  Zn0  1  0.35368844  0.49518456  0.49920278  1  1.263487  0  0.675658  0.816225  0  2.375141  0
Zn  Zn1  1  0.64993153  0.49094953  0.50000606  1  1.280012  0  0.677806  0.819276  0  2.368693  0
H  H2  1  0.27622737  0.54098037  0.71972954  1  0.087581  0  0.102013  0.102874  0  1.007786  0
H  H3  1  0.72476773  0.54185139  0.72263189  1  0.09442  0  0.102925  0.105079  0  1.007329  0
H  H4  1  0.27347115  0.60005528  0.84742309  1  0.106132  0  0.106834  0.107327  0  1.010187  0
H  H5  1  0.72347965  0.59962671  0.85044623  1  0.111633  0  0.106888  0.10656  0  1.011059  0
H  H6  1  0.27646076  0.59137500  0.14854863  1  0.103282  0  0.10832  0.107103  0  1.009585  0
H  H7  1  0.72686744  0.59510045  0.15032256  1  0.089057  0  0.108867  0.107525  0  1.008017  0
H  H8  1  0.27893379  0.53541246  0.27686558  1  0.072704  0  0.106969  0.111011  0  0.99985  0
H  H9  1  0.72772087  0.53651354  0.27837454  1  0.113661  0  0.107505  0.110523  0  0.996973  0
H  H10  1  0.29391238  0.87464360  0.44495625  1  0.078138  0  0.104302  0.120186  0  0.979411  0
H  H11  1  0.71854645  0.89588911  0.52044470  1  0.062402  0  0.099057  0.110412  0  0.984255  0
H  H12  1  0.43721931  0.90552124  0.38813537  1  0.062174  0  0.109418  0.12446  0  0.963702  0
H  H13  1  0.68135857  0.87115633  0.43055886  1  0.117657  0  0.106163  0.122577  0  1.003939  0
H  H14  1  0.28178268  0.08184610  0.48377523  1  0.077323  0  0.11935  0.082916  0  1.003168  0
H  H15  1  0.72480223  0.10531702  0.49304137  1  0.113381  0  0.125565  0.100397  0  0.962483  0
H  H16  1  0.40720560  0.12522602  0.59065054  1  0.064632  0  0.105312  0.122515  0  0.997789  0
H  H17  1  0.58722650  0.08668575  0.59337068  1  0.072285  0  0.109937  0.134018  0  0.964496  0
H  H18  1  0.87645094  0.57750596  0.59944632  1  0.080132  0  0.11117  0.099456  0  0.979944  0
H  H19  1  0.12538024  0.57409302  0.60043918  1  0.059161  0  0.110503  0.096296  0  0.976909  0
H  H20  1  0.87569164  0.67934762  0.52643473  1  0.062632  0  0.11322  0.103386  0  0.97507  0
H  H21  1  0.12513512  0.67923455  0.52915403  1  0.072943  0  0.114135  0.107886  0  0.97858  0
H  H22  1  0.88124760  0.35784087  0.58011490  1  0.053679  0  0.111601  0.09853  0  0.960853  0
H  H23  1  0.12981928  0.35796139  0.58017719  1  0.054975  0  0.109161  0.094259  0  0.96975  0
H  H24  1  0.87762416  0.44075274  0.39435298  1  0.094092  0  0.118883  0.113044  0  0.964371  0
H  H25  1  0.12513976  0.44048183  0.39484231  1  0.081011  0  0.118425  0.112634  0  0.961795  0
H  H26  1  0.87513669  0.60114652  0.40897500  1  0.062183  0  0.115879  0.103741  0  0.959191  0
H  H27  1  0.12329761  0.60104499  0.40896576  1  0.064215  0  0.115549  0.103589  0  0.960551  0
H  H28  1  0.88156489  0.30068349  0.49297435  1  0.062393  0  0.112381  0.101983  0  0.97804  0
H  H29  1  0.12857431  0.30089562  0.49265559  1  0.102972  0  0.10952  0.099611  0  1.004837  0
H  H30  1  0.19002082  0.06559854  0.58582479  1  -0.004517  0  0.089629  0.083581  0  1.011406  0
H  H31  1  0.27133071  0.01992370  0.66751805  1  0.057598  0  0.095964  0.087615  0  1.016181  0
H  H32  1  0.13145285  0.93232391  0.63179301  1  0.065491  0  0.107839  0.114732  0  0.968012  0
H  H33  1  0.41204393  0.85592085  0.70715713  1  0.050893  0  0.094454  0.091499  0  1.006163  0
H  H34  1  0.52015373  0.99039375  0.70413006  1  0.024437  0  0.090494  0.081501  0  1.001625  0
H  H35  1  0.59581237  0.84190983  0.72244564  1  0.064331  0  0.104563  0.113251  0  0.981962  0
C  C36  1  0.49671308  0.73275139  0.49969092  1  1.561314  0  0.224955  0.606125  0  4.098927  0
C  C37  1  0.50348963  0.50554423  0.63705371  1  1.579881  0  0.214858  0.590608  0  4.172656  0
C  C38  1  0.50437462  0.25519444  0.49285029  1  1.579413  0  0.21491  0.577806  0  4.170405  0
C  C39  1  0.50226250  0.50833209  0.36276185  1  1.588069  0  0.218415  0.589936  0  4.166557  0
C  C40  1  0.37344529  0.55404860  0.74895633  1  -0.046549  0  -0.083164  -0.08893  0  3.980464  0
C  C41  1  0.62673516  0.55454874  0.75067665  1  -0.110273  0  -0.083513  -0.091479  0  3.985448  0
C  C42  1  0.37178887  0.58691910  0.81965038  1  -0.063879  0  -0.082926  -0.113677  0  3.968222  0
C  C43  1  0.62608679  0.58682734  0.82134962  1  -0.025234  0  -0.083011  -0.112389  0  3.973764  0
C  C44  1  0.49833997  0.60361190  0.85648843  1  -0.005146  0  -0.003141  0.02412  0  4.001823  0
C  C45  1  0.50071536  0.53758301  0.71379671  1  0.051136  0  -0.012419  -0.021903  0  3.945072  0
C  C46  1  0.49990100  0.63104305  0.06716181  1  0.944667  0  0.24324  0.24768  0  3.995416  0
C  C47  1  0.49793976  0.63397525  0.93158286  1  0.919093  0  0.235749  0.239087  0  4.012841  0
C  C48  1  0.37474889  0.57963406  0.17739481  1  -0.023061  0  -0.077459  -0.102104  0  3.960774  0
C  C49  1  0.62930064  0.58136426  0.17836558  1  0.031813  0  -0.077089  -0.10131  0  3.953472  0
C  C50  1  0.37611950  0.54860780  0.24844516  1  0.052214  0  -0.078666  -0.083536  0  3.966265  0
C  C51  1  0.62972798  0.54932444  0.24939941  1  -0.002156  0  -0.076511  -0.08083  0  3.957172  0
C  C52  1  0.50329315  0.53428085  0.28516963  1  -0.130625  0  -0.006492  -0.013881  0  3.938791  0
C  C53  1  0.50154624  0.59781681  0.14194979  1  -0.074529  0  -0.002822  0.019115  0  4.002373  0
C  C54  1  0.39348256  0.92256781  0.44062873  1  -0.040802  0  -0.15592  -0.224659  0  3.859378  0
C  C55  1  0.64498500  0.91920858  0.47764438  1  -0.062917  0  -0.169021  -0.238967  0  3.908058  0
C  C56  1  0.37223465  0.06169612  0.45076835  1  0.238138  0  0.008853  -0.017403  0  3.722432  0
C  C57  1  0.64281225  0.05759556  0.46345471  1  0.14979  0  0.004456  -0.016871  0  3.714937  0
C  C58  1  0.45671400  0.92971225  0.56923444  1  0.950179  0  0.1641  0.384676  0  3.803522  0
C  C59  1  0.49814967  0.87397039  0.49660732  1  0.095126  0  -0.011775  -0.052275  0  3.75622  0
C  C60  1  0.50318343  0.11462640  0.48749349  1  0.050492  0  -0.004398  -0.014597  0  3.745939  0
C  C61  1  0.48854590  0.06915737  0.56550162  1  -0.060765  0  -0.157305  -0.317315  0  3.806096  0
C  C62  1  0.92006514  0.59249335  0.54684227  1  0.1776  0  -0.06993  -0.092527  0  3.82041  0
C  C63  1  0.08191455  0.59192849  0.54758626  1  0.301789  0  -0.069555  -0.092334  0  3.817131  0
C  C64  1  0.92376754  0.37231007  0.52718345  1  0.263389  0  -0.068306  -0.086527  0  3.819733  0
C  C65  1  0.08552352  0.37227769  0.52712016  1  0.17679  0  -0.071653  -0.096358  0  3.827056  0
C  C66  1  0.92002855  0.51338223  0.42776011  1  0.180594  0  -0.066717  -0.091499  0  3.814662  0
C  C67  1  0.08148469  0.51353593  0.42795182  1  0.298121  0  -0.067161  -0.087907  0  3.809419  0
C  C68  1  0.22425040  0.98585375  0.61839293  1  0.417546  0  -0.14174  -0.166262  0  3.973499  0
C  C69  1  0.51485611  0.89135063  0.69190772  1  0.388405  0  -0.145303  -0.158611  0  3.951735  0
N  N70  1  0.62119841  0.65468393  0.96479650  1  -0.511323  0  -0.160057  -0.155058  0  3.224365  0
N  N71  1  0.37435933  0.65137492  0.96457300  1  -0.472982  0  -0.159533  -0.15374  0  3.225406  0
N  N72  1  0.62227774  0.65337041  0.03414899  1  -0.610746  0  -0.154877  -0.144794  0  3.208941  0
N  N73  1  0.37529225  0.65029308  0.03391669  1  -0.598989  0  -0.1552  -0.146025  0  3.209416  0
N  N74  1  0.86790630  0.49251977  0.50061198  1  -0.968703  0  -0.340882  -0.10267  0  3.454831  0
N  N75  1  0.13619532  0.49293644  0.50089519  1  -0.974054  0  -0.341963  -0.102439  0  3.459095  0
N  N76  1  0.32929989  0.12120940  0.38080131  1  0.48372  0  0.051078  0.53237  0  4.144961  0
N  N77  1  0.68363474  0.09136764  0.38683725  1  0.494156  0  0.048768  0.509117  0  4.159327  0
O  O78  1  0.37884665  0.68221307  0.50658939  1  -1.168038  0  -0.309602  -0.538404  0  2.36686  0
O  O79  1  0.61402890  0.67796975  0.49371716  1  -1.165016  0  -0.308754  -0.538342  0  2.358468  0
O  O80  1  0.38719785  0.48108649  0.60705782  1  -1.174379  0  -0.322185  -0.561009  0  2.317272  0
O  O81  1  0.62240395  0.50661217  0.60745174  1  -1.168889  0  -0.314781  -0.548364  0  2.346704  0
O  O82  1  0.38711691  0.30909539  0.48417522  1  -1.163204  0  -0.308267  -0.534398  0  2.379158  0
O  O83  1  0.61854920  0.30366269  0.51118657  1  -1.174999  0  -0.313327  -0.550029  0  2.38663  0
O  O84  1  0.38399811  0.51560594  0.39289627  1  -1.169367  0  -0.313938  -0.550765  0  2.370198  0
O  O85  1  0.61875672  0.48419298  0.39316914  1  -1.167039  0  -0.310121  -0.542809  0  2.36281  0
O  O86  1  0.21157361  0.17010168  0.37795753  1  -0.471559  0  -0.146517  -0.348332  0  1.888846  0
O  O87  1  0.41122996  0.11280671  0.33112271  1  -0.461141  0  -0.122992  -0.315908  0  1.925486  0
O  O88  1  0.67725204  0.20175795  0.37153141  1  -0.463848  0  -0.126307  -0.317457  0  1.973131  0
O  O89  1  0.72772712  0.00912105  0.34808316  1  -0.445418  0  -0.133061  -0.323717  0  1.911096  0
O  O90  1  0.31262792  0.90312799  0.58067277  1  -1.044386  0  -0.220974  -0.243054  0  2.505052  0
O  O91  1  0.54346455  0.86727232  0.61957984  1  -1.032004  0  -0.226309  -0.256753  0  2.493281  0
