# generated using pymatgen
data_Cd2CuH12C10N4Cl4O7
_symmetry_space_group_name_H-M   'P 1'
_cell_length_a   6.50756532
_cell_length_b   9.81833246
_cell_length_c   17.78692106
_cell_angle_alpha   75.00379827
_cell_angle_beta   90.34849514
_cell_angle_gamma   74.14365007
_symmetry_Int_Tables_number   1
_chemical_formula_structural   Cd2CuH12C10N4Cl4O7
_chemical_formula_sum   'Cd4 Cu2 H24 C20 N8 Cl8 O14'
_cell_volume   1052.38132189
_cell_formula_units_Z   2
loop_
 _symmetry_equiv_pos_site_id
 _symmetry_equiv_pos_as_xyz
  1  'x, y, z'
loop_
 _atom_site_type_symbol
 _atom_site_label
 _atom_site_symmetry_multiplicity
 _atom_site_fract_x
 _atom_site_fract_y
 _atom_site_fract_z
 _atom_site_occupancy
 _atom_site_hle17_ddec_charge
 _atom_site_hle17_ddec_spin_density
 _atom_site_hle17_ddec_sum_bond_order
 _atom_site_hle17_magmom
 _atom_site_hse06_10hf_ddec_charge
 _atom_site_hse06_10hf_ddec_spin_density
 _atom_site_hse06_10hf_ddec_sum_bond_order
 _atom_site_hse06_10hf_magmom
 _atom_site_hse06_ddec_charge
 _atom_site_hse06_ddec_spin_density
 _atom_site_hse06_ddec_sum_bond_order
 _atom_site_hse06_magmom
 _atom_site_pbe_cm5_charge
 _atom_site_pbe_ddec_charge
 _atom_site_pbe_ddec_spin_density
 _atom_site_pbe_ddec_sum_bond_order
 _atom_site_pbe_magmom
Cd  Cd0  1  0.78382854  0.40949873  0.99051005  1  0.986177  1e-06  1.959079  0.0  0.828529  5.1e-05  2.419592  0.0  0.874379  5.9e-05  2.377696  0.0  0.574694  0.795441  2.5e-05  2.449014  0.0
Cd  Cd1  1  0.21618316  0.59048794  0.00949368  1  0.986225  1e-06  1.959026  0.0  0.828597  5.1e-05  2.419539  0.0  0.874447  5.8e-05  2.377646  0.0  0.574708  0.79551  2.5e-05  2.448956  0.0
Cd  Cd2  1  0.21009041  0.59054842  0.50306000  1  1.000457  -0.000108  1.94302  0.0  0.853436  -3.7e-05  2.399005  0.0  0.899487  2e-06  2.356192  0.0  0.571419  0.820335  -0.000133  2.428696  0.0
Cd  Cd3  1  0.78992060  0.40946382  0.49693325  1  1.00049  -0.000108  1.942959  0.0  0.853435  -3.7e-05  2.399008  0.0  0.89949  2e-06  2.356193  0.0  0.571435  0.820335  -0.000133  2.4287  0.0
Cu  Cu4  1  0.52157234  0.98896141  0.75038734  1  0.84755  -0.702424  1.882978  -0.522  0.819918  -0.781597  2.283376  -0.63  0.901874  -0.845238  2.21714  -0.714  0.767423  0.772005  -0.73463  2.328533  -0.573
Cu  Cu5  1  0.47842797  0.01103692  0.24961141  1  0.847724  -0.702437  1.882829  -0.522  0.82006  -0.781597  2.283234  -0.63  0.902032  -0.845242  2.216987  -0.714  0.767424  0.771996  -0.734628  2.328582  -0.573
H  H6  1  0.46148805  0.21856499  0.96802621  1  0.102148  -0.000623  0.955445  -0.001  0.102484  -0.00058  1.030225  -0.001  0.10595  -0.000385  1.026988  -0.001  0.11092  0.099756  -0.000773  1.033048  -0.001
H  H7  1  0.53853215  0.78142369  0.03197835  1  0.102112  -0.000618  0.955563  -0.001  0.102497  -0.00058  1.030265  -0.001  0.10596  -0.000385  1.027033  -0.001  0.110945  0.099766  -0.000773  1.033087  -0.001
H  H8  1  0.87594557  0.36363636  0.81052298  1  0.102047  -0.000419  0.933766  0.0  0.107375  -0.000408  0.997644  0.0  0.110621  -0.000292  0.994836  0.0  0.11836  0.104889  -0.000518  0.99986  -0.001
H  H9  1  0.12403740  0.63638097  0.18947180  1  0.101903  -0.000421  0.933963  0.0  0.107377  -0.000408  0.997692  0.0  0.110633  -0.000292  0.994881  0.0  0.118355  0.104892  -0.000517  0.999908  -0.001
H  H10  1  0.78769048  0.21774955  0.72099814  1  0.131419  -0.001003  0.905427  -0.002  0.137388  -0.000792  0.963077  -0.001  0.140998  -0.00057  0.960124  -0.001  0.136273  0.134423  -0.001  0.965789  -0.002
H  H11  1  0.21227868  0.78226774  0.27899681  1  0.131418  -0.001004  0.905386  -0.002  0.137361  -0.000792  0.963067  -0.001  0.140971  -0.000569  0.960111  -0.001  0.136261  0.134399  -0.000999  0.965774  -0.002
H  H12  1  0.54378922  0.77992062  0.52564634  1  0.105199  -0.000762  0.956171  -0.001  0.107486  -0.000671  1.026237  -0.001  0.110735  -0.000423  1.023131  -0.001  0.11314  0.104937  -0.000933  1.029049  -0.001
H  H13  1  0.45619423  0.22009212  0.47435003  1  0.105257  -0.00076  0.956199  -0.001  0.107499  -0.000671  1.026273  -0.001  0.110749  -0.000424  1.023166  -0.001  0.113136  0.104953  -0.000934  1.029083  -0.001
H  H14  1  0.10692884  0.65537046  0.67817276  1  0.104044  -0.000561  0.940995  -0.001  0.108315  -0.000513  1.006479  -0.001  0.111187  -0.000359  1.004141  0.0  0.115025  0.106159  -0.000666  1.008294  -0.001
H  H15  1  0.89307575  0.34462538  0.32182788  1  0.104031  -0.000565  0.941043  -0.001  0.108306  -0.000513  1.006562  -0.001  0.111179  -0.000359  1.004221  0.0  0.115007  0.10615  -0.000666  1.00838  -0.001
H  H16  1  0.19643079  0.80078482  0.76706155  1  0.121789  -0.001214  0.931321  -0.002  0.123955  -0.000948  0.997485  -0.002  0.127134  -0.000685  0.99436  -0.001  0.125207  0.121453  -0.001174  1.000011  -0.002
H  H17  1  0.80356661  0.19921398  0.23294057  1  0.121804  -0.001218  0.931419  -0.002  0.123913  -0.000948  0.997599  -0.002  0.127089  -0.000684  0.99448  -0.001  0.12522  0.121413  -0.001174  1.000127  -0.002
H  H18  1  0.81092396  0.71828842  0.83720806  1  0.403991  2.8e-05  0.87811  0.0  0.382398  6.2e-05  0.941752  0.0  0.391422  5.8e-05  0.928614  0.0  0.272805  0.376195  5.5e-05  0.950827  0.0
H  H19  1  0.18905224  0.28171349  0.16279457  1  0.404049  2.7e-05  0.878067  0.0  0.38247  6.2e-05  0.941676  0.0  0.391495  5.7e-05  0.928536  0.0  0.272839  0.376264  5.5e-05  0.950754  0.0
H  H20  1  0.87895548  0.83526810  0.86685981  1  0.418489  -2e-06  0.884233  0.0  0.393329  2.2e-05  0.939786  0.0  0.403707  2.2e-05  0.924716  0.0  0.279051  0.386243  1.1e-05  0.950075  0.0
H  H21  1  0.12105543  0.16472347  0.13314062  1  0.418492  -2e-06  0.884225  0.0  0.393322  2.2e-05  0.939794  0.0  0.4037  2.2e-05  0.924727  0.0  0.279065  0.386234  1.1e-05  0.950086  0.0
H  H22  1  0.10365411  0.12844615  0.00645926  1  0.427044  -8.7e-05  0.872221  0.0  0.392242  -0.000101  0.942084  0.0  0.402964  -4.6e-05  0.926768  0.0  0.290455  0.384632  -0.000169  0.952969  0.0
H  H23  1  0.89635656  0.87153875  0.99354240  1  0.4271  -8.7e-05  0.872135  0.0  0.392313  -0.000101  0.941957  0.0  0.403034  -4.6e-05  0.926642  0.0  0.290459  0.3847  -0.000169  0.952847  0.0
H  H24  1  0.91598464  0.08878637  0.05537787  1  0.421691  7.1e-05  0.871461  0.0  0.387605  -2e-06  0.946072  0.0  0.399936  2e-06  0.928328  0.0  0.288237  0.378789  -1.9e-05  0.958737  0.0
H  H25  1  0.08403195  0.91119594  0.94462624  1  0.421742  7.1e-05  0.871331  0.0  0.387628  -3e-06  0.946028  0.0  0.399958  2e-06  0.928287  0.0  0.288231  0.378815  -1.9e-05  0.958689  0.0
H  H26  1  0.89027244  0.86208580  0.48558394  1  0.420479  -0.000152  0.880733  0.0  0.389486  -0.000161  0.945485  0.0  0.399981  -7.3e-05  0.930536  0.0  0.285323  0.381918  -0.000271  0.956267  0.0
H  H27  1  0.10972848  0.13791191  0.51441825  1  0.420413  -0.000152  0.880816  0.0  0.389403  -0.000161  0.945598  0.0  0.3999  -7.3e-05  0.930652  0.0  0.285275  0.381834  -0.000271  0.95638  0.0
H  H28  1  0.07470463  0.89951485  0.43785634  1  0.414035  6.4e-05  0.876307  0.0  0.382808  -6.6e-05  0.950457  0.0  0.395019  -4.9e-05  0.93271  0.0  0.284478  0.373981  -0.000101  0.963276  0.0
H  H29  1  0.92528854  0.10049740  0.56214278  1  0.414126  6.3e-05  0.876184  0.0  0.382896  -6.6e-05  0.950331  0.0  0.395106  -4.8e-05  0.932584  0.0  0.284512  0.374067  -0.000101  0.963151  0.0
C  C30  1  0.48250469  0.14011113  0.86389606  1  0.046644  0.007445  3.69656  0.004  0.053618  0.00183  3.939993  0.001  0.051781  0.003019  3.958809  0.002  0.117168  0.053952  0.000814  3.929185  0.0
C  C31  1  0.51749738  0.85988069  0.13610897  1  0.046738  0.007443  3.696585  0.004  0.053602  0.001833  3.940108  0.001  0.051788  0.003017  3.958937  0.002  0.117146  0.053929  0.000813  3.929291  0.0
C  C32  1  0.53334416  0.21807387  0.91292112  1  0.114195  -0.005245  3.639516  -0.005  0.075689  -0.001873  3.895024  -0.002  0.081241  -0.001914  3.909521  -0.002  0.06542  0.071212  -0.001867  3.886747  -0.002
C  C33  1  0.46667099  0.78191590  0.08708339  1  0.114187  -0.005262  3.639372  -0.005  0.075766  -0.001875  3.894743  -0.002  0.081323  -0.001914  3.90923  -0.002  0.065428  0.071292  -0.001868  3.88647  -0.002
C  C34  1  0.76356415  0.29811196  0.82563107  1  0.112788  -0.007527  3.607477  -0.008  0.081291  -0.003036  3.859715  -0.004  0.086069  -0.002789  3.872808  -0.004  0.073197  0.078218  -0.003145  3.851348  -0.004
C  C35  1  0.23642820  0.70189073  0.17436733  1  0.113015  -0.007514  3.607774  -0.008  0.081381  -0.003035  3.86  -0.004  0.086145  -0.002787  3.873105  -0.004  0.073204  0.078306  -0.003144  3.851636  -0.004
C  C36  1  0.71668804  0.21845118  0.77628884  1  0.124908  0.011189  3.569986  0.007  0.100106  0.002867  3.819402  0.002  0.106649  0.004357  3.831858  0.003  0.081461  0.095124  0.001577  3.812182  0.001
C  C37  1  0.28327981  0.78155832  0.22370747  1  0.124929  0.01119  3.569919  0.007  0.100164  0.002871  3.819323  0.002  0.106731  0.004357  3.831796  0.003  0.081498  0.095178  0.001578  3.812095  0.001
C  C38  1  0.32341314  0.05203762  0.87848629  1  0.624487  0.005613  3.903774  0.005  0.572606  0.000679  4.207035  0.001  0.608176  0.000884  4.202082  0.001  0.215604  0.548245  0.000511  4.210092  0.001
C  C39  1  0.67657540  0.94796773  0.12151528  1  0.624458  0.005612  3.904048  0.005  0.572593  0.000676  4.207322  0.001  0.608163  0.000884  4.202365  0.001  0.215552  0.548238  0.000511  4.210369  0.001
C  C40  1  0.51858764  0.86455696  0.62779651  1  0.056051  0.010677  3.697006  0.007  0.063747  0.003211  3.940002  0.002  0.063348  0.004616  3.957574  0.003  0.121336  0.063267  0.002109  3.929716  0.001
C  C41  1  0.48140381  0.13544792  0.37220168  1  0.056117  0.010662  3.697018  0.007  0.063864  0.003212  3.939992  0.002  0.063465  0.004617  3.957568  0.003  0.121369  0.063383  0.00211  3.929693  0.001
C  C42  1  0.46710130  0.78535557  0.57948466  1  0.117048  -0.006776  3.642621  -0.007  0.080637  -0.002349  3.893084  -0.002  0.08657  -0.002397  3.906563  -0.002  0.068771  0.075838  -0.002394  3.885367  -0.002
C  C43  1  0.53289629  0.21465214  0.42050978  1  0.116993  -0.006784  3.642928  -0.007  0.080607  -0.002349  3.893433  -0.002  0.086538  -0.002396  3.906916  -0.002  0.068794  0.075807  -0.002394  3.88572  -0.002
C  C44  1  0.22550246  0.71624772  0.66437513  1  0.110443  -0.010119  3.615631  -0.011  0.079186  -0.004127  3.87029  -0.005  0.08298  -0.003743  3.885437  -0.005  0.069795  0.076969  -0.004437  3.860126  -0.006
C  C45  1  0.77451217  0.28375014  0.33562631  1  0.110546  -0.010113  3.615484  -0.011  0.07918  -0.004128  3.870178  -0.005  0.082974  -0.003744  3.885324  -0.005  0.06979  0.076961  -0.004438  3.860019  -0.006
C  C46  1  0.27456947  0.79538895  0.71348444  1  0.110463  0.012408  3.593432  0.008  0.081551  0.002664  3.853069  0.001  0.086847  0.004483  3.86885  0.003  0.067358  0.077738  0.001201  3.843107  0.0
C  C47  1  0.72543074  0.20460948  0.28651373  1  0.110398  0.012431  3.593533  0.008  0.081682  0.002664  3.85306  0.001  0.086978  0.004484  3.868843  0.003  0.06738  0.07787  0.001201  3.843094  0.0
C  C48  1  0.68023291  0.95012009  0.61264182  1  0.61265  0.008548  3.910076  0.007  0.562898  0.001533  4.214663  0.002  0.598723  0.001498  4.211639  0.001  0.215433  0.538347  0.001447  4.216278  0.002
C  C49  1  0.31975880  0.04988516  0.38736029  1  0.612548  0.008567  3.910425  0.007  0.562789  0.001533  4.215028  0.002  0.598617  0.001498  4.212006  0.001  0.215352  0.538238  0.001447  4.216629  0.002
N  N50  1  0.57862964  0.13904929  0.79699262  1  -0.24603  -0.061383  3.318833  -0.079  -0.207067  -0.04353  3.603973  -0.06  -0.22737  -0.03573  3.61964  -0.053  -0.323997  -0.19564  -0.04809  3.596088  -0.063
N  N51  1  0.42136727  0.86095409  0.20300792  1  -0.246204  -0.061376  3.318768  -0.079  -0.20721  -0.04353  3.603903  -0.06  -0.227583  -0.035729  3.619634  -0.053  -0.324044  -0.195741  -0.048087  3.596005  -0.063
N  N52  1  0.67583559  0.29515450  0.89384640  1  -0.266612  0.008566  3.194853  0.007  -0.202926  0.003168  3.460798  0.002  -0.215975  0.003704  3.476903  0.003  -0.300208  -0.194198  0.002504  3.450641  0.002
N  N53  1  0.32415092  0.70484379  0.10615251  1  -0.266661  0.008564  3.194599  0.007  -0.203047  0.003168  3.460618  0.002  -0.216092  0.003703  3.476722  0.003  -0.300192  -0.194322  0.002505  3.450464  0.002
N  N54  1  0.42065164  0.86878878  0.69400638  1  -0.248963  -0.074046  3.339044  -0.096  -0.214158  -0.050814  3.633424  -0.07  -0.237183  -0.041429  3.651039  -0.062  -0.328655  -0.200744  -0.055985  3.623745  -0.073
N  N55  1  0.57934107  0.13121291  0.30599155  1  -0.249054  -0.074051  3.339084  -0.096  -0.21434  -0.050816  3.63345  -0.07  -0.237367  -0.041429  3.651061  -0.062  -0.328682  -0.200892  -0.055986  3.623769  -0.073
N  N56  1  0.31964806  0.71256705  0.59788694  1  -0.254747  0.01098  3.18366  0.009  -0.192321  0.004186  3.445451  0.003  -0.204843  0.004846  3.461325  0.003  -0.292488  -0.183719  0.003404  3.435141  0.002
N  N57  1  0.68033951  0.28743990  0.40211165  1  -0.254757  0.010981  3.183728  0.009  -0.192316  0.004186  3.445586  0.003  -0.204838  0.004846  3.461463  0.003  -0.292495  -0.183713  0.003403  3.435281  0.002
Cl  Cl58  1  0.92215954  0.52579874  0.09577430  1  -0.571765  -0.000184  1.004225  0.0  -0.50282  -8.2e-05  1.270733  0.0  -0.523118  -7e-05  1.25048  0.0  -0.293116  -0.487794  -0.000125  1.284804  0.0
Cl  Cl59  1  0.07784467  0.47419120  0.90422920  1  -0.571784  -0.000183  1.004265  0.0  -0.502829  -8.2e-05  1.270738  0.0  -0.523123  -7e-05  1.25048  0.0  -0.293119  -0.487803  -0.000125  1.284813  0.0
Cl  Cl60  1  0.50043303  0.34295038  0.08138702  1  -0.558913  7.5e-05  1.076455  0.0  -0.495869  0.000107  1.367011  0.0  -0.516142  0.000175  1.346638  0.0  -0.290236  -0.481575  -2.8e-05  1.381759  0.0
Cl  Cl61  1  0.49957522  0.65704077  0.91861574  1  -0.55893  7.5e-05  1.076472  0.0  -0.4959  0.000107  1.367023  0.0  -0.516167  0.000175  1.346641  0.0  -0.290251  -0.481611  -2.8e-05  1.381772  0.0
Cl  Cl62  1  0.07896741  0.47244453  0.40115481  1  -0.585759  -0.000542  0.954955  -0.001  -0.525193  -0.000234  1.212934  0.0  -0.546195  -0.000163  1.193848  0.0  -0.323372  -0.509472  -0.000378  1.226103  0.0
Cl  Cl63  1  0.92104039  0.52757130  0.59883643  1  -0.585744  -0.000543  0.954971  -0.001  -0.525184  -0.000235  1.21297  0.0  -0.546193  -0.000163  1.193893  0.0  -0.323368  -0.509462  -0.000378  1.226138  0.0
Cl  Cl64  1  0.51169295  0.65309082  0.41676215  1  -0.569625  -0.000221  1.026692  -0.001  -0.515421  0.000363  1.30891  0.0  -0.535914  0.000492  1.288305  0.0  -0.30926  -0.500706  2e-06  1.323558  -0.001
Cl  Cl65  1  0.48832118  0.34692201  0.58323384  1  -0.569647  -0.00022  1.026629  -0.001  -0.515475  0.000363  1.30888  0.0  -0.535968  0.000492  1.288278  0.0  -0.309296  -0.500762  2e-06  1.323537  -0.001
O  O66  1  0.29684034  0.99122172  0.82523174  1  -0.55626  -0.073658  2.062273  -0.102  -0.528373  -0.050801  2.339261  -0.077  -0.566769  -0.038886  2.329348  -0.064  -0.309865  -0.503192  -0.059057  2.346744  -0.085
O  O67  1  0.70316891  0.00876587  0.17476684  1  -0.55624  -0.073629  2.062654  -0.102  -0.528324  -0.050787  2.339607  -0.077  -0.566712  -0.038877  2.329687  -0.064  -0.309841  -0.50312  -0.059042  2.3471  -0.085
O  O68  1  0.22533799  0.04084264  0.93978543  1  -0.6083  -0.008924  2.017273  -0.012  -0.549752  -0.005313  2.240635  -0.008  -0.577767  -0.002636  2.233117  -0.004  -0.295873  -0.529323  -0.007986  2.245214  -0.011
O  O69  1  0.77467194  0.95914773  0.06021569  1  -0.608331  -0.008929  2.017101  -0.012  -0.549848  -0.005315  2.240506  -0.008  -0.577851  -0.002637  2.232958  -0.004  -0.295902  -0.529415  -0.00799  2.245084  -0.011
O  O70  1  0.70932514  0.01206880  0.66556351  1  -0.538413  -0.103442  2.070065  -0.143  -0.518767  -0.065202  2.355327  -0.098  -0.564469  -0.048441  2.351312  -0.079  -0.311054  -0.488987  -0.075951  2.358594  -0.109
O  O71  1  0.29066860  0.98793468  0.33443649  1  -0.538486  -0.103463  2.070138  -0.143  -0.518833  -0.065214  2.355415  -0.098  -0.564539  -0.048448  2.351394  -0.079  -0.311053  -0.489017  -0.075966  2.358684  -0.109
O  O72  1  0.77813755  0.96003400  0.55190467  1  -0.583776  -0.017649  2.005474  -0.024  -0.531437  -0.008765  2.227939  -0.013  -0.560996  -0.003819  2.22249  -0.006  -0.285753  -0.509064  -0.014179  2.230681  -0.019
O  O73  1  0.22186208  0.03997039  0.44809629  1  -0.583619  -0.017654  2.005676  -0.024  -0.53128  -0.008766  2.228146  -0.013  -0.56084  -0.003819  2.222695  -0.006  -0.285663  -0.50891  -0.014179  2.23089  -0.019
O  O74  1  0.82245842  0.81862884  0.81900143  1  -0.83045  0.001955  1.885883  0.0  -0.79066  0.001484  2.066243  0.0  -0.811792  0.001889  2.035068  0.001  -0.600574  -0.775169  0.000987  2.087501  0.0
O  O75  1  0.17753571  0.18137015  0.18099958  1  -0.830519  0.001957  1.885817  0.0  -0.790757  0.001483  2.066115  0.0  -0.811891  0.001888  2.034934  0.001  -0.600625  -0.775236  0.000987  2.087391  0.0
O  O76  1  0.00624631  0.15854708  0.04578200  1  -0.813947  -0.000125  1.92484  0.0  -0.743358  -7.9e-05  2.116639  0.0  -0.766816  -1e-06  2.082698  0.0  -0.568167  -0.726694  -0.000196  2.140622  0.0
O  O77  1  0.99377804  0.84143106  0.95422131  1  -0.813985  -0.000126  1.924637  0.0  -0.743399  -7.9e-05  2.116525  0.0  -0.766868  -1e-06  2.082615  0.0  -0.568156  -0.726735  -0.000196  2.140506  0.0
O  O78  1  0.98497121  0.83110342  0.44608167  1  -0.802746  -0.000423  1.866805  -0.001  -0.749956  -0.000144  2.055684  0.0  -0.772421  3.3e-05  2.022463  0.0  -0.595728  -0.733789  -0.000442  2.079462  -0.001
O  O79  1  0.01502542  0.16890435  0.55391843  1  -0.802782  -0.000421  1.866751  -0.001  -0.749968  -0.000144  2.055631  0.0  -0.77244  3.2e-05  2.022402  0.0  -0.595708  -0.733795  -0.000442  2.079412  -0.001
