# generated using pymatgen
data_ZnH8C14(ClO2)2
_symmetry_space_group_name_H-M   'P 1'
_cell_length_a   7.14054769
_cell_length_b   10.34705975
_cell_length_c   19.09100000
_cell_angle_alpha   90.00000000
_cell_angle_beta   95.70267391
_cell_angle_gamma   90.00000000
_symmetry_Int_Tables_number   1
_chemical_formula_structural   ZnH8C14(ClO2)2
_chemical_formula_sum   'Zn4 H32 C56 Cl8 O16'
_cell_volume   1403.53249001
_cell_formula_units_Z   4
loop_
 _symmetry_equiv_pos_site_id
 _symmetry_equiv_pos_as_xyz
  1  'x, y, z'
loop_
 _atom_site_type_symbol
 _atom_site_label
 _atom_site_symmetry_multiplicity
 _atom_site_fract_x
 _atom_site_fract_y
 _atom_site_fract_z
 _atom_site_occupancy
 _atom_site_hle17_bader_spin_density
 _atom_site_hle17_ddec_charge
 _atom_site_hle17_ddec_spin_density
 _atom_site_hle17_ddec_sum_bond_order
 _atom_site_hle17_magmom
 _atom_site_hse06_10hf_bader_spin_density
 _atom_site_hse06_10hf_ddec_charge
 _atom_site_hse06_10hf_ddec_spin_density
 _atom_site_hse06_10hf_ddec_sum_bond_order
 _atom_site_hse06_10hf_magmom
 _atom_site_hse06_bader_spin_density
 _atom_site_hse06_ddec_charge
 _atom_site_hse06_ddec_spin_density
 _atom_site_hse06_ddec_sum_bond_order
 _atom_site_hse06_magmom
 _atom_site_pbe_bader_charge
 _atom_site_pbe_bader_spin_density
 _atom_site_pbe_cm5_charge
 _atom_site_pbe_ddec_charge
 _atom_site_pbe_ddec_spin_density
 _atom_site_pbe_ddec_sum_bond_order
 _atom_site_pbe_magmom
Zn  Zn0  1  0.75007368  0.96162004  0.51277613  1  0  1.177706  0  1.782529  0  0  0.998204  0  2.291203  0  0  1.049926  0  2.219427  0  1.350522  0  0.698451  0.961875  0  2.34103  0
Zn  Zn1  1  0.24992370  0.46162679  0.98722739  1  0  1.177766  0  1.782553  0  0  0.998231  0  2.291258  0  0  1.049948  0  2.219501  0  1.35057  0  0.698477  0.961907  0  2.341086  0
Zn  Zn2  1  0.24993214  0.03838868  0.48723032  1  0  1.177842  0  1.782571  0  0  0.998333  0  2.291195  0  0  1.050047  0  2.219435  0  1.350587  0  0.698578  0.962007  0  2.341021  0
Zn  Zn3  1  0.75007087  0.53838676  0.01276974  1  0  1.177817  0  1.782434  0  0  0.998325  0  2.291058  0  0  1.05004  0  2.219301  0  1.35064  0  0.698566  0.962  0  2.340881  0
H  H4  1  0.91506109  0.21330407  0.21184916  1  0  0.106575  0  0.954459  0  0  0.115696  0  1.016509  0  0  0.118388  0  1.016572  0  0.087656  0  0.101195  0.113771  0  1.0166  0
H  H5  1  0.08495176  0.71330409  0.28815440  1  0  0.106541  0  0.954408  0  0  0.115712  0  1.016415  0  0  0.118411  0  1.016468  0  0.087558  0  0.101163  0.113787  0  1.016506  0
H  H6  1  0.08493065  0.78667275  0.78814576  1  0  0.106554  0  0.95449  0  0  0.115728  0  1.016479  0  0  0.118407  0  1.01653  0  0.087518  0  0.101261  0.113807  0  1.016566  0
H  H7  1  0.91505828  0.28667371  0.71185115  1  0  0.106591  0  0.954518  0  0  0.115747  0  1.01652  0  0  0.118448  0  1.016543  0  0.087596  0  0.101272  0.113824  0  1.016609  0
H  H8  1  0.64568547  0.58901854  0.59872205  1  0  0.106284  0  0.96192  0  0  0.113237  0  1.028719  0  0  0.116485  0  1.027164  0  0.098466  0  0.097832  0.110832  0  1.03006  0
H  H9  1  0.35431050  0.08902046  0.90127985  1  0  0.106298  0  0.961991  0  0  0.113261  0  1.028764  0  0  0.116508  0  1.027212  0  0.098449  0  0.097831  0.110861  0  1.030098  0
H  H10  1  0.35435272  0.41099308  0.40128770  1  0  0.106286  0  0.961832  0  0  0.113232  0  1.028611  0  0  0.11651  0  1.02702  0  0.098182  0  0.097837  0.110816  0  1.029982  0
H  H11  1  0.64565310  0.91099020  0.09871351  1  0  0.106249  0  0.961901  0  0  0.113212  0  1.028655  0  0  0.116478  0  1.027076  0  0.098173  0  0.097832  0.110797  0  1.030026  0
H  H12  1  0.65914039  0.34831248  0.15408827  1  0  0.100643  0  0.968198  0  0  0.107747  0  1.032986  0  0  0.110895  0  1.030843  0  0.098319  0  0.09702  0.10542  0  1.034632  0
H  H13  1  0.34088232  0.84829606  0.34591828  1  0  0.100642  0  0.968099  0  0  0.107759  0  1.032891  0  0  0.110908  0  1.030743  0  0.099013  0  0.096986  0.105431  0  1.034536  0
H  H14  1  0.34084854  0.65166629  0.84590445  1  0  0.100556  0  0.96821  0  0  0.107639  0  1.033038  0  0  0.110784  0  1.030902  0  0.098297  0  0.096942  0.105315  0  1.034678  0
H  H15  1  0.65912772  0.15167401  0.65409356  1  0  0.100617  0  0.968136  0  0  0.107701  0  1.032965  0  0  0.110849  0  1.030819  0  0.098568  0  0.096934  0.105374  0  1.034608  0
H  H16  1  0.94733882  0.68953985  0.64618272  1  0  0.082016  0  0.977028  0  0  0.089941  0  1.045622  0  0  0.092373  0  1.044139  0  0.061627  0  0.093346  0.088264  0  1.046478  0
H  H17  1  0.05266700  0.18954467  0.85381901  1  0  0.082091  0  0.976872  0  0  0.089993  0  1.045501  0  0  0.092428  0  1.044014  0  0.061541  0  0.093386  0.088315  0  1.046357  0
H  H18  1  0.05269796  0.31047371  0.35381912  1  0  0.082034  0  0.976889  0  0  0.089958  0  1.045472  0  0  0.092386  0  1.043985  0  0.06173  0  0.093355  0.08828  0  1.046328  0
H  H19  1  0.94730786  0.81046502  0.14617424  1  0  0.081944  0  0.976958  0  0  0.08983  0  1.045607  0  0  0.092259  0  1.044124  0  0.061872  0  0.093305  0.088152  0  1.046463  0
H  H20  1  0.34444027  0.35338252  0.20226287  1  0  0.095417  0  0.968739  0  0  0.100424  0  1.03737  0  0  0.103526  0  1.036351  0  0.107395  0  0.094003  0.098176  0  1.038259  0
H  H21  1  0.65559088  0.85335547  0.29774557  1  0  0.095497  0  0.968627  0  0  0.100526  0  1.037232  0  0  0.103626  0  1.036206  0  0.107139  0  0.09407  0.098269  0  1.038146  0
H  H22  1  0.65555570  0.64660398  0.79773379  1  0  0.095436  0  0.968832  0  0  0.100441  0  1.037447  0  0  0.103542  0  1.036427  0  0.107163  0  0.094012  0.098185  0  1.03836  0
H  H23  1  0.34442198  0.14661943  0.70226219  1  0  0.095416  0  0.968779  0  0  0.100427  0  1.037408  0  0  0.103531  0  1.036391  0  0.107272  0  0.093998  0.098174  0  1.038312  0
H  H24  1  0.24954651  0.56881860  0.64324134  1  0  0.09297  0  0.951758  0  0  0.10395  0  1.011665  0  0  0.10631  0  1.011947  0  0.070404  0  0.098345  0.102261  0  1.01159  0
H  H25  1  0.75045087  0.06882342  0.85675955  1  0  0.092918  0  0.951892  0  0  0.103907  0  1.011785  0  0  0.106275  0  1.01205  0  0.070314  0  0.098344  0.102218  0  1.011711  0
H  H26  1  0.75048605  0.43119013  0.35675929  1  0  0.092864  0  0.951689  0  0  0.103878  0  1.011561  0  0  0.106237  0  1.01185  0  0.07072  0  0.098252  0.102189  0  1.011488  0
H  H27  1  0.24952258  0.93117854  0.14323207  1  0  0.092873  0  0.9518  0  0  0.103908  0  1.01163  0  0  0.106265  0  1.011924  0  0.07042  0  0.098298  0.102218  0  1.011558  0
H  H28  1  0.29937474  0.22583517  0.31002541  1  0  0.095753  0  0.977386  0  0  0.103157  0  1.044848  0  0  0.106285  0  1.042424  0  0.091492  0  0.101141  0.100832  0  1.04671  0
H  H29  1  0.70063671  0.72581779  0.18997706  1  0  0.095577  0  0.977477  0  0  0.103134  0  1.044793  0  0  0.106264  0  1.042362  0  0.09126  0  0.101139  0.100806  0  1.046656  0
H  H30  1  0.70061700  0.77415712  0.68997057  1  0  0.095797  0  0.977277  0  0  0.103195  0  1.044771  0  0  0.106322  0  1.042347  0  0.091323  0  0.10114  0.100881  0  1.04662  0
H  H31  1  0.29936348  0.27418031  0.81002394  1  0  0.095602  0  0.977418  0  0  0.103155  0  1.044733  0  0  0.106287  0  1.042305  0  0.091356  0  0.101151  0.100827  0  1.046598  0
H  H32  1  0.24479506  0.34906438  0.59036558  1  0  0.091113  0  0.986069  0  0  0.098277  0  1.053945  0  0  0.101058  0  1.052565  0  0.109172  0  0.093485  0.096213  0  1.055145  0
H  H33  1  0.75520372  0.84907116  0.90963171  1  0  0.091054  0  0.986108  0  0  0.098239  0  1.05395  0  0  0.101021  0  1.052575  0  0.1091  0  0.093497  0.096176  0  1.055149  0
H  H34  1  0.75522624  0.65093854  0.40963674  1  0  0.091168  0  0.986012  0  0  0.098329  0  1.053873  0  0  0.10111  0  1.052495  0  0.109064  0  0.09351  0.096265  0  1.055074  0
H  H35  1  0.24477677  0.15093080  0.09036018  1  0  0.091194  0  0.986015  0  0  0.098377  0  1.053854  0  0  0.101161  0  1.052469  0  0.109274  0  0.093533  0.096312  0  1.055059  0
C  C36  1  0.75178651  0.14397520  0.29271931  1  0  0.132592  0  3.742454  0  0  0.138611  0  4.002829  0  0  0.143794  0  4.024791  0  -0.005202  0  0.023298  0.135212  0  3.987993  0
C  C37  1  0.24822353  0.64396941  0.20728415  1  0  0.132604  0  3.742413  0  0  0.138647  0  4.002746  0  0  0.143835  0  4.024703  0  -0.005197  0  0.02335  0.135246  0  3.987913  0
C  C38  1  0.24820383  0.85601806  0.70727923  1  0  0.132609  0  3.742284  0  0  0.138619  0  4.00269  0  0  0.143803  0  4.024646  0  -0.005078  0  0.023315  0.13522  0  3.987853  0
C  C39  1  0.75178510  0.35602095  0.79271873  1  0  0.132561  0  3.742479  0  0  0.138621  0  4.002796  0  0  0.143802  0  4.02476  0  -0.005328  0  0.023302  0.135221  0  3.987956  0
C  C40  1  0.77598003  0.41179621  0.56967369  1  0  0.128918  0  3.775747  0  0  0.133548  0  4.037137  0  0  0.138072  0  4.059461  0  0.003129  0  0.019785  0.130549  0  4.022005  0
C  C41  1  0.22401453  0.91179719  0.93032396  1  0  0.12905  0  3.77585  0  0  0.133682  0  4.037236  0  0  0.138206  0  4.059558  0  0.003149  0  0.019807  0.130684  0  4.022106  0
C  C42  1  0.22403987  0.58821348  0.43033591  1  0  0.128743  0  3.775637  0  0  0.13349  0  4.037019  0  0  0.138011  0  4.059352  0  0.004986  0  0.019838  0.130495  0  4.021881  0
C  C43  1  0.77596736  0.08821347  0.06966588  1  0  0.128812  0  3.775714  0  0  0.133452  0  4.037144  0  0  0.137973  0  4.059475  0  0.00485  0  0.019779  0.130457  0  4.022006  0
C  C44  1  0.77932546  0.21758258  0.23321639  1  0  -0.142446  0  3.762046  0  0  -0.163854  0  4.015193  0  0  -0.169336  0  4.037491  0  0.034351  0  -0.097436  -0.160212  0  3.999997  0
C  C45  1  0.22068599  0.71757873  0.26678713  1  0  -0.142409  0  3.761757  0  0  -0.163872  0  4.014912  0  0  -0.169358  0  4.037202  0  0.03452  0  -0.097434  -0.160228  0  3.999715  0
C  C46  1  0.22065925  0.78239618  0.76678037  1  0  -0.142439  0  3.76149  0  0  -0.163895  0  4.01469  0  0  -0.169348  0  4.037014  0  0.034211  0  -0.097512  -0.160254  0  3.999497  0
C  C47  1  0.77931983  0.28240970  0.73321513  1  0  -0.142503  0  3.761866  0  0  -0.163971  0  4.015039  0  0  -0.169438  0  4.037359  0  0.034861  0  -0.097521  -0.160327  0  3.999842  0
C  C48  1  0.77716085  0.53586914  0.59836720  1  0  -0.131435  0  3.740803  0  0  -0.153922  0  3.993492  0  0  -0.158262  0  4.01433  0  0.003643  0  -0.096725  -0.151081  0  3.979488  0
C  C49  1  0.22283793  0.03587299  0.90163375  1  0  -0.131549  0  3.740979  0  0  -0.154029  0  3.993666  0  0  -0.158368  0  4.014502  0  0.003699  0  -0.096669  -0.151193  0  3.979658  0
C  C50  1  0.22287452  0.46413282  0.40164087  1  0  -0.131294  0  3.740509  0  0  -0.153762  0  3.993148  0  0  -0.158125  0  4.013971  0  0.003207  0  -0.096715  -0.150927  0  3.979138  0
C  C51  1  0.77712848  0.96413186  0.09835761  1  0  -0.131334  0  3.740496  0  0  -0.153804  0  3.993155  0  0  -0.158151  0  4.013984  0  0.003155  0  -0.096729  -0.150967  0  3.979144  0
C  C52  1  0.63456124  0.29378298  0.20107588  1  0  -0.024339  0  3.730962  0  0  -0.04326  0  3.986284  0  0  -0.041655  0  4.00511  0  0.002833  0  -0.082548  -0.043787  0  3.973141  0
C  C53  1  0.36546288  0.79376752  0.29892863  1  0  -0.02434  0  3.730895  0  0  -0.04327  0  3.986253  0  0  -0.041668  0  4.005077  0  0.001832  0  -0.08255  -0.043794  0  3.973106  0
C  C54  1  0.36543191  0.70619675  0.79891700  1  0  -0.02415  0  3.730626  0  0  -0.043065  0  3.985965  0  0  -0.04146  0  4.004781  0  0.00299  0  -0.08241  -0.043591  0  3.972817  0
C  C55  1  0.63454576  0.20621124  0.70107845  1  0  -0.024215  0  3.730776  0  0  -0.043114  0  3.986101  0  0  -0.041512  0  4.004927  0  0.002278  0  -0.082468  -0.043639  0  3.972952  0
C  C56  1  0.94719949  0.59187442  0.62495184  1  0  -0.021846  0  3.73752  0  0  -0.039666  0  3.993601  0  0  -0.038804  0  4.013493  0  -0.009148  0  -0.082963  -0.040024  0  3.979809  0
C  C57  1  0.05280211  0.09188504  0.87504974  1  0  -0.021846  0  3.737437  0  0  -0.039661  0  3.993535  0  0  -0.038802  0  4.013425  0  -0.009799  0  -0.083053  -0.04002  0  3.979747  0
C  C58  1  0.05283026  0.40813720  0.37505079  1  0  -0.021923  0  3.737387  0  0  -0.039773  0  3.993565  0  0  -0.038907  0  4.013457  0  -0.009229  0  -0.082969  -0.040126  0  3.979769  0
C  C59  1  0.94717416  0.90812272  0.12494513  1  0  -0.021769  0  3.73731  0  0  -0.039582  0  3.993456  0  0  -0.038718  0  4.013342  0  -0.009352  0  -0.082903  -0.039938  0  3.979662  0
C  C60  1  0.45965997  0.29623875  0.22798974  1  0  -0.076989  0  3.753323  0  0  -0.090142  0  4.005068  0  0  -0.094305  0  4.026122  0  -0.030466  0  -0.094417  -0.087598  0  3.990848  0
C  C61  1  0.54036274  0.79622136  0.27201839  1  0  -0.077201  0  3.753445  0  0  -0.090373  0  4.005234  0  0  -0.094541  0  4.026303  0  -0.029057  0  -0.094547  -0.087831  0  3.991012  0
C  C62  1  0.54032896  0.70374002  0.77200456  1  0  -0.077164  0  3.753613  0  0  -0.090286  0  4.005361  0  0  -0.094448  0  4.02642  0  -0.030021  0  -0.094559  -0.087744  0  3.991135  0
C  C63  1  0.45964730  0.20376030  0.72798979  1  0  -0.077195  0  3.753515  0  0  -0.090361  0  4.005287  0  0  -0.094539  0  4.026364  0  -0.030408  0  -0.09451  -0.087818  0  3.991061  0
C  C64  1  0.11640193  0.52512019  0.62269083  1  0  -0.077224  0  3.758381  0  0  -0.095371  0  4.016043  0  0  -0.098571  0  4.036974  0  0.043838  0  -0.094922  -0.093417  0  4.001993  0
C  C65  1  0.88358700  0.02513081  0.87730923  1  0  -0.07716  0  3.75809  0  0  -0.095316  0  4.015754  0  0  -0.098513  0  4.036691  0  0.034481  0  -0.094875  -0.093361  0  4.001705  0
C  C66  1  0.88362641  0.47488950  0.37730651  1  0  -0.077123  0  3.757781  0  0  -0.095282  0  4.015434  0  0  -0.098482  0  4.036354  0  0.044465  0  -0.094873  -0.093328  0  4.001388  0
C  C67  1  0.11638223  0.97487984  0.12268747  1  0  -0.077101  0  3.757942  0  0  -0.095283  0  4.01561  0  0  -0.098482  0  4.036531  0  0.044198  0  -0.094877  -0.093328  0  4.001562  0
C  C68  1  0.43402385  0.22511419  0.28794890  1  0  -0.049451  0  3.731417  0  0  -0.071473  0  3.975172  0  0  -0.069721  0  3.995157  0  -0.046755  0  -0.081356  -0.072481  0  3.961632  0
C  C69  1  0.56599182  0.72509777  0.21205739  1  0  -0.049153  0  3.731149  0  0  -0.07131  0  3.974937  0  0  -0.069556  0  3.994917  0  -0.047454  0  -0.081276  -0.072316  0  3.961397  0
C  C70  1  0.56596086  0.77487520  0.71204786  1  0  -0.049368  0  3.731489  0  0  -0.071421  0  3.975292  0  0  -0.069668  0  3.995279  0  -0.046688  0  -0.081286  -0.07244  0  3.961744  0
C  C71  1  0.43401963  0.27488872  0.78794770  1  0  -0.049209  0  3.731375  0  0  -0.071336  0  3.975115  0  0  -0.069587  0  3.995101  0  -0.046631  0  -0.081326  -0.072342  0  3.961575  0
C  C72  1  0.11426265  0.40213839  0.59319746  1  0  -0.05483  0  3.738129  0  0  -0.077944  0  3.985327  0  0  -0.0773  0  4.005715  0  -0.142973  0  -0.084243  -0.078337  0  3.971746  0
C  C73  1  0.88573191  0.90213937  0.90680124  1  0  -0.054654  0  3.737626  0  0  -0.077761  0  3.984828  0  0  -0.077125  0  4.005222  0  -0.133004  0  -0.084159  -0.078154  0  3.971249  0
C  C74  1  0.88576005  0.59787903  0.40680438  1  0  -0.055074  0  3.737899  0  0  -0.078113  0  3.985167  0  0  -0.077473  0  4.005557  0  -0.144098  0  -0.084246  -0.078502  0  3.971576  0
C  C75  1  0.11424999  0.09787128  0.09319384  1  0  -0.055043  0  3.737901  0  0  -0.078165  0  3.985143  0  0  -0.077524  0  4.00553  0  -0.143738  0  -0.08426  -0.078552  0  3.971549  0
C  C76  1  0.57845310  0.14883359  0.32251423  1  0  -0.14068  0  3.722891  0  0  -0.12372  0  3.955663  0  0  -0.135059  0  3.979877  0  -0.029917  0  -0.024787  -0.116312  0  3.939461  0
C  C77  1  0.42155694  0.64882393  0.17749080  1  0  -0.140651  0  3.722934  0  0  -0.123704  0  3.955758  0  0  -0.13505  0  3.979971  0  -0.030008  0  -0.02478  -0.116296  0  3.939558  0
C  C78  1  0.42154286  0.85115967  0.67748713  1  0  -0.140878  0  3.723168  0  0  -0.123831  0  3.95601  0  0  -0.135175  0  3.980228  0  -0.029581  0  -0.024773  -0.11642  0  3.939809  0
C  C79  1  0.57844747  0.35116546  0.82251088  1  0  -0.140668  0  3.723018  0  0  -0.123703  0  3.955874  0  0  -0.135044  0  3.980089  0  -0.029459  0  -0.024763  -0.116292  0  3.939669  0
C  C80  1  0.94480125  0.34303175  0.56687936  1  0  -0.134081  0  3.743441  0  0  -0.114273  0  3.972179  0  0  -0.124227  0  3.995101  0  0.068818  0  -0.023838  -0.107669  0  3.956646  0
C  C81  1  0.05519613  0.84303563  0.93311735  1  0  -0.134192  0  3.743433  0  0  -0.114439  0  3.97229  0  0  -0.124387  0  3.995209  0  0.068927  0  -0.023959  -0.107836  0  3.956756  0
C  C82  1  0.05522287  0.65697407  0.43312463  1  0  -0.133735  0  3.743281  0  0  -0.114164  0  3.972319  0  0  -0.124114  0  3.995237  0  0.068795  0  -0.023937  -0.10756  0  3.956784  0
C  C83  1  0.94478154  0.15697116  0.06687653  1  0  -0.133837  0  3.743241  0  0  -0.114059  0  3.972079  0  0  -0.124009  0  3.995  0  0.068844  0  -0.023852  -0.107456  0  3.956543  0
C  C84  1  0.53740435  0.08317145  0.38903588  1  0  0.695691  0  3.865284  0  0  0.64336  0  4.152113  0  0  0.680216  0  4.14339  0  1.563429  0  0.225747  0.618275  0  4.157398  0
C  C85  1  0.46260992  0.58317340  0.11096827  1  0  0.695697  0  3.865313  0  0  0.643359  0  4.152145  0  0  0.680218  0  4.143416  0  1.563326  0  0.225721  0.618274  0  4.157432  0
C  C86  1  0.46257896  0.91683147  0.61096921  1  0  0.695904  0  3.864926  0  0  0.643339  0  4.152075  0  0  0.680196  0  4.143354  0  1.562934  0  0.225661  0.618251  0  4.157356  0
C  C87  1  0.53740716  0.41683629  0.88903127  1  0  0.695814  0  3.865134  0  0  0.64334  0  4.152157  0  0  0.680195  0  4.143432  0  1.562747  0  0.225712  0.618252  0  4.157437  0
C  C88  1  0.95486851  0.20923045  0.53837918  1  0  0.711335  0  3.850024  0  0  0.656887  0  4.136705  0  0  0.694264  0  4.126385  0  1.576276  0  0.230173  0.631596  0  4.142714  0
C  C89  1  0.04512886  0.70923046  0.96161648  1  0  0.711299  0  3.850217  0  0  0.656886  0  4.136863  0  0  0.694262  0  4.126543  0  1.576175  0  0.230252  0.631598  0  4.142868  0
C  C90  1  0.04514435  0.79077924  0.46162648  1  0  0.711444  0  3.8498  0  0  0.657016  0  4.136573  0  0  0.694391  0  4.12625  0  1.576497  0  0.230352  0.631726  0  4.142582  0
C  C91  1  0.95485303  0.29078212  0.03837860  1  0  0.711454  0  3.84996  0  0  0.656919  0  4.136806  0  0  0.694294  0  4.126487  0  1.576503  0  0.230222  0.63163  0  4.142811  0
Cl  Cl92  1  0.94141781  0.05026355  0.32607581  1  0  -0.06915  0  1.404543  0  0  -0.048179  0  1.644946  0  0  -0.052038  0  1.639306  0  -0.201307  0  0.023011  -0.045114  0  1.648725  0
Cl  Cl93  1  0.05858519  0.55026647  0.17392320  1  0  -0.069174  0  1.404539  0  0  -0.048203  0  1.644925  0  0  -0.052063  0  1.639285  0  -0.201208  0  0.022994  -0.045141  0  1.648705  0
Cl  Cl94  1  0.05857534  0.94973164  0.67392755  1  0  -0.069097  0  1.404656  0  0  -0.048104  0  1.645046  0  0  -0.051971  0  1.63941  0  -0.201352  0  0.023052  -0.045037  0  1.64883  0
Cl  Cl95  1  0.94142063  0.44972776  0.82607591  1  0  -0.069123  0  1.404532  0  0  -0.048166  0  1.644943  0  0  -0.052032  0  1.639309  0  -0.201306  0  0.023036  -0.045097  0  1.648725  0
Cl  Cl96  1  0.56403973  0.34758183  0.53398107  1  0  -0.073048  0  1.451435  0  0  -0.052613  0  1.701137  0  0  -0.05697  0  1.696449  0  -0.203763  0  0.026761  -0.049331  0  1.70444  0
Cl  Cl97  1  0.43595764  0.84758378  0.96601459  1  0  -0.07311  0  1.451409  0  0  -0.052675  0  1.701104  0  0  -0.05703  0  1.696417  0  -0.203757  0  0.0267  -0.049393  0  1.704407  0
Cl  Cl98  1  0.43597031  0.65242785  0.46603444  1  0  -0.073009  0  1.451441  0  0  -0.052583  0  1.701116  0  0  -0.056938  0  1.696427  0  -0.204584  0  0.026765  -0.049303  0  1.704416  0
Cl  Cl99  1  0.56403410  0.15243364  0.03397248  1  0  -0.073028  0  1.451406  0  0  -0.052581  0  1.701091  0  0  -0.056935  0  1.696403  0  -0.204465  0  0.026773  -0.049301  0  1.70439  0
O  O100  1  0.64876913  0.99547797  0.41518729  1  0  -0.670269  0  2.141019  0  0  -0.598205  0  2.432159  0  0  -0.626869  0  2.412633  0  -1.182267  0  -0.321523  -0.578208  0  2.444946  0
O  O101  1  0.35123106  0.49547699  0.08481267  1  0  -0.670278  0  2.140774  0  0  -0.598206  0  2.431926  0  0  -0.626873  0  2.412398  0  -1.182085  0  -0.321513  -0.578209  0  2.444715  0
O  O102  1  0.35121418  0.00452689  0.58481937  1  0  -0.670239  0  2.141003  0  0  -0.598089  0  2.432231  0  0  -0.626751  0  2.412709  0  -1.182184  0  -0.321507  -0.578114  0  2.445071  0
O  O103  1  0.64877053  0.50452594  0.91518210  1  0  -0.670161  0  2.141087  0  0  -0.598061  0  2.432303  0  0  -0.626717  0  2.412768  0  -1.18221  0  -0.321441  -0.578101  0  2.445179  0
O  O104  1  0.83151534  0.12765752  0.55415768  1  0  -0.670077  0  2.148056  0  0  -0.597135  0  2.439089  0  0  -0.627217  0  2.420216  0  -1.173276  0  -0.316543  -0.576589  0  2.451574  0
O  O105  1  0.16848344  0.62765947  0.94584118  1  0  -0.670086  0  2.148118  0  0  -0.597138  0  2.439129  0  0  -0.627216  0  2.420255  0  -1.173318  0  -0.316575  -0.576595  0  2.451613  0
O  O106  1  0.16848626  0.87235313  0.44584704  1  0  -0.67032  0  2.148229  0  0  -0.59732  0  2.439247  0  0  -0.627398  0  2.42037  0  -1.173438  0  -0.316698  -0.576777  0  2.451734  0
O  O107  1  0.83151393  0.37235119  0.05415763  1  0  -0.670222  0  2.148283  0  0  -0.597225  0  2.439343  0  0  -0.627301  0  2.420466  0  -1.173567  0  -0.316558  -0.576683  0  2.45183  0
O  O108  1  0.38924825  0.12036270  0.41561170  1  0  -0.644379  0  2.102993  0  0  -0.571339  0  2.387652  0  0  -0.600226  0  2.369397  0  -1.169478  0  -0.312836  -0.551398  0  2.399689  0
O  O109  1  0.61075476  0.62036271  0.08439046  1  0  -0.644377  0  2.103194  0  0  -0.57133  0  2.387828  0  0  -0.600223  0  2.369594  0  -1.169564  0  -0.312811  -0.551386  0  2.399855  0
O  O110  1  0.61074350  0.87964699  0.58438951  1  0  -0.644468  0  2.102587  0  0  -0.571346  0  2.387337  0  0  -0.600234  0  2.369082  0  -1.16948  0  -0.312769  -0.551408  0  2.399386  0
O  O111  1  0.38923839  0.37965085  0.91560819  1  0  -0.644522  0  2.102721  0  0  -0.57139  0  2.387363  0  0  -0.600293  0  2.369151  0  -1.169306  0  -0.312825  -0.551442  0  2.399391  0
O  O112  1  0.08997484  0.18656604  0.50161069  1  0  -0.636895  0  2.105413  0  0  -0.562071  0  2.389501  0  0  -0.591157  0  2.37093  0  -1.176842  0  -0.309549  -0.54183  0  2.401371  0
O  O113  1  0.91002254  0.68656606  0.99838339  1  0  -0.636877  0  2.105674  0  0  -0.562109  0  2.389796  0  0  -0.591198  0  2.371234  0  -1.176697  0  -0.309607  -0.541867  0  2.401662  0
O  O114  1  0.91003239  0.81343785  0.49839319  1  0  -0.636872  0  2.105377  0  0  -0.562072  0  2.389493  0  0  -0.591162  0  2.370931  0  -1.176887  0  -0.309527  -0.54183  0  2.40136  0
O  O115  1  0.08996921  0.31344557  0.00161153  1  0  -0.636952  0  2.105464  0  0  -0.562113  0  2.389615  0  0  -0.591202  0  2.371054  0  -1.176758  0  -0.309581  -0.541873  0  2.401482  0
