# generated using pymatgen
data_Ag3H12C16(SN4)2
_symmetry_space_group_name_H-M   'P 1'
_cell_length_a   8.39906369
_cell_length_b   8.32159288
_cell_length_c   16.36950517
_cell_angle_alpha   94.33678736
_cell_angle_beta   89.98431617
_cell_angle_gamma   120.30085217
_symmetry_Int_Tables_number   1
_chemical_formula_structural   Ag3H12C16(SN4)2
_chemical_formula_sum   'Ag6 H24 C32 S4 N16'
_cell_volume   984.04029736
_cell_formula_units_Z   2
loop_
 _symmetry_equiv_pos_site_id
 _symmetry_equiv_pos_as_xyz
  1  'x, y, z'
loop_
 _atom_site_type_symbol
 _atom_site_label
 _atom_site_symmetry_multiplicity
 _atom_site_fract_x
 _atom_site_fract_y
 _atom_site_fract_z
 _atom_site_occupancy
 _atom_site_pbe_bader_charge
 _atom_site_pbe_bader_spin_density
 _atom_site_pbe_cm5_charge
 _atom_site_pbe_ddec_charge
 _atom_site_pbe_ddec_spin_density
 _atom_site_pbe_ddec_sum_bond_order
 _atom_site_pbe_magmom
Ag  Ag0  1  0.56905129  0.27296763  0.38941050  1  0.505937  0.010789  0.457337  0.270319  0.023543  2.006423  0.009
Ag  Ag1  1  0.29508083  0.72619624  0.11090071  1  0.506489  -0.010218  0.456614  0.269858  -0.022389  2.003322  -0.008
Ag  Ag2  1  0.43158533  0.72676047  0.61086267  1  0.506585  0.010178  0.456567  0.270431  0.022336  2.002583  0.008
Ag  Ag3  1  0.70404711  0.27353151  0.88938372  1  0.505592  -0.010813  0.457506  0.270174  -0.0236  2.007829  -0.009
Ag  Ag4  1  0.12388086  0.00047574  0.75030944  1  0.507369  -0.000219  0.477296  0.318261  -0.000446  1.896366  0.0
Ag  Ag5  1  0.87632386  0.99974093  0.24980283  1  0.507308  0.00027  0.477553  0.318094  0.000525  1.896941  0.0
H  H6  1  0.36046223  0.33668198  0.67361736  1  0.094329  1.7e-05  0.105245  0.09662  -0.000137  1.053706  0.0
H  H7  1  0.03816359  0.79083213  0.56456608  1  0.085246  0.000333  0.101251  0.090528  -4.4e-05  1.033061  0.0
H  H8  1  0.23473727  0.87879560  0.44364057  1  0.070556  0.000844  0.105879  0.08595  0.00056  1.030709  0.0
H  H9  1  0.67357625  0.28429934  0.69796806  1  0.06728  0.000447  0.106753  0.089236  0.000441  1.037559  0.0
H  H10  1  0.67238597  0.62165440  0.90104149  1  0.092638  -0.000286  0.10574  0.08623  -0.000283  1.0264  0.0
H  H11  1  0.71766915  0.86487539  0.80886973  1  0.068472  1.6e-05  0.106217  0.08581  5.8e-05  1.014149  0.0
H  H12  1  0.02245733  0.66402817  0.82716645  1  0.107318  -4.2e-05  0.10507  0.096198  9.9e-05  1.054728  0.0
H  H13  1  0.25255895  0.21135426  0.93567521  1  0.069559  -0.00038  0.101442  0.090641  3e-05  1.032282  0.0
H  H14  1  0.36086602  0.12250338  0.05609644  1  0.095874  -0.000795  0.105858  0.085842  -0.000566  1.032051  0.0
H  H15  1  0.38748656  0.71685542  0.80247590  1  0.100337  -0.000467  0.106625  0.089209  -0.000493  1.0375  0.0
H  H16  1  0.05285326  0.37835257  0.59873194  1  0.087541  0.000264  0.10596  0.086521  0.000268  1.02627  0.0
H  H17  1  0.85433623  0.13450372  0.69059914  1  0.058791  -6e-06  0.106207  0.085881  -1.4e-05  1.013894  0.0
H  H18  1  0.64120846  0.66337102  0.32686006  1  0.088354  6.1e-05  0.105051  0.096221  -9.9e-05  1.055049  0.0
H  H19  1  0.95957612  0.21063813  0.43519718  1  0.082552  0.000353  0.101391  0.090564  -2.5e-05  1.03282  0.0
H  H20  1  0.76295216  0.12243619  0.55578062  1  0.072543  0.000823  0.105669  0.085761  0.000569  1.031153  0.0
H  H21  1  0.32905190  0.71634677  0.30241703  1  0.108316  0.000464  0.106929  0.089424  0.000487  1.037644  0.0
H  H22  1  0.32391435  0.37678122  0.09876688  1  0.086746  -0.000266  0.106103  0.086763  -0.000275  1.026237  0.0
H  H23  1  0.27917968  0.13347387  0.19080494  1  0.06301  5e-06  0.106399  0.08639  1.2e-05  1.014048  0.0
H  H24  1  0.97566004  0.33615932  0.17351646  1  0.103567  -3.4e-05  0.105362  0.097072  0.000136  1.053546  0.0
H  H25  1  0.75242308  0.79070600  0.06399385  1  0.074779  -0.000342  0.101032  0.090532  4.6e-05  1.033203  0.0
H  H26  1  0.64397496  0.87930358  0.94319769  1  0.059985  -0.000888  0.106066  0.085899  -0.000562  1.031793  0.0
H  H27  1  0.61010834  0.28410139  0.19799861  1  0.092884  -0.000409  0.106785  0.08925  -0.000435  1.037964  0.0
H  H28  1  0.94898968  0.62066211  0.40106100  1  0.090421  0.000285  0.105779  0.086265  0.000281  1.026866  0.0
H  H29  1  0.14687551  0.86409888  0.30902447  1  0.075569  -1e-05  0.106434  0.086235  -5.4e-05  1.013722  0.0
C  C30  1  0.45561507  0.27472021  0.56039929  1  0.31991  0.021607  0.084341  0.122659  0.020298  4.099238  0.007
C  C31  1  0.33563039  0.23261164  0.62360037  1  0.487312  0.038054  -0.007241  -0.072033  0.038552  4.025247  0.018
C  C32  1  0.15519901  0.93162470  0.56242789  1  0.449077  0.022225  -0.004036  -0.026865  0.022615  4.033015  0.007
C  C33  1  0.26470867  0.97996317  0.49594673  1  0.383045  0.040986  0.004515  0.007449  0.040124  4.006987  0.019
C  C34  1  0.69054185  0.54298668  0.67239670  1  0.391679  -0.004435  0.08845  0.137099  -0.004309  4.076954  -0.004
C  C35  1  0.67913469  0.41159654  0.72335306  1  0.482971  0.003126  0.012249  -0.041109  0.002977  3.992326  0.001
C  C36  1  0.67798306  0.59892098  0.83498954  1  0.362492  0.00077  0.00329  -0.01695  0.000746  4.002103  0.0
C  C37  1  0.70103537  0.73171042  0.78359841  1  0.414755  0.00435  0.001603  0.001587  0.00428  4.075125  0.002
C  C38  1  0.18037072  0.72530436  0.93994842  1  0.324119  -0.022713  0.083561  0.122135  -0.021584  4.100444  -0.007
C  C39  1  0.10257016  0.76808630  0.87701091  1  0.450484  -0.037991  -0.007111  -0.071628  -0.038331  4.025003  -0.018
C  C40  1  0.22671048  0.06982737  0.93785712  1  0.418338  -0.023929  -0.004316  -0.027072  -0.023997  4.032916  -0.008
C  C41  1  0.28781472  0.02093564  0.00415766  1  0.395264  -0.04127  0.003908  0.006476  -0.040702  4.009018  -0.019
C  C42  1  0.14643026  0.45693963  0.82753911  1  0.425125  0.002787  0.089439  0.138763  0.002726  4.074041  0.003
C  C43  1  0.26674691  0.58900750  0.77680621  1  0.425009  -0.004469  0.012589  -0.041625  -0.004298  3.991982  -0.001
C  C44  1  0.08029552  0.40113822  0.66483144  1  0.358531  -0.004156  0.002657  -0.017761  -0.00402  4.000407  -0.002
C  C45  1  0.97021612  0.26791242  0.71603245  1  0.433116  -0.005074  0.00206  0.002833  -0.005089  4.072309  -0.002
C  C46  1  0.54515404  0.72509428  0.43976981  1  0.379692  0.022193  0.083633  0.122299  0.02139  4.098598  0.007
C  C47  1  0.66551613  0.76757647  0.37670628  1  0.43344  0.038442  -0.007323  -0.072616  0.038442  4.024227  0.018
C  C48  1  0.84372444  0.06929151  0.43741394  1  0.375462  0.024089  -0.004414  -0.027581  0.023928  4.032172  0.008
C  C49  1  0.73396541  0.02072110  0.50383430  1  0.457152  0.041106  0.004399  0.007513  0.04073  4.006947  0.019
C  C50  1  0.31025275  0.45659319  0.32761982  1  0.394312  -0.002696  0.089601  0.1391  -0.002637  4.076409  -0.003
C  C51  1  0.32185600  0.58842291  0.27680995  1  0.443829  0.004467  0.012102  -0.042355  0.004305  3.993034  0.001
C  C52  1  0.31985850  0.40001801  0.16487311  1  0.377253  0.004101  0.003282  -0.016521  0.004006  3.999245  0.002
C  C53  1  0.29692934  0.26704161  0.21617065  1  0.413735  0.005135  0.001765  0.001471  0.005114  4.07197  0.002
C  C54  1  0.81885305  0.27468640  0.06025674  1  0.339036  -0.021312  0.084131  0.122831  -0.020231  4.099003  -0.007
C  C55  1  0.89649835  0.23230329  0.12342560  1  0.448201  -0.03806  -0.007123  -0.073022  -0.038359  4.025185  -0.018
C  C56  1  0.77608628  0.93151778  0.06196399  1  0.439723  -0.022101  -0.003857  -0.027167  -0.022532  4.031941  -0.007
C  C57  1  0.71514352  0.98019682  0.99554885  1  0.40892  -0.040774  0.004635  0.007904  -0.03996  4.007921  -0.019
C  C58  1  0.85211738  0.54276343  0.17250024  1  0.421855  0.004335  0.088272  0.137644  0.004223  4.074316  0.003
C  C59  1  0.73201078  0.41119877  0.22340862  1  0.428561  -0.003279  0.011866  -0.041773  -0.003096  3.992487  -0.001
C  C60  1  0.92060095  0.59808125  0.33502955  1  0.349073  -0.000989  0.002438  -0.017885  -0.000918  4.001497  0.0
C  C61  1  0.03041999  0.73102700  0.28369406  1  0.424323  -0.004395  0.001866  0.001991  -0.004353  4.07423  -0.002
S  S62  1  0.66818032  0.48669269  0.56452373  1  0.101893  0.002589  0.017616  -0.06612  0.002154  2.914933  0.0
S  S63  1  0.17881014  0.51227549  0.93557398  1  0.10254  -0.002514  0.01808  -0.065347  -0.002119  2.913943  0.001
S  S64  1  0.33345655  0.51232407  0.43559128  1  0.102486  0.00252  0.01813  -0.065331  0.002128  2.914406  -0.001
S  S65  1  0.81811706  0.48664920  0.06456146  1  0.102597  -0.002572  0.01735  -0.066773  -0.002142  2.91276  0.0
N  N66  1  0.41966390  0.15329173  0.49243532  1  -1.156721  0.091584  -0.391551  -0.257824  0.089418  3.604977  0.071
N  N67  1  0.18553920  0.05805124  0.62833654  1  -1.169264  0.092714  -0.392852  -0.21374  0.091052  3.627588  0.073
N  N68  1  0.70225737  0.70687463  0.69977508  1  -1.121156  0.008787  -0.354661  -0.334097  0.008385  3.356526  0.007
N  N69  1  0.66802305  0.43388978  0.80599367  1  -1.186231  0.003635  -0.388624  -0.204222  0.003521  3.623372  0.003
N  N70  1  0.26744176  0.84679896  0.00772736  1  -1.140833  -0.094903  -0.391703  -0.257403  -0.092598  3.602512  -0.074
N  N71  1  0.12858574  0.94324205  0.87227954  1  -1.158997  -0.095723  -0.393337  -0.214836  -0.094053  3.626329  -0.076
N  N72  1  0.99524809  0.29265984  0.79989932  1  -1.120085  -0.015132  -0.354796  -0.334556  -0.014551  3.356473  -0.012
N  N73  1  0.23447969  0.56664244  0.69408633  1  -1.190617  -0.009214  -0.387825  -0.203338  -0.00896  3.623004  -0.007
N  N74  1  0.58000011  0.84678422  0.50752759  1  -1.15905  0.094692  -0.391458  -0.258135  0.092457  3.602495  0.074
N  N75  1  0.81478623  0.94258528  0.37181405  1  -1.170244  0.095514  -0.3929  -0.213451  0.093853  3.624731  0.076
N  N76  1  0.29711050  0.29226898  0.30004213  1  -1.121281  0.015179  -0.354898  -0.334241  0.014593  3.356447  0.012
N  N77  1  0.33148338  0.56567593  0.19409349  1  -1.18806  0.009329  -0.388041  -0.203362  0.009077  3.623278  0.007
N  N78  1  0.73350146  0.15352314  0.99222331  1  -1.156334  -0.091065  -0.392079  -0.25771  -0.088895  3.607715  -0.071
N  N79  1  0.87210958  0.05771736  0.12794156  1  -1.152422  -0.09235  -0.392886  -0.213157  -0.090678  3.626656  -0.073
N  N80  1  0.00439935  0.70656903  0.19987607  1  -1.121132  -0.009273  -0.354659  -0.334596  -0.008866  3.356225  -0.008
N  N81  1  0.76539769  0.43319357  0.30603782  1  -1.188839  -0.004024  -0.388258  -0.203727  -0.003903  3.623524  -0.003
