# generated using pymatgen
data_Na2H32C20O9
_symmetry_space_group_name_H-M   'P 1'
_cell_length_a   4.91677992
_cell_length_b   14.17970220
_cell_length_c   16.98000000
_cell_angle_alpha   100.89755134
_cell_angle_beta   98.65505025
_cell_angle_gamma   89.93683711
_symmetry_Int_Tables_number   1
_chemical_formula_structural   Na2H32C20O9
_chemical_formula_sum   'Na4 H64 C40 O18'
_cell_volume   1148.77761474
_cell_formula_units_Z   2
loop_
 _symmetry_equiv_pos_site_id
 _symmetry_equiv_pos_as_xyz
  1  'x, y, z'
loop_
 _atom_site_type_symbol
 _atom_site_label
 _atom_site_symmetry_multiplicity
 _atom_site_fract_x
 _atom_site_fract_y
 _atom_site_fract_z
 _atom_site_occupancy
 _atom_site_hle17_bader_spin_density
 _atom_site_hle17_ddec_charge
 _atom_site_hle17_ddec_spin_density
 _atom_site_hle17_ddec_sum_bond_order
 _atom_site_hle17_magmom
 _atom_site_hse06_10hf_bader_spin_density
 _atom_site_hse06_10hf_ddec_charge
 _atom_site_hse06_10hf_ddec_spin_density
 _atom_site_hse06_10hf_ddec_sum_bond_order
 _atom_site_hse06_10hf_magmom
 _atom_site_hse06_bader_spin_density
 _atom_site_hse06_ddec_charge
 _atom_site_hse06_ddec_spin_density
 _atom_site_hse06_ddec_sum_bond_order
 _atom_site_hse06_magmom
 _atom_site_pbe_bader_charge
 _atom_site_pbe_bader_spin_density
 _atom_site_pbe_cm5_charge
 _atom_site_pbe_ddec_charge
 _atom_site_pbe_ddec_spin_density
 _atom_site_pbe_ddec_sum_bond_order
 _atom_site_pbe_magmom
Na  Na0  1  0.10848298  0.12931449  0.03045307  1  0  0.90399  0  0.372769  0  0  0.863654  0  0.516862  0  0  0.873784  0  0.494695  0  0.884771  0  0.67473  0.856253  0  0.532735  0
Na  Na1  1  0.92319369  0.62917329  0.03058848  1  0  0.90391  0  0.373023  0  0  0.863531  0  0.517438  0  0  0.873573  0  0.495371  0  0.884487  0  0.675183  0.856199  0  0.533166  0
Na  Na2  1  0.89153024  0.87068258  0.96954852  1  0  0.903988  0  0.372765  0  0  0.863657  0  0.516866  0  0  0.87378  0  0.494702  0  0.88477  0  0.67475  0.856253  0  0.532738  0
Na  Na3  1  0.07679913  0.37082594  0.96941138  1  0  0.903898  0  0.373023  0  0  0.863533  0  0.517403  0  0  0.873592  0  0.495327  0  0.884478  0  0.675181  0.856211  0  0.533131  0
H  H4  1  0.90818677  0.34780401  0.27330306  1  0  0.126536  0  0.964539  0  0  0.145884  0  1.027213  0  0  0.148041  0  1.027152  0  0.06554  0  0.095368  0.144286  0  1.027356  0
H  H5  1  0.36395893  0.84839349  0.27452069  1  0  0.126109  0  0.964499  0  0  0.145429  0  1.027012  0  0  0.147594  0  1.026938  0  0.065485  0  0.095327  0.143851  0  1.027127  0
H  H6  1  0.09181622  0.65219378  0.72669525  1  0  0.126567  0  0.964477  0  0  0.145881  0  1.027191  0  0  0.14804  0  1.02713  0  0.065486  0  0.095372  0.144283  0  1.027334  0
H  H7  1  0.63602567  0.15160574  0.72547704  1  0  0.126089  0  0.964527  0  0  0.145409  0  1.027044  0  0  0.147574  0  1.026973  0  0.065522  0  0.095302  0.143832  0  1.027157  0
H  H8  1  0.93933534  0.27444825  0.34910521  1  0  0.114559  0  0.980102  0  0  0.134929  0  1.040786  0  0  0.136775  0  1.04054  0  -0.002776  0  0.087799  0.133506  0  1.041092  0
H  H9  1  0.40964928  0.77530428  0.35056808  1  0  0.114942  0  0.980541  0  0  0.135441  0  1.040941  0  0  0.137297  0  1.040688  0  0.035571  0  0.087995  0.133998  0  1.041264  0
H  H10  1  0.06066794  0.72555313  0.65089544  1  0  0.114582  0  0.980016  0  0  0.134962  0  1.040669  0  0  0.136807  0  1.040422  0  -0.002742  0  0.087799  0.133537  0  1.040977  0
H  H11  1  0.59032543  0.22469997  0.64943237  1  0  0.114839  0  0.980499  0  0  0.135363  0  1.040898  0  0  0.137226  0  1.040639  0  0.035638  0  0.087946  0.133919  0  1.041224  0
H  H12  1  0.68539478  0.24685973  0.26220247  1  0  0.137693  0  0.954897  0  0  0.157121  0  1.015808  0  0  0.159058  0  1.016408  0  0.071552  0  0.102084  0.155753  0  1.015394  0
H  H13  1  0.57741660  0.74779982  0.26442142  1  0  0.137771  0  0.955233  0  0  0.156726  0  1.016814  0  0  0.158609  0  1.017504  0  0.090234  0  0.101645  0.155381  0  1.016352  0
H  H14  1  0.31461433  0.75313734  0.73779717  1  0  0.137713  0  0.954893  0  0  0.157144  0  1.015798  0  0  0.159081  0  1.016398  0  0.07149  0  0.102092  0.155776  0  1.015384  0
H  H15  1  0.42256599  0.25220012  0.73558164  1  0  0.1378  0  0.955279  0  0  0.156797  0  1.016788  0  0  0.158687  0  1.017473  0  0.090525  0  0.101688  0.15545  0  1.01633  0
H  H16  1  0.26506902  0.21788601  0.39043034  1  0  0.07252  0  1.003792  0  0  0.086143  0  1.067152  0  0  0.087773  0  1.066826  0  0.056042  0  0.092874  0.084995  0  1.067296  0
H  H17  1  0.12475078  0.71860121  0.39102318  1  0  0.072111  0  1.00479  0  0  0.085613  0  1.068438  0  0  0.087275  0  1.068082  0  0.047304  0  0.092883  0.084432  0  1.068622  0
H  H18  1  0.73494843  0.78211250  0.60957519  1  0  0.072481  0  1.003767  0  0  0.086112  0  1.067137  0  0  0.087741  0  1.066811  0  0.056089  0  0.092846  0.084963  0  1.067282  0
H  H19  1  0.87523975  0.28139514  0.60897495  1  0  0.072121  0  1.004882  0  0  0.085621  0  1.068514  0  0  0.087282  0  1.068162  0  0.047198  0  0.092894  0.084444  0  1.068694  0
H  H20  1  0.67807021  0.95352860  0.21826686  1  0  0.109994  0  0.950716  0  0  0.123132  0  1.007392  0  0  0.127167  0  1.005423  0  0.06148  0  0.104147  0.120238  0  1.009012  0
H  H21  1  0.54112081  0.45345211  0.21736608  1  0  0.110059  0  0.951156  0  0  0.123219  0  1.008044  0  0  0.127305  0  1.006017  0  0.046168  0  0.104384  0.120286  0  1.009703  0
H  H22  1  0.32193936  0.04647421  0.78173547  1  0  0.10992  0  0.950707  0  0  0.12308  0  1.00736  0  0  0.127114  0  1.005393  0  0.061372  0  0.10415  0.120195  0  1.00897  0
H  H23  1  0.45886150  0.54654424  0.78262757  1  0  0.11005  0  0.95121  0  0  0.123241  0  1.008046  0  0  0.127341  0  1.006001  0  0.046178  0  0.104409  0.120307  0  1.009708  0
H  H24  1  0.52263799  0.18917524  0.50755993  1  0  0.096025  0  0.965918  0  0  0.117921  0  1.02951  0  0  0.119155  0  1.02903  0  0.030184  0  0.087039  0.116968  0  1.029927  0
H  H25  1  0.98449050  0.68957145  0.50764057  1  0  0.096108  0  0.965676  0  0  0.118283  0  1.028798  0  0  0.119526  0  1.028326  0  0.032259  0  0.087233  0.117295  0  1.029233  0
H  H26  1  0.47737364  0.81082758  0.49243955  1  0  0.096013  0  0.966023  0  0  0.117934  0  1.029578  0  0  0.119166  0  1.0291  0  0.030188  0  0.08704  0.116982  0  1.029993  0
H  H27  1  0.01549798  0.31042491  0.49235394  1  0  0.096107  0  0.965641  0  0  0.118228  0  1.028812  0  0  0.119478  0  1.028332  0  0.032408  0  0.087213  0.117241  0  1.029248  0
H  H28  1  0.86129131  0.15073567  0.49581640  1  0  0.096588  0  0.955442  0  0  0.119885  0  1.016366  0  0  0.120556  0  1.016692  0  0.025515  0  0.087381  0.119312  0  1.016215  0
H  H29  1  0.63353837  0.65101333  0.49456494  1  0  0.096522  0  0.955349  0  0  0.119415  0  1.016757  0  0  0.12008  0  1.017109  0  0.029058  0  0.087323  0.118858  0  1.016572  0
H  H30  1  0.13872649  0.84926715  0.50418688  1  0  0.096681  0  0.955362  0  0  0.119925  0  1.016365  0  0  0.120592  0  1.016695  0  0.025522  0  0.087424  0.119364  0  1.016201  0
H  H31  1  0.36645240  0.34898590  0.50543306  1  0  0.096506  0  0.955376  0  0  0.11939  0  1.016783  0  0  0.120053  0  1.017138  0  0.02911  0  0.087298  0.118834  0  1.016599  0
H  H32  1  0.61301262  0.06838826  0.50901412  1  0  0.095882  0  0.973904  0  0  0.117784  0  1.037665  0  0  0.118532  0  1.038149  0  0.02901  0  0.087358  0.11719  0  1.037364  0
H  H33  1  0.89559127  0.56875286  0.50873139  1  0  0.09483  0  0.972558  0  0  0.116826  0  1.036329  0  0  0.117533  0  1.036876  0  0.023885  0  0.086867  0.11623  0  1.036021  0
H  H34  1  0.38700301  0.93161312  0.49098825  1  0  0.095924  0  0.973899  0  0  0.117847  0  1.03761  0  0  0.118596  0  1.038094  0  0.028914  0  0.087377  0.117248  0  1.037318  0
H  H35  1  0.10439098  0.43124278  0.49126214  1  0  0.094914  0  0.972504  0  0  0.116841  0  1.036325  0  0  0.117527  0  1.036895  0  0.023915  0  0.086866  0.116252  0  1.036012  0
H  H36  1  0.93732253  0.90878806  0.33179893  1  0  0.110755  0  0.946122  0  0  0.135737  0  0.999567  0  0  0.136851  0  0.999887  0  0.043766  0  0.09302  0.134927  0  0.999343  0
H  H37  1  0.39435427  0.40896159  0.33027245  1  0  0.110314  0  0.946767  0  0  0.135754  0  0.999679  0  0  0.136899  0  0.99996  0  0.031456  0  0.093204  0.134914  0  0.99949  0
H  H38  1  0.06269715  0.09121261  0.66820173  1  0  0.110815  0  0.946148  0  0  0.135764  0  0.999612  0  0  0.136878  0  0.999931  0  0.043561  0  0.093044  0.134953  0  0.99939  0
H  H39  1  0.60562398  0.59103548  0.66972525  1  0  0.110315  0  0.946753  0  0  0.13572  0  0.99971  0  0  0.136869  0  0.999995  0  0.032111  0  0.093174  0.134878  0  0.999522  0
H  H40  1  0.82820816  0.94467921  0.42811696  1  0  0.097594  0  0.961746  0  0  0.119969  0  1.024434  0  0  0.121042  0  1.024665  0  0.003392  0  0.08855  0.119168  0  1.024299  0
H  H41  1  0.60072202  0.44470475  0.42707514  1  0  0.098843  0  0.959621  0  0  0.120874  0  1.022625  0  0  0.121907  0  1.022907  0  0.019628  0  0.088724  0.120099  0  1.022456  0
H  H42  1  0.17181358  0.05532145  0.57188556  1  0  0.097554  0  0.961857  0  0  0.119899  0  1.024572  0  0  0.120975  0  1.024803  0  0.003533  0  0.088514  0.1191  0  1.024435  0
H  H43  1  0.39926469  0.55529520  0.57292163  1  0  0.098837  0  0.959588  0  0  0.120828  0  1.022615  0  0  0.12186  0  1.022898  0  0.019526  0  0.088709  0.120054  0  1.022447  0
H  H44  1  0.08304277  0.01354603  0.39924775  1  0  0.104975  0  0.9696  0  0  0.124738  0  1.035862  0  0  0.125568  0  1.037315  0  0.051746  0  0.089086  0.124186  0  1.034778  0
H  H45  1  0.31646994  0.51371951  0.39754866  1  0  0.105509  0  0.969475  0  0  0.12524  0  1.035752  0  0  0.126082  0  1.037256  0  0.046296  0  0.089157  0.124666  0  1.034644  0
H  H46  1  0.91698515  0.98645464  0.60075564  1  0  0.104858  0  0.9695  0  0  0.124643  0  1.035773  0  0  0.125471  0  1.037228  0  0.052152  0  0.089082  0.124092  0  1.034689  0
H  H47  1  0.68351677  0.48628043  0.60244810  1  0  0.105461  0  0.96955  0  0  0.125204  0  1.035813  0  0  0.126053  0  1.037313  0  0.04634  0  0.089134  0.124628  0  1.034708  0
H  H48  1  0.06235128  0.97917654  0.89522226  1  0  0.394283  0  0.92258  0  0  0.362052  0  0.990958  0  0  0.372031  0  0.976269  0  0.61684  0  0.282849  0.355052  0  1.001245  0
H  H49  1  0.83050040  0.47931128  0.89490695  1  0  0.393842  0  0.923286  0  0  0.361899  0  0.991328  0  0  0.371854  0  0.976663  0  0.617838  0  0.282657  0.354901  0  1.001612  0
H  H50  1  0.93765806  0.02082341  0.10477961  1  0  0.394223  0  0.922684  0  0  0.361979  0  0.991079  0  0  0.37196  0  0.976389  0  0.616822  0  0.282837  0.354978  0  1.001366  0
H  H51  1  0.16949019  0.52068579  0.10509365  1  0  0.393852  0  0.923248  0  0  0.361912  0  0.991274  0  0  0.371869  0  0.976613  0  0.61776  0  0.282679  0.354917  0  1.001554  0
H  H52  1  0.38971662  0.97852345  0.91254958  1  0  0.419415  0  0.883138  0  0  0.391323  0  0.942716  0  0  0.400995  0  0.928593  0  0.63769  0  0.294265  0.384542  0  0.952603  0
H  H53  1  0.52147923  0.47827453  0.91239370  1  0  0.419136  0  0.884333  0  0  0.390681  0  0.944521  0  0  0.400387  0  0.930355  0  0.646978  0  0.294009  0.383876  0  0.954421  0
H  H54  1  0.61029689  0.02147722  0.08745200  1  0  0.419324  0  0.883201  0  0  0.391241  0  0.942767  0  0  0.400911  0  0.928648  0  0.63773  0  0.294243  0.384461  0  0.952654  0
H  H55  1  0.47851142  0.52172326  0.08760466  1  0  0.419201  0  0.884242  0  0  0.390734  0  0.944453  0  0  0.40044  0  0.930287  0  0.647015  0  0.29403  0.383936  0  0.954351  0
H  H56  1  0.52331867  0.29125111  0.03693924  1  0  0.423825  0  0.882152  0  0  0.396915  0  0.939705  0  0  0.407733  0  0.923569  0  0.630672  0  0.286849  0.389259  0  0.951131  0
H  H57  1  0.51506235  0.79108691  0.03729212  1  0  0.425299  0  0.879826  0  0  0.398566  0  0.937144  0  0  0.40936  0  0.921036  0  0.641607  0  0.287591  0.390926  0  0.948551  0
H  H58  1  0.47668861  0.70874884  0.96306195  1  0  0.42388  0  0.882075  0  0  0.396967  0  0.939628  0  0  0.407783  0  0.923494  0  0.630593  0  0.286879  0.38931  0  0.951056  0
H  H59  1  0.48494100  0.20891519  0.96270924  1  0  0.425314  0  0.879796  0  0  0.398567  0  0.937138  0  0  0.409362  0  0.921026  0  0.641544  0  0.287593  0.390929  0  0.948543  0
H  H60  1  0.70955664  0.08116122  0.89315099  1  0  0.407996  0  0.908027  0  0  0.374269  0  0.976953  0  0  0.385173  0  0.961104  0  0.63638  0  0.287302  0.366602  0  0.988074  0
H  H61  1  0.18204578  0.58075058  0.89345448  1  0  0.408076  0  0.90807  0  0  0.374674  0  0.976565  0  0  0.385597  0  0.960711  0  0.633239  0  0.287284  0.366984  0  0.987707  0
H  H62  1  0.29045258  0.91883729  0.10684947  1  0  0.408041  0  0.907955  0  0  0.374314  0  0.976891  0  0  0.385219  0  0.961039  0  0.636391  0  0.287321  0.366647  0  0.988013  0
H  H63  1  0.81795127  0.41925008  0.10654520  1  0  0.408127  0  0.908001  0  0  0.374687  0  0.976548  0  0  0.385608  0  0.960695  0  0.633193  0  0.287275  0.366998  0  0.987688  0
H  H64  1  0.79049426  0.18823907  0.88106512  1  0  0.40708  0  0.901282  0  0  0.376425  0  0.964908  0  0  0.387155  0  0.949123  0  0.628559  0  0.289783  0.368832  0  0.976059  0
H  H65  1  0.08882901  0.68798722  0.88155697  1  0  0.408922  0  0.899778  0  0  0.377545  0  0.964363  0  0  0.388308  0  0.948538  0  0.625821  0  0.2901  0.369956  0  0.975504  0
H  H66  1  0.20950473  0.81176016  0.11893442  1  0  0.407012  0  0.901377  0  0  0.376329  0  0.965012  0  0  0.387067  0  0.949233  0  0.628562  0  0.289744  0.368736  0  0.976162  0
H  H67  1  0.91117845  0.31201488  0.11844339  1  0  0.408958  0  0.899718  0  0  0.377585  0  0.964286  0  0  0.388348  0  0.948462  0  0.62582  0  0.290113  0.369997  0  0.975426  0
C  C68  1  0.89814871  0.27404160  0.28403311  1  0  -0.421843  0  3.672304  0  0  -0.502497  0  3.903797  0  0  -0.508614  0  3.907867  0  -0.059824  0  -0.24928  -0.498087  0  3.900926  0
C  C69  1  0.38575335  0.77471011  0.28549190  1  0  -0.422861  0  3.674443  0  0  -0.503071  0  3.906269  0  0  -0.509251  0  3.910306  0  -0.125622  0  -0.249935  -0.49861  0  3.903425  0
C  C70  1  0.10185857  0.72595834  0.71596867  1  0  -0.421896  0  3.672199  0  0  -0.502531  0  3.9037  0  0  -0.508649  0  3.907768  0  -0.059786  0  -0.249281  -0.49812  0  3.90083  0
C  C71  1  0.61422324  0.22529199  0.71450888  1  0  -0.422856  0  3.674339  0  0  -0.50306  0  3.906143  0  0  -0.509256  0  3.910165  0  -0.126073  0  -0.249942  -0.4986  0  3.903303  0
C  C72  1  0.07785823  0.21053822  0.23294593  1  0  0.506897  0  3.681469  0  0  0.495264  0  3.945698  0  0  0.52078  0  3.945922  0  0.883821  0  0.156114  0.477997  0  3.945207  0
C  C73  1  0.15557657  0.71081947  0.23373975  1  0  0.507682  0  3.679473  0  0  0.495408  0  3.944162  0  0  0.521051  0  3.944154  0  0.890028  0  0.156086  0.478044  0  3.943831  0
C  C74  1  0.92215094  0.78945957  0.76705618  1  0  0.506903  0  3.681646  0  0  0.495264  0  3.945861  0  0  0.520783  0  3.946083  0  0.883963  0  0.156137  0.477997  0  3.94537  0
C  C75  1  0.84441448  0.28918335  0.76626119  1  0  0.507846  0  3.679521  0  0  0.495515  0  3.944395  0  0  0.521159  0  3.944387  0  0.889669  0  0.156148  0.478152  0  3.944065  0
C  C76  1  0.26511732  0.14355672  0.26712466  1  0  -0.203082  0  3.751982  0  0  -0.189553  0  4.000016  0  0  -0.205974  0  4.02597  0  -0.056305  0  -0.046582  -0.178846  0  3.982382  0
C  C77  1  0.00208825  0.64401328  0.26752448  1  0  -0.202877  0  3.750105  0  0  -0.188893  0  3.997471  0  0  -0.205318  0  4.023289  0  -0.052681  0  -0.047247  -0.178154  0  3.979893  0
C  C78  1  0.73489625  0.85644466  0.73288115  1  0  -0.203088  0  3.751708  0  0  -0.189552  0  3.999766  0  0  -0.205976  0  4.025722  0  -0.057454  0  -0.046602  -0.178847  0  3.982135  0
C  C79  1  0.99789047  0.35598954  0.73247062  1  0  -0.202763  0  3.749903  0  0  -0.188898  0  3.997441  0  0  -0.205323  0  4.02326  0  -0.052277  0  -0.047171  -0.178159  0  3.979865  0
C  C80  1  0.35258162  0.15907135  0.35196303  1  0  -0.120608  0  3.794407  0  0  -0.149004  0  4.040877  0  0  -0.146063  0  4.064378  0  -0.134562  0  -0.094108  -0.150429  0  4.024589  0
C  C81  1  0.99915568  0.65960120  0.35223061  1  0  -0.122099  0  3.794985  0  0  -0.150828  0  4.04121  0  0  -0.147993  0  4.064662  0  -0.121556  0  -0.094476  -0.15222  0  4.024987  0
C  C82  1  0.64743000  0.84093146  0.64804234  1  0  -0.120643  0  3.794077  0  0  -0.149072  0  4.040547  0  0  -0.146131  0  4.064049  0  -0.134489  0  -0.094071  -0.150495  0  4.02426  0
C  C83  1  0.00082474  0.34039731  0.64776330  1  0  -0.122266  0  3.795017  0  0  -0.150981  0  4.041367  0  0  -0.14815  0  4.064822  0  -0.121811  0  -0.094584  -0.152365  0  4.025121  0
C  C84  1  0.55287548  0.10633927  0.38928564  1  0  0.023258  0  3.781549  0  0  0.046479  0  4.019716  0  0  0.039401  0  4.047982  0  -0.014032  0  -0.040108  0.050681  0  4.000974  0
C  C85  1  0.83649221  0.60671895  0.38902697  1  0  0.023105  0  3.783724  0  0  0.04754  0  4.020512  0  0  0.040692  0  4.048409  0  0.029009  0  -0.039663  0.051717  0  4.001767  0
C  C86  1  0.44714038  0.89366499  0.61071601  1  0  0.023355  0  3.781415  0  0  0.04663  0  4.019498  0  0  0.039566  0  4.047734  0  -0.013952  0  -0.040125  0.05083  0  4.000759  0
C  C87  1  0.16348198  0.39327884  0.61096891  1  0  0.023331  0  3.783405  0  0  0.04773  0  4.020189  0  0  0.040896  0  4.048058  0  0.029114  0  -0.039645  0.051908  0  4.001451  0
C  C88  1  0.67311716  0.03056873  0.33965004  1  0  0.138462  0  3.747758  0  0  0.157204  0  3.984654  0  0  0.162381  0  4.008982  0  0.018619  0  -0.004771  0.154068  0  3.967743  0
C  C89  1  0.66691717  0.53077526  0.33892844  1  0  0.137401  0  3.748485  0  0  0.155462  0  3.985915  0  0  0.1606  0  4.010338  0  -0.111946  0  -0.00552  0.15234  0  3.968954  0
C  C90  1  0.32690064  0.96943409  0.66035148  1  0  0.138329  0  3.747704  0  0  0.157067  0  3.984595  0  0  0.16224  0  4.008927  0  0.018974  0  -0.004782  0.153931  0  3.967685  0
C  C91  1  0.33306736  0.46922324  0.66106623  1  0  0.137226  0  3.748599  0  0  0.155351  0  3.985963  0  0  0.160483  0  4.010402  0  -0.111704  0  -0.005472  0.152223  0  3.969011  0
C  C92  1  0.58721226  0.01212202  0.25648150  1  0  -0.286376  0  3.720505  0  0  -0.310063  0  3.975198  0  0  -0.321369  0  3.99535  0  -0.132222  0  -0.118289  -0.302655  0  3.961498  0
C  C93  1  0.66995073  0.51222941  0.25590537  1  0  -0.286315  0  3.719355  0  0  -0.310278  0  3.974433  0  0  -0.321648  0  3.994615  0  -0.039814  0  -0.118481  -0.302836  0  3.960754  0
C  C94  1  0.41280125  0.98787864  0.74352243  1  0  -0.286181  0  3.720141  0  0  -0.309884  0  3.974877  0  0  -0.321194  0  3.995033  0  -0.132436  0  -0.118271  -0.302486  0  3.96117  0
C  C95  1  0.33003163  0.48776767  0.74408957  1  0  -0.286246  0  3.719511  0  0  -0.310247  0  3.974486  0  0  -0.321626  0  3.994664  0  -0.040138  0  -0.118499  -0.302806  0  3.96081  0
C  C96  1  0.38326110  0.06547271  0.21667846  1  0  0.383205  0  3.856012  0  0  0.35869  0  4.125131  0  0  0.378255  0  4.137547  0  0.735316  0  0.096232  0.345734  0  4.116158  0
C  C97  1  0.83429817  0.56563542  0.21669735  1  0  0.382149  0  3.857741  0  0  0.358001  0  4.125822  0  0  0.377557  0  4.138304  0  0.711682  0  0.096262  0.345045  0  4.116822  0
C  C98  1  0.61675047  0.93452939  0.78332739  1  0  0.383264  0  3.855776  0  0  0.358739  0  4.124928  0  0  0.378305  0  4.137342  0  0.736478  0  0.096273  0.345788  0  4.115953  0
C  C99  1  0.16568437  0.43436381  0.78329794  1  0  0.381964  0  3.857875  0  0  0.357927  0  4.125906  0  0  0.37748  0  4.138392  0  0.711992  0  0.096157  0.344972  0  4.116906  0
C  C100  1  0.64132901  0.12977863  0.47961082  1  0  -0.32075  0  3.759688  0  0  -0.403294  0  4.001628  0  0  -0.404154  0  4.012913  0  -0.077564  0  -0.241192  -0.402318  0  3.993966  0
C  C101  1  0.83786607  0.63014322  0.47918660  1  0  -0.318419  0  3.760028  0  0  -0.401022  0  4.001104  0  0  -0.401892  0  4.012391  0  -0.075336  0  -0.240567  -0.400025  0  3.993493  0
C  C102  1  0.35869507  0.87022563  0.52039179  1  0  -0.320895  0  3.75982  0  0  -0.403456  0  4.001745  0  0  -0.404318  0  4.013037  0  -0.07742  0  -0.241239  -0.402486  0  3.994077  0
C  C103  1  0.16211629  0.36985385  0.52080893  1  0  -0.318528  0  3.759791  0  0  -0.401011  0  4.000869  0  0  -0.401873  0  4.012165  0  -0.075608  0  -0.240539  -0.400028  0  3.993255  0
C  C104  1  0.89074709  0.97090911  0.37642367  1  0  -0.328246  0  3.720991  0  0  -0.406643  0  3.954634  0  0  -0.409501  0  3.964332  0  -0.046094  0  -0.239976  -0.404429  0  3.947679  0
C  C105  1  0.48604573  0.47104744  0.37512626  1  0  -0.328716  0  3.720479  0  0  -0.407157  0  3.954058  0  0  -0.410072  0  3.963857  0  -0.02356  0  -0.239902  -0.404902  0  3.947052  0
C  C106  1  0.10927694  0.02909443  0.62358059  1  0  -0.328113  0  3.721167  0  0  -0.406471  0  3.954817  0  0  -0.409331  0  3.964515  0  -0.046551  0  -0.239943  -0.40426  0  3.947862  0
C  C107  1  0.51394515  0.52895323  0.62486785  1  0  -0.328591  0  3.720492  0  0  -0.406971  0  3.953977  0  0  -0.409904  0  3.963786  0  -0.024152  0  -0.239832  -0.404712  0  3.94697  0
O  O108  1  0.05746799  0.21792480  0.15984020  1  0  -0.561914  0  1.991756  0  0  -0.510039  0  2.205029  0  0  -0.528738  0  2.195111  0  -1.15155  0  -0.32365  -0.497391  0  2.211786  0
O  O109  1  0.10392057  0.71773115  0.16045929  1  0  -0.560937  0  1.987855  0  0  -0.509042  0  2.201115  0  0  -0.527761  0  2.19117  0  -1.147824  0  -0.322888  -0.496377  0  2.207904  0
O  O110  1  0.94254123  0.78207371  0.84016203  1  0  -0.56194  0  1.991863  0  0  -0.510048  0  2.205139  0  0  -0.528747  0  2.195219  0  -1.151607  0  -0.323686  -0.497398  0  2.211898  0
O  O111  1  0.89607020  0.28226808  0.83953576  1  0  -0.560943  0  1.988093  0  0  -0.509044  0  2.201419  0  0  -0.52777  0  2.191463  0  -1.14775  0  -0.322855  -0.496384  0  2.208214  0
O  O112  1  0.30800096  0.04040243  0.13808531  1  0  -0.685823  0  2.074779  0  0  -0.61266  0  2.287461  0  0  -0.638442  0  2.280944  0  -1.19323  0  -0.361919  -0.594492  0  2.291346  0
O  O113  1  0.83181621  0.54041066  0.13828351  1  0  -0.684403  0  2.075865  0  0  -0.611022  0  2.288047  0  0  -0.636782  0  2.28152  0  -1.191483  0  -0.360845  -0.592879  0  2.29193  0
O  O114  1  0.69200433  0.95959824  0.86192003  1  0  -0.685884  0  2.074866  0  0  -0.612737  0  2.287575  0  0  -0.638517  0  2.281051  0  -1.193447  0  -0.361951  -0.594571  0  2.291461  0
O  O115  1  0.16817255  0.45958928  0.86171216  1  0  -0.684327  0  2.075894  0  0  -0.611017  0  2.288065  0  0  -0.636785  0  2.28154  0  -1.191377  0  -0.360843  -0.592874  0  2.291941  0
O  O116  1  0.22296913  0.99054560  0.93871807  1  0  -0.887752  0  1.780344  0  0  -0.843452  0  1.947955  0  0  -0.86002  0  1.917193  0  -1.291847  0  -0.675722  -0.83176  0  1.969414  0
O  O117  1  0.71544549  0.49045834  0.93849133  1  0  -0.887086  0  1.78335  0  0  -0.843079  0  1.950984  0  0  -0.859583  0  1.920126  0  -1.301683  0  -0.676113  -0.831378  0  1.972491  0
O  O118  1  0.77704227  0.00945434  0.06128330  1  0  -0.8876  0  1.780411  0  0  -0.843314  0  1.948057  0  0  -0.85988  0  1.917297  0  -1.292029  0  -0.675679  -0.831621  0  1.969516  0
O  O119  1  0.28454316  0.50954017  0.06150883  1  0  -0.88716  0  1.783298  0  0  -0.843151  0  1.950965  0  0  -0.859664  0  1.920091  0  -1.30164  0  -0.676172  -0.831463  0  1.972446  0
O  O120  1  0.37429119  0.24997286  0.99990323  1  0  -0.958758  0  1.739361  0  0  -0.919495  0  1.907858  0  0  -0.935139  0  1.871695  0  -1.32521  0  -0.732155  -0.90841  0  1.933198  0
O  O121  1  0.62571415  0.75002852  0.00009810  1  0  -0.958788  0  1.73931  0  0  -0.919529  0  1.90781  0  0  -0.935164  0  1.871644  0  -1.325211  0  -0.732185  -0.908438  0  1.933148  0
O  O122  1  0.74534887  0.14968598  0.92068624  1  0  -0.876575  0  1.850805  0  0  -0.819405  0  2.016456  0  0  -0.838559  0  1.982937  0  -1.293598  0  -0.621205  -0.805826  0  2.039867  0
O  O123  1  0.17400593  0.64920279  0.92118491  1  0  -0.878801  0  1.849901  0  0  -0.821181  0  2.016284  0  0  -0.840435  0  1.982666  0  -1.288509  0  -0.622154  -0.807558  0  2.03972  0
O  O124  1  0.25466447  0.85031252  0.07931440  1  0  -0.87655  0  1.850817  0  0  -0.81935  0  2.016548  0  0  -0.838522  0  1.982982  0  -1.293617  0  -0.621198  -0.805771  0  2.039961  0
O  O125  1  0.82600147  0.35079860  0.07881593  1  0  -0.878856  0  1.849805  0  0  -0.821207  0  2.016267  0  0  -0.840465  0  1.982651  0  -1.288475  0  -0.622161  -0.807587  0  2.039706  0
