# generated using pymatgen
data_CaH8C6(NO3)2
_symmetry_space_group_name_H-M   'P 1'
_cell_length_a   5.15676046
_cell_length_b   7.05959697
_cell_length_c   12.76273996
_cell_angle_alpha   90.00118289
_cell_angle_beta   90.00065326
_cell_angle_gamma   106.98049062
_symmetry_Int_Tables_number   1
_chemical_formula_structural   CaH8C6(NO3)2
_chemical_formula_sum   'Ca2 H16 C12 N4 O12'
_cell_volume   444.36749730
_cell_formula_units_Z   2
loop_
 _symmetry_equiv_pos_site_id
 _symmetry_equiv_pos_as_xyz
  1  'x, y, z'
loop_
 _atom_site_type_symbol
 _atom_site_label
 _atom_site_symmetry_multiplicity
 _atom_site_fract_x
 _atom_site_fract_y
 _atom_site_fract_z
 _atom_site_occupancy
 _atom_site_hle17_bader_spin_density
 _atom_site_hle17_ddec_charge
 _atom_site_hle17_ddec_spin_density
 _atom_site_hle17_ddec_sum_bond_order
 _atom_site_hle17_magmom
 _atom_site_hse06_10hf_bader_spin_density
 _atom_site_hse06_10hf_ddec_charge
 _atom_site_hse06_10hf_ddec_spin_density
 _atom_site_hse06_10hf_ddec_sum_bond_order
 _atom_site_hse06_10hf_magmom
 _atom_site_hse06_bader_spin_density
 _atom_site_hse06_ddec_charge
 _atom_site_hse06_ddec_spin_density
 _atom_site_hse06_ddec_sum_bond_order
 _atom_site_hse06_magmom
 _atom_site_pbe_bader_spin_density
 _atom_site_pbe_cm5_charge
 _atom_site_pbe_ddec_charge
 _atom_site_pbe_ddec_spin_density
 _atom_site_pbe_ddec_sum_bond_order
 _atom_site_pbe_magmom
Ca  Ca0  1  0.99999591  0.49999873  0.99999975  1  0  1.534552  0  1.153632  0  0  1.390179  0  1.525136  0  0  1.434429  0  1.478177  0  0  0.887696  1.356899  0  1.558707  0
Ca  Ca1  1  0.00000115  0.99999589  0.50000032  1  0  1.534531  0  1.15386  0  0  1.39017  0  1.525377  0  0  1.434451  0  1.478403  0  0  0.887621  1.356891  0  1.55894  0
H  H2  1  0.00576177  0.90884551  0.86561487  1  0  0.147428  0  0.933863  0  0  0.156121  0  0.99691  0  0  0.160577  0  0.993767  0  0  0.118825  0.152959  0  0.999238  0
H  H3  1  0.99422228  0.59117850  0.36560436  1  0  0.147346  0  0.933633  0  0  0.156042  0  0.996776  0  0  0.160505  0  0.993618  0  0  0.118811  0.152876  0  0.999111  0
H  H4  1  0.99423544  0.09116608  0.13438543  1  0  0.147457  0  0.933698  0  0  0.156154  0  0.996801  0  0  0.160611  0  0.993658  0  0  0.118838  0.152989  0  0.999137  0
H  H5  1  0.00578582  0.40883600  0.63439594  1  0  0.147406  0  0.933592  0  0  0.156099  0  0.996738  0  0  0.160569  0  0.993565  0  0  0.118851  0.15293  0  0.999084  0
H  H6  1  0.81214157  0.07445637  0.88022946  1  0  0.152446  0  0.92572  0  0  0.162653  0  0.988616  0  0  0.166412  0  0.986765  0  0  0.126922  0.160035  0  0.989972  0
H  H7  1  0.18783778  0.42555004  0.38021515  1  0  0.152464  0  0.925657  0  0  0.162652  0  0.988624  0  0  0.166406  0  0.986776  0  0  0.126923  0.160041  0  0.989968  0
H  H8  1  0.18785189  0.92555079  0.11977241  1  0  0.152451  0  0.925641  0  0  0.162661  0  0.988571  0  0  0.166418  0  0.986723  0  0  0.126944  0.160047  0  0.989924  0
H  H9  1  0.81215072  0.57444972  0.61978437  1  0  0.152471  0  0.925613  0  0  0.162697  0  0.988554  0  0  0.166453  0  0.986702  0  0  0.126922  0.160084  0  0.989903  0
H  H10  1  0.32322810  0.73945512  0.78253529  1  0  0.345094  0  0.901095  0  0  0.321369  0  0.972459  0  0  0.330081  0  0.965085  0  0  0.311568  0.315146  0  0.977825  0
H  H11  1  0.67675583  0.76054570  0.28252761  1  0  0.345232  0  0.901154  0  0  0.321529  0  0.972466  0  0  0.33024  0  0.965091  0  0  0.311661  0.315311  0  0.977823  0
H  H12  1  0.67676403  0.26055353  0.21747050  1  0  0.345111  0  0.901152  0  0  0.321404  0  0.972461  0  0  0.330115  0  0.965088  0  0  0.311617  0.315185  0  0.97781  0
H  H13  1  0.32323400  0.23945258  0.71746955  1  0  0.345225  0  0.901067  0  0  0.321493  0  0.97244  0  0  0.330204  0  0.965065  0  0  0.311629  0.315271  0  0.977806  0
H  H14  1  0.39326010  0.78201058  0.64601094  1  0  0.350063  0  0.914005  0  0  0.328168  0  0.980397  0  0  0.337635  0  0.972087  0  0  0.309752  0.321469  0  0.986322  0
H  H15  1  0.60672968  0.71798529  0.14600244  1  0  0.350014  0  0.91426  0  0  0.328101  0  0.980693  0  0  0.337571  0  0.972372  0  0  0.309657  0.321386  0  0.986641  0
H  H16  1  0.60673226  0.21798916  0.35399406  1  0  0.350177  0  0.913783  0  0  0.328234  0  0.980256  0  0  0.337706  0  0.97193  0  0  0.309753  0.321516  0  0.986206  0
H  H17  1  0.39325881  0.28201447  0.85399629  1  0  0.350039  0  0.914033  0  0  0.328106  0  0.980481  0  0  0.337578  0  0.972154  0  0  0.309631  0.321331  0  0.98653  0
C  C18  1  0.62001535  0.79067915  0.94323923  1  0  0.770246  0  3.814035  0  0  0.717483  0  4.117  0  0  0.752715  0  4.106902  0  0  0.238322  0.693428  0  4.123116  0
C  C19  1  0.37996262  0.70932479  0.44323898  1  0  0.770273  0  3.814306  0  0  0.717324  0  4.117588  0  0  0.752574  0  4.107469  0  0  0.238321  0.693269  0  4.123695  0
C  C20  1  0.37996613  0.20931769  0.05676107  1  0  0.770253  0  3.813697  0  0  0.717353  0  4.116914  0  0  0.752604  0  4.106786  0  0  0.23832  0.693296  0  4.123026  0
C  C21  1  0.62006047  0.29068370  0.55676446  1  0  0.770395  0  3.813493  0  0  0.717459  0  4.116796  0  0  0.752681  0  4.106726  0  0  0.238301  0.693398  0  4.122906  0
C  C22  1  0.79861780  0.92001337  0.86015087  1  0  -0.438569  0  3.628403  0  0  -0.474338  0  3.866401  0  0  -0.484801  0  3.867295  0  0  -0.153328  -0.467154  0  3.865693  0
C  C23  1  0.20139997  0.57999388  0.36014437  1  0  -0.438646  0  3.628071  0  0  -0.474394  0  3.866372  0  0  -0.484856  0  3.867282  0  0  -0.1534  -0.467223  0  3.865654  0
C  C24  1  0.20138280  0.07999227  0.13985178  1  0  -0.438504  0  3.628171  0  0  -0.474333  0  3.866285  0  0  -0.484804  0  3.867177  0  0  -0.153314  -0.467147  0  3.865573  0
C  C25  1  0.79860461  0.42000728  0.63985436  1  0  -0.438656  0  3.628184  0  0  -0.474532  0  3.866553  0  0  -0.484984  0  3.867467  0  0  -0.153411  -0.467354  0  3.865839  0
C  C26  1  0.71142606  0.89089736  0.74654950  1  0  0.708866  0  3.79183  0  0  0.665249  0  4.077203  0  0  0.69545  0  4.076091  0  0  0.258319  0.64474  0  4.077313  0
C  C27  1  0.28852244  0.60908564  0.24653199  1  0  0.709152  0  3.792035  0  0  0.665386  0  4.077626  0  0  0.695546  0  4.076567  0  0  0.258339  0.644898  0  4.077713  0
C  C28  1  0.28857454  0.10910828  0.25345237  1  0  0.708818  0  3.791825  0  0  0.665283  0  4.077119  0  0  0.695484  0  4.076009  0  0  0.25827  0.644775  0  4.077228  0
C  C29  1  0.71146944  0.39090817  0.75346753  1  0  0.709082  0  3.792447  0  0  0.665414  0  4.077902  0  0  0.695581  0  4.076837  0  0  0.258334  0.64491  0  4.078007  0
N  N30  1  0.45777398  0.79081456  0.72302517  1  0  -0.677356  0  3.086847  0  0  -0.639046  0  3.324786  0  0  -0.662271  0  3.318347  0  0  -0.55141  -0.623181  0  3.329203  0
N  N31  1  0.54224153  0.70920112  0.22302254  1  0  -0.677841  0  3.086363  0  0  -0.639486  0  3.324346  0  0  -0.662719  0  3.317929  0  0  -0.551641  -0.623607  0  3.328778  0
N  N32  1  0.54220799  0.20918821  0.27697749  1  0  -0.67741  0  3.086878  0  0  -0.639103  0  3.324803  0  0  -0.66233  0  3.318359  0  0  -0.551447  -0.623223  0  3.329245  0
N  N33  1  0.45775967  0.29080600  0.77696915  1  0  -0.677821  0  3.086355  0  0  -0.639448  0  3.324315  0  0  -0.662676  0  3.317891  0  0  -0.551545  -0.623518  0  3.32885  0
O  O34  1  0.73885789  0.71977212  0.01436645  1  0  -0.726015  0  1.980393  0  0  -0.660881  0  2.227621  0  0  -0.688325  0  2.216023  0  0  -0.366912  -0.641313  0  2.23498  0
O  O35  1  0.26116594  0.78023521  0.51435472  1  0  -0.725832  0  1.981191  0  0  -0.660661  0  2.228541  0  0  -0.688117  0  2.21694  0  0  -0.366862  -0.641102  0  2.235892  0
O  O36  1  0.26115564  0.28023196  0.98563855  1  0  -0.725959  0  1.980803  0  0  -0.660782  0  2.228124  0  0  -0.68824  0  2.216524  0  0  -0.366895  -0.64118  0  2.235441  0
O  O37  1  0.73887094  0.21976430  0.48563618  1  0  -0.726011  0  1.980575  0  0  -0.660733  0  2.227833  0  0  -0.688179  0  2.216239  0  0  -0.366875  -0.641168  0  2.235183  0
O  O38  1  0.36572906  0.76310768  0.93962483  1  0  -0.706999  0  1.945384  0  0  -0.644057  0  2.189606  0  0  -0.670687  0  2.177569  0  0  -0.364782  -0.625315  0  2.197544  0
O  O39  1  0.63429046  0.73687954  0.43961669  1  0  -0.707207  0  1.944843  0  0  -0.64415  0  2.18912  0  0  -0.670787  0  2.177059  0  0  -0.364883  -0.62541  0  2.197051  0
O  O40  1  0.63429136  0.23688004  0.06037390  1  0  -0.707136  0  1.944644  0  0  -0.644123  0  2.188914  0  0  -0.670748  0  2.176849  0  0  -0.364871  -0.625383  0  2.196848  0
O  O41  1  0.36571508  0.26310975  0.56037500  1  0  -0.707228  0  1.94445  0  0  -0.644201  0  2.188763  0  0  -0.67084  0  2.176726  0  0  -0.36488  -0.625458  0  2.196699  0
O  O42  1  0.88766603  0.96484253  0.67739121  1  0  -0.692446  0  1.918638  0  0  -0.627749  0  2.157747  0  0  -0.653952  0  2.148695  0  0  -0.371013  -0.609197  0  2.163476  0
O  O43  1  0.11234904  0.53515617  0.17739553  1  0  -0.692268  0  1.919847  0  0  -0.627495  0  2.158998  0  0  -0.653651  0  2.149988  0  0  -0.370857  -0.60896  0  2.164715  0
O  O44  1  0.11232403  0.03514684  0.32260988  1  0  -0.692465  0  1.918406  0  0  -0.627802  0  2.157477  0  0  -0.653994  0  2.148411  0  0  -0.370989  -0.609262  0  2.163233  0
O  O45  1  0.88764114  0.46482874  0.82260321  1  0  -0.692223  0  1.919971  0  0  -0.627468  0  2.159088  0  0  -0.653637  0  2.150068  0  0  -0.370833  -0.608928  0  2.164814  0
