# generated using pymatgen
data_Cd2H10C8O13
_symmetry_space_group_name_H-M   'P 1'
_cell_length_a   7.45023456
_cell_length_b   9.03365281
_cell_length_c   11.31145773
_cell_angle_alpha   90.00024124
_cell_angle_beta   89.99988416
_cell_angle_gamma   95.72044600
_symmetry_Int_Tables_number   1
_chemical_formula_structural   Cd2H10C8O13
_chemical_formula_sum   'Cd4 H20 C16 O26'
_cell_volume   757.50195186
_cell_formula_units_Z   2
loop_
 _symmetry_equiv_pos_site_id
 _symmetry_equiv_pos_as_xyz
  1  'x, y, z'
loop_
 _atom_site_type_symbol
 _atom_site_label
 _atom_site_symmetry_multiplicity
 _atom_site_fract_x
 _atom_site_fract_y
 _atom_site_fract_z
 _atom_site_occupancy
 _atom_site_hle17_bader_spin_density
 _atom_site_hle17_ddec_charge
 _atom_site_hle17_ddec_spin_density
 _atom_site_hle17_ddec_sum_bond_order
 _atom_site_hle17_magmom
 _atom_site_hse06_10hf_bader_spin_density
 _atom_site_hse06_10hf_ddec_charge
 _atom_site_hse06_10hf_ddec_spin_density
 _atom_site_hse06_10hf_ddec_sum_bond_order
 _atom_site_hse06_10hf_magmom
 _atom_site_hse06_bader_spin_density
 _atom_site_hse06_ddec_charge
 _atom_site_hse06_ddec_spin_density
 _atom_site_hse06_ddec_sum_bond_order
 _atom_site_hse06_magmom
 _atom_site_pbe_bader_spin_density
 _atom_site_pbe_cm5_charge
 _atom_site_pbe_ddec_charge
 _atom_site_pbe_ddec_spin_density
 _atom_site_pbe_ddec_sum_bond_order
 _atom_site_pbe_magmom
Cd  Cd0  1  0.72045999  0.75190114  0.33299597  1  0  1.253403  0  1.566263  0  0  1.069268  0  2.010002  0  0  1.128843  0  1.948882  0  0  0.787771  1.026589  0  2.052097  0
Cd  Cd1  1  0.27954089  0.24809216  0.83299458  1  0  1.253433  0  1.566224  0  0  1.069313  0  2.009955  0  0  1.128889  0  1.948836  0  0  0.787792  1.026636  0  2.052045  0
Cd  Cd2  1  0.82748384  0.73948502  0.83093524  1  0  1.232456  0  1.560237  0  0  1.058213  0  1.996165  0  0  1.11733  0  1.9357  0  0  0.779076  1.016551  0  2.037761  0
Cd  Cd3  1  0.17251593  0.26051834  0.33094089  1  0  1.232471  0  1.560262  0  0  1.058247  0  1.996185  0  0  1.117363  0  1.935716  0  0  0.779076  1.016584  0  2.037775  0
H  H4  1  0.01155112  0.52715107  0.74057743  1  0  0.388338  0  0.900779  0  0  0.362452  0  0.970932  0  0  0.374298  0  0.958232  0  0  0.2972  0.354045  0  0.979924  0
H  H5  1  0.98844955  0.47284737  0.24058018  1  0  0.388358  0  0.900705  0  0  0.362471  0  0.970871  0  0  0.374322  0  0.958161  0  0  0.297211  0.35406  0  0.979859  0
H  H6  1  0.75726416  0.70467889  0.55996396  1  0  0.376922  0  0.871073  0  0  0.351352  0  0.945921  0  0  0.360527  0  0.935595  0  0  0.307379  0.344959  0  0.953082  0
H  H7  1  0.24273316  0.29531987  0.05996434  1  0  0.376931  0  0.871047  0  0  0.351387  0  0.945869  0  0  0.360567  0  0.935535  0  0  0.30738  0.344991  0  0.953032  0
H  H8  1  0.84343632  0.35152910  0.65648136  1  0  0.092854  0  0.945292  0  0  0.094266  0  1.016242  0  0  0.097241  0  1.013768  0  0  0.118514  0.092256  0  1.018264  0
H  H9  1  0.15656242  0.64847233  0.15648219  1  0  0.092927  0  0.94523  0  0  0.094331  0  1.016184  0  0  0.097309  0  1.013705  0  0  0.118528  0.092318  0  1.01821  0
H  H10  1  0.60349006  0.40933857  0.51073116  1  0  0.113085  0  0.903654  0  0  0.120021  0  0.96306  0  0  0.122768  0  0.961309  0  0  0.127471  0.118167  0  0.964294  0
H  H11  1  0.39650088  0.59066123  0.01072796  1  0  0.113114  0  0.90368  0  0  0.120055  0  0.963077  0  0  0.122803  0  0.961326  0  0  0.127482  0.118196  0  0.96431  0
H  H12  1  0.56623513  0.94956325  0.77120694  1  0  0.390763  0  0.871344  0  0  0.364968  0  0.94443  0  0  0.376464  0  0.931265  0  0  0.303455  0.356823  0  0.95377  0
H  H13  1  0.43376079  0.05043992  0.27120625  1  0  0.390731  0  0.871444  0  0  0.364924  0  0.944538  0  0  0.376419  0  0.931373  0  0  0.303452  0.356774  0  0.953882  0
H  H14  1  0.00821782  0.93717150  0.48983150  1  0  0.401509  0  0.83958  0  0  0.379824  0  0.902279  0  0  0.389893  0  0.891236  0  0  0.313709  0.372388  0  0.910449  0
H  H15  1  0.99177874  0.06281485  0.98982684  1  0  0.401543  0  0.839556  0  0  0.379871  0  0.90223  0  0  0.389943  0  0.891183  0  0  0.313724  0.372429  0  0.910412  0
H  H16  1  0.69994525  0.13634047  0.68724280  1  0  0.092756  0  0.941208  0  0  0.09562  0  1.01043  0  0  0.098375  0  1.008313  0  0  0.12044  0.093601  0  1.012283  0
H  H17  1  0.30005189  0.86366002  0.18724420  1  0  0.092705  0  0.941156  0  0  0.09561  0  1.010424  0  0  0.098366  0  1.008307  0  0  0.120391  0.093587  0  1.012288  0
H  H18  1  0.87115999  0.12728003  0.50847439  1  0  0.093937  0  0.966856  0  0  0.098062  0  1.035393  0  0  0.100472  0  1.034178  0  0  0.124568  0.096489  0  1.036093  0
H  H19  1  0.12884899  0.87271486  0.00847249  1  0  0.093907  0  0.966837  0  0  0.09808  0  1.035333  0  0  0.100489  0  1.034126  0  0  0.124583  0.096502  0  1.036036  0
H  H20  1  0.67170339  0.88798280  0.99919595  1  0  0.420713  0  0.896943  0  0  0.386885  0  0.964783  0  0  0.398904  0  0.947717  0  0  0.285056  0.378424  0  0.976779  0
H  H21  1  0.32830662  0.11202112  0.49919649  1  0  0.420798  0  0.896859  0  0  0.387016  0  0.964633  0  0  0.399036  0  0.947565  0  0  0.285099  0.37855  0  0.976639  0
H  H22  1  0.84869568  0.84506520  0.06851997  1  0  0.418948  0  0.880692  0  0  0.39138  0  0.941657  0  0  0.401527  0  0.927004  0  0  0.295752  0.38416  0  0.952111  0
H  H23  1  0.15131482  0.15493217  0.56852637  1  0  0.418934  0  0.880772  0  0  0.391371  0  0.941686  0  0  0.40152  0  0.927031  0  0  0.295728  0.384155  0  0.952135  0
C  C24  1  0.62621480  0.44872666  0.74221420  1  0  0.658372  0  3.851176  0  0  0.603721  0  4.154839  0  0  0.63873  0  4.14851  0  0  0.210988  0.579719  0  4.158439  0
C  C25  1  0.37378150  0.55126966  0.24221089  1  0  0.658514  0  3.851025  0  0  0.603809  0  4.154778  0  0  0.638818  0  4.148449  0  0  0.211011  0.579811  0  4.158375  0
C  C26  1  0.78670317  0.45921629  0.65557542  1  0  0.04392  0  3.640261  0  0  0.020562  0  3.89045  0  0  0.021774  0  3.89783  0  0  -0.013718  0.019305  0  3.885854  0
C  C27  1  0.21329086  0.54078079  0.15558022  1  0  0.043653  0  3.640366  0  0  0.020347  0  3.890576  0  0  0.021554  0  3.897962  0  0  -0.013822  0.019088  0  3.885985  0
C  C28  1  0.72189652  0.48823646  0.53033435  1  0  0.063851  0  3.597402  0  0  0.034933  0  3.853006  0  0  0.035984  0  3.860302  0  0  -0.003587  0.033833  0  3.848224  0
C  C29  1  0.27809053  0.51176465  0.03032749  1  0  0.063974  0  3.597273  0  0  0.034995  0  3.852873  0  0  0.036046  0  3.860166  0  0  -0.003488  0.033894  0  3.848099  0
C  C30  1  0.86349851  0.45914646  0.43618013  1  0  0.667324  0  3.807472  0  0  0.609215  0  4.115023  0  0  0.643924  0  4.108261  0  0  0.220668  0.585774  0  4.11858  0
C  C31  1  0.13649674  0.54084747  0.93617993  1  0  0.667256  0  3.807506  0  0  0.609285  0  4.114839  0  0  0.643994  0  4.108074  0  0  0.220653  0.585848  0  4.1184  0
C  C32  1  0.95459860  0.04923602  0.72363745  1  0  0.639247  0  3.854136  0  0  0.583046  0  4.161913  0  0  0.616946  0  4.155727  0  0  0.20739  0.560038  0  4.165221  0
C  C33  1  0.04540397  0.95076564  0.22364123  1  0  0.639159  0  3.854256  0  0  0.583036  0  4.16205  0  0  0.616935  0  4.155864  0  0  0.207342  0.560024  0  4.165361  0
C  C34  1  0.76438638  0.03434734  0.66921396  1  0  0.054956  0  3.607874  0  0  0.027334  0  3.862652  0  0  0.02899  0  3.869438  0  0  -0.009099  0.02592  0  3.85851  0
C  C35  1  0.23561401  0.96565635  0.16921756  1  0  0.055187  0  3.607504  0  0  0.027306  0  3.862715  0  0  0.028962  0  3.869503  0  0  -0.009023  0.02589  0  3.858579  0
C  C36  1  0.78882736  0.02434225  0.53414115  1  0  0.045406  0  3.609009  0  0  0.021832  0  3.857148  0  0  0.022396  0  3.865212  0  0  -0.010687  0.020916  0  3.852206  0
C  C37  1  0.21117556  0.97565737  0.03414217  1  0  0.045515  0  3.608798  0  0  0.021888  0  3.857081  0  0  0.022448  0  3.865166  0  0  -0.010658  0.020984  0  3.852136  0
C  C38  1  0.61476764  0.03672688  0.46488937  1  0  0.671759  0  3.822838  0  0  0.614219  0  4.129955  0  0  0.64832  0  4.122735  0  0  0.218947  0.591032  0  4.134346  0
C  C39  1  0.38523845  0.96327697  0.96489210  1  0  0.671759  0  3.823123  0  0  0.61429  0  4.130116  0  0  0.648395  0  4.122894  0  0  0.218993  0.591085  0  4.13453  0
O  O40  1  0.61280794  0.54631693  0.82145703  1  0  -0.621331  0  1.983213  0  0  -0.554498  0  2.226447  0  0  -0.584887  0  2.213918  0  0  -0.31954  -0.533545  0  2.234472  0
O  O41  1  0.38719152  0.45368416  0.32145249  1  0  -0.621388  0  1.983283  0  0  -0.554515  0  2.226518  0  0  -0.584902  0  2.213985  0  0  -0.319539  -0.533563  0  2.23454  0
O  O42  1  0.51529380  0.33459269  0.72511636  1  0  -0.629971  0  2.028806  0  0  -0.562935  0  2.290544  0  0  -0.593841  0  2.276958  0  0  -0.323425  -0.541463  0  2.299265  0
O  O43  1  0.48470539  0.66540460  0.22510801  1  0  -0.63  0  2.028566  0  0  -0.562968  0  2.290348  0  0  -0.593874  0  2.276761  0  0  -0.323439  -0.541502  0  2.299073  0
O  O44  1  0.92598784  0.57414853  0.68544701  1  0  -0.580433  0  2.113223  0  0  -0.520332  0  2.342327  0  0  -0.539937  0  2.327222  0  0  -0.401572  -0.505784  0  2.352356  0
O  O45  1  0.07401181  0.42585078  0.18544982  1  0  -0.580409  0  2.11333  0  0  -0.520333  0  2.342444  0  0  -0.539937  0  2.327337  0  0  -0.401583  -0.50578  0  2.352468  0
O  O46  1  0.66430879  0.63463956  0.52267515  1  0  -0.539007  0  2.105885  0  0  -0.48585  0  2.337584  0  0  -0.503258  0  2.32495  0  0  -0.390615  -0.473032  0  2.345726  0
O  O47  1  0.33568480  0.36536024  0.02267213  1  0  -0.538968  0  2.105731  0  0  -0.48584  0  2.337409  0  0  -0.503249  0  2.324771  0  0  -0.390582  -0.473019  0  2.345543  0
O  O48  1  0.88036736  0.54523438  0.34607429  1  0  -0.63901  0  2.058878  0  0  -0.565546  0  2.299893  0  0  -0.596246  0  2.287425  0  0  -0.31335  -0.544111  0  2.307485  0
O  O49  1  0.11962464  0.45476254  0.84607557  1  0  -0.638969  0  2.05896  0  0  -0.565574  0  2.29991  0  0  -0.59627  0  2.287443  0  0  -0.313367  -0.544144  0  2.307507  0
O  O50  1  0.94925640  0.34704999  0.45067846  1  0  -0.621163  0  2.028227  0  0  -0.555495  0  2.279096  0  0  -0.58483  0  2.267743  0  0  -0.312088  -0.535382  0  2.286056  0
O  O51  1  0.05073950  0.65294846  0.95067256  1  0  -0.621208  0  2.028116  0  0  -0.555566  0  2.278886  0  0  -0.584902  0  2.267535  0  0  -0.312079  -0.535448  0  2.285842  0
O  O52  1  0.01564792  0.94165518  0.77480892  1  0  -0.601058  0  2.044618  0  0  -0.540758  0  2.297037  0  0  -0.569813  0  2.286499  0  0  -0.311918  -0.520749  0  2.303318  0
O  O53  1  0.98435667  0.05834333  0.27481466  1  0  -0.601047  0  2.044781  0  0  -0.54075  0  2.297162  0  0  -0.569805  0  2.286624  0  0  -0.311884  -0.520743  0  2.303442  0
O  O54  1  0.04547627  0.17661940  0.70759696  1  0  -0.658885  0  2.0389  0  0  -0.585052  0  2.289942  0  0  -0.614928  0  2.276182  0  0  -0.324488  -0.564382  0  2.298552  0
O  O55  1  0.95452233  0.82338228  0.20759478  1  0  -0.658857  0  2.038842  0  0  -0.585002  0  2.289842  0  0  -0.614875  0  2.276082  0  0  -0.324453  -0.564328  0  2.29845  0
O  O56  1  0.65350039  0.90891589  0.71597610  1  0  -0.555251  0  2.080469  0  0  -0.497357  0  2.310043  0  0  -0.515827  0  2.294831  0  0  -0.391411  -0.483993  0  2.320649  0
O  O57  1  0.34649586  0.09108811  0.21597830  1  0  -0.55528  0  2.080453  0  0  -0.497325  0  2.310179  0  0  -0.515791  0  2.294965  0  0  -0.391435  -0.48396  0  2.320787  0
O  O58  1  0.88075009  0.89787208  0.50198672  1  0  -0.572204  0  2.126098  0  0  -0.512624  0  2.352895  0  0  -0.531146  0  2.33985  0  0  -0.387558  -0.49923  0  2.361815  0
O  O59  1  0.11924437  0.10212424  0.00198128  1  0  -0.572296  0  2.126012  0  0  -0.512718  0  2.352843  0  0  -0.531252  0  2.339809  0  0  -0.387597  -0.499314  0  2.361751  0
O  O60  1  0.57057253  0.95259970  0.37640018  1  0  -0.647443  0  2.015141  0  0  -0.573372  0  2.259201  0  0  -0.603853  0  2.245248  0  0  -0.317734  -0.552337  0  2.26842  0
O  O61  1  0.42942741  0.04739717  0.87640322  1  0  -0.647466  0  2.015349  0  0  -0.573436  0  2.259388  0  0  -0.603915  0  2.245431  0  0  -0.317821  -0.5524  0  2.26861  0
O  O62  1  0.52820452  0.14204060  0.49820450  1  0  -0.599661  0  1.998199  0  0  -0.547827  0  2.226602  0  0  -0.573344  0  2.216268  0  0  -0.309854  -0.530111  0  2.233263  0
O  O63  1  0.47181072  0.85797100  0.99821737  1  0  -0.599682  0  1.99832  0  0  -0.54779  0  2.226628  0  0  -0.573307  0  2.216292  0  0  -0.309798  -0.530055  0  2.233267  0
O  O64  1  0.81007334  0.89223145  0.99492852  1  0  -0.855168  0  1.90236  0  0  -0.785626  0  2.090523  0  0  -0.811902  0  2.05731  0  0  -0.577817  -0.766964  0  2.113546  0
O  O65  1  0.18993651  0.10777134  0.49493098  1  0  -0.855233  0  1.902418  0  0  -0.785719  0  2.090487  0  0  -0.811996  0  2.057268  0  0  -0.577798  -0.767056  0  2.113519  0
