# generated using pymatgen
data_CdH26C27(N2O3)2
_symmetry_space_group_name_H-M   'P 1'
_cell_length_a   10.23139706
_cell_length_b   10.56419093
_cell_length_c   13.28812807
_cell_angle_alpha   106.39958696
_cell_angle_beta   97.22350900
_cell_angle_gamma   106.04794873
_symmetry_Int_Tables_number   1
_chemical_formula_structural   CdH26C27(N2O3)2
_chemical_formula_sum   'Cd2 H52 C54 N8 O12'
_cell_volume   1291.38536657
_cell_formula_units_Z   2
loop_
 _symmetry_equiv_pos_site_id
 _symmetry_equiv_pos_as_xyz
  1  'x, y, z'
loop_
 _atom_site_type_symbol
 _atom_site_label
 _atom_site_symmetry_multiplicity
 _atom_site_fract_x
 _atom_site_fract_y
 _atom_site_fract_z
 _atom_site_occupancy
 _atom_site_hle17_bader_spin_density
 _atom_site_hle17_ddec_charge
 _atom_site_hle17_ddec_spin_density
 _atom_site_hle17_ddec_sum_bond_order
 _atom_site_hle17_magmom
 _atom_site_hse06_10hf_bader_spin_density
 _atom_site_hse06_10hf_ddec_charge
 _atom_site_hse06_10hf_ddec_spin_density
 _atom_site_hse06_10hf_ddec_sum_bond_order
 _atom_site_hse06_10hf_magmom
 _atom_site_hse06_bader_spin_density
 _atom_site_hse06_ddec_charge
 _atom_site_hse06_ddec_spin_density
 _atom_site_hse06_ddec_sum_bond_order
 _atom_site_hse06_magmom
 _atom_site_pbe_bader_spin_density
 _atom_site_pbe_cm5_charge
 _atom_site_pbe_ddec_charge
 _atom_site_pbe_ddec_spin_density
 _atom_site_pbe_ddec_sum_bond_order
 _atom_site_pbe_magmom
Cd  Cd0  1  0.91268838  0.14342734  0.06088304  1  0  1.100974  0  1.691552  0  0  0.907064  0  2.140283  0  0  0.965713  0  2.089024  0  0  0.767324  0.861938  0  2.177642  0
Cd  Cd1  1  0.08730713  0.85657507  0.93912125  1  0  1.100908  0  1.691664  0  0  0.906989  0  2.140413  0  0  0.965636  0  2.089152  0  0  0.767293  0.861861  0  2.177774  0
H  H2  1  0.05986458  0.97207967  0.18977873  1  0  0.085774  0  0.940637  0  0  0.094021  0  1.006165  0  0  0.096592  0  1.00349  0  0  0.117335  0.092016  0  1.008492  0
H  H3  1  0.94014152  0.02791013  0.81022294  1  0  0.085811  0  0.940553  0  0  0.093998  0  1.006141  0  0  0.096619  0  1.003404  0  0  0.117292  0.091996  0  1.008469  0
H  H4  1  0.00669914  0.85572430  0.32919537  1  0  0.109557  0  0.961512  0  0  0.114701  0  1.030657  0  0  0.118355  0  1.029112  0  0  0.107856  0.11236  0  1.031355  0
H  H5  1  0.99330056  0.14427287  0.67080963  1  0  0.109533  0  0.961585  0  0  0.114728  0  1.030672  0  0  0.118349  0  1.029202  0  0  0.107887  0.112389  0  1.031369  0
H  H6  1  0.69384403  0.99503006  0.49899279  1  0  0.281399  0  0.966261  0  0  0.261946  0  1.037034  0  0  0.269761  0  1.031048  0  0  0.300863  0.256479  0  1.041201  0
H  H7  1  0.30616684  0.00497121  0.50100963  1  0  0.28125  0  0.966326  0  0  0.261876  0  1.036995  0  0  0.269698  0  1.031016  0  0  0.300814  0.25641  0  1.041162  0
H  H8  1  0.73863277  0.14199596  0.79106500  1  0  0.299495  0  0.943833  0  0  0.279537  0  1.013318  0  0  0.287885  0  1.007258  0  0  0.29925  0.273582  0  1.017674  0
H  H9  1  0.26137022  0.85800535  0.20893595  1  0  0.299497  0  0.943913  0  0  0.279542  0  1.013379  0  0  0.28789  0  1.007323  0  0  0.299275  0.27359  0  1.017732  0
H  H10  1  0.69607004  0.05826253  0.38096288  1  0  0.110724  0  0.974857  0  0  0.120886  0  1.036629  0  0  0.124248  0  1.034931  0  0  0.113174  0.118309  0  1.038388  0
H  H11  1  0.30392794  0.94173254  0.61903848  1  0  0.110725  0  0.974861  0  0  0.120849  0  1.036675  0  0  0.124207  0  1.034991  0  0  0.11316  0.118277  0  1.038439  0
H  H12  1  0.75453052  0.15591423  0.23784965  1  0  0.091245  0  0.962979  0  0  0.099065  0  1.028957  0  0  0.101971  0  1.026158  0  0  0.120593  0.096978  0  1.030683  0
H  H13  1  0.24547395  0.84407662  0.76215136  1  0  0.091325  0  0.962842  0  0  0.099089  0  1.028876  0  0  0.102024  0  1.026051  0  0  0.1206  0.097004  0  1.030602  0
H  H14  1  0.78247849  0.86986162  0.64632110  1  0  0.037295  0  0.935125  0  0  0.051059  0  0.999826  0  0  0.050607  0  1.000474  0  0  0.104524  0.051329  0  0.999382  0
H  H15  1  0.21752114  0.13013551  0.35367787  1  0  0.037279  0  0.935131  0  0  0.051046  0  0.999842  0  0  0.050612  0  1.000469  0  0  0.104539  0.051316  0  0.999392  0
H  H16  1  0.64952285  0.64953306  0.50449590  1  0  0.07981  0  0.948741  0  0  0.096741  0  1.008748  0  0  0.098293  0  1.007855  0  0  0.092106  0.095486  0  1.009573  0
H  H17  1  0.35047845  0.35046926  0.49549911  1  0  0.079859  0  0.948702  0  0  0.096733  0  1.008746  0  0  0.098292  0  1.007839  0  0  0.092118  0.095482  0  1.009574  0
H  H18  1  0.50118627  0.70509275  0.49014774  1  0  0.074012  0  0.9491  0  0  0.089228  0  1.017903  0  0  0.090304  0  1.017841  0  0  0.088615  0.088373  0  1.018068  0
H  H19  1  0.49881638  0.29491062  0.50984913  1  0  0.073941  0  0.949151  0  0  0.089162  0  1.017926  0  0  0.090231  0  1.017857  0  0  0.088574  0.088303  0  1.018103  0
H  H20  1  0.47412281  0.55057677  0.60376693  1  0  0.062495  0  0.963259  0  0  0.083416  0  1.021048  0  0  0.083555  0  1.022439  0  0  0.089316  0.083167  0  1.020263  0
H  H21  1  0.52587977  0.44942346  0.39622848  1  0  0.062477  0  0.963225  0  0  0.083389  0  1.021055  0  0  0.083535  0  1.022436  0  0  0.089268  0.083133  0  1.020277  0
H  H22  1  0.63306033  0.66152773  0.69370326  1  0  0.055187  0  0.939652  0  0  0.074242  0  1.002579  0  0  0.074275  0  1.003972  0  0  0.084265  0.074234  0  1.001488  0
H  H23  1  0.36694356  0.33847352  0.30629024  1  0  0.055145  0  0.93959  0  0  0.074248  0  1.002493  0  0  0.07428  0  1.003889  0  0  0.084289  0.07424  0  1.001395  0
H  H24  1  0.43210565  0.71705634  0.76458510  1  0  0.073339  0  0.94873  0  0  0.089446  0  1.013609  0  0  0.09044  0  1.013743  0  0  0.090281  0.088709  0  1.013552  0
H  H25  1  0.56789689  0.28294075  0.23541036  1  0  0.073432  0  0.948766  0  0  0.089518  0  1.013646  0  0  0.090511  0  1.01378  0  0  0.090299  0.088784  0  1.013582  0
H  H26  1  0.37287367  0.74252353  0.64333416  1  0  0.060932  0  0.932744  0  0  0.082051  0  0.990416  0  0  0.082553  0  0.990849  0  0  0.088236  0.081782  0  0.989966  0
H  H27  1  0.62712760  0.25747567  0.35666240  1  0  0.060926  0  0.932771  0  0  0.082061  0  0.99043  0  0  0.08256  0  0.990865  0  0  0.088229  0.081788  0  0.989984  0
H  H28  1  0.50653539  0.97054008  0.78818083  1  0  0.079052  0  0.939966  0  0  0.095096  0  1.003748  0  0  0.095422  0  1.005263  0  0  0.092036  0.09473  0  1.002885  0
H  H29  1  0.49346689  0.02945913  0.21181884  1  0  0.079007  0  0.93998  0  0  0.095046  0  1.00378  0  0  0.095372  0  1.0053  0  0  0.092005  0.094681  0  1.002917  0
H  H30  1  0.65181876  0.91284720  0.80554071  1  0  0.083829  0  0.941195  0  0  0.100042  0  1.00586  0  0  0.101195  0  1.005609  0  0  0.091492  0.099008  0  1.006257  0
H  H31  1  0.34818352  0.08715201  0.19445820  1  0  0.083781  0  0.941327  0  0  0.100044  0  1.005931  0  0  0.101197  0  1.005682  0  0  0.091486  0.099028  0  1.006298  0
H  H32  1  0.52676935  0.95799793  0.60090667  1  0  0.057845  0  0.927603  0  0  0.069366  0  0.99073  0  0  0.070652  0  0.989137  0  0  0.111203  0.068258  0  0.992238  0
H  H33  1  0.47323001  0.04200442  0.39909118  1  0  0.057814  0  0.9277  0  0  0.069377  0  0.990791  0  0  0.070656  0  0.989204  0  0  0.1112  0.068262  0  0.992306  0
H  H34  1  0.93980602  0.30106884  0.84360748  1  0  0.128349  0  0.955644  0  0  0.135376  0  1.020196  0  0  0.139336  0  1.017797  0  0  0.114898  0.132593  0  1.022  0
H  H35  1  0.06019847  0.69892824  0.15638664  1  0  0.128334  0  0.955601  0  0  0.135326  0  1.020206  0  0  0.13929  0  1.017793  0  0  0.114893  0.132544  0  1.022011  0
H  H36  1  0.08849516  0.54816781  0.92882071  1  0  0.085577  0  0.929287  0  0  0.094667  0  0.989697  0  0  0.097141  0  0.988171  0  0  0.118999  0.092723  0  0.99108  0
H  H37  1  0.91150642  0.45182930  0.07117692  1  0  0.085535  0  0.929253  0  0  0.094623  0  0.989674  0  0  0.097101  0  0.988146  0  0  0.118957  0.092676  0  0.991058  0
H  H38  1  0.89701238  0.66852546  0.69538984  1  0  0.082129  0  0.932712  0  0  0.089575  0  0.995774  0  0  0.092611  0  0.993412  0  0  0.117657  0.087512  0  0.997241  0
H  H39  1  0.10299194  0.33147688  0.30461146  1  0  0.082193  0  0.93263  0  0  0.089645  0  0.995682  0  0  0.092668  0  0.993338  0  0  0.117677  0.087577  0  0.997151  0
H  H40  1  0.73588650  0.42274957  0.59854697  1  0  0.11798  0  0.942591  0  0  0.128774  0  0.998528  0  0  0.132726  0  0.996612  0  0  0.115495  0.125857  0  1.000172  0
H  H41  1  0.26411583  0.57725277  0.40145190  1  0  0.118  0  0.942552  0  0  0.128799  0  0.998479  0  0  0.13275  0  0.996563  0  0  0.115514  0.125881  0  1.000127  0
H  H42  1  0.41938452  0.12571033  0.04485482  1  0  0.112794  0  0.959639  0  0  0.119799  0  1.02792  0  0  0.123216  0  1.025373  0  0  0.107893  0.117343  0  1.029901  0
H  H43  1  0.58060829  0.87428999  0.95514498  1  0  0.112878  0  0.959516  0  0  0.119855  0  1.027817  0  0  0.123273  0  1.02527  0  0  0.107921  0.117388  0  1.029831  0
H  H44  1  0.64797988  0.34701925  0.86208228  1  0  0.093355  0  0.965136  0  0  0.102106  0  1.031845  0  0  0.104815  0  1.030782  0  0  0.097664  0.100017  0  1.03282  0
H  H45  1  0.35201791  0.65298418  0.13791943  1  0  0.093289  0  0.965293  0  0  0.102051  0  1.03198  0  0  0.104759  0  1.03092  0  0  0.097634  0.099959  0  1.032971  0
H  H46  1  0.23186114  0.35095682  0.88089378  1  0  0.097486  0  0.957274  0  0  0.106374  0  1.023469  0  0  0.109587  0  1.021462  0  0  0.100491  0.104021  0  1.025041  0
H  H47  1  0.76813434  0.64904558  0.11910824  1  0  0.097506  0  0.957291  0  0  0.106387  0  1.023458  0  0  0.109602  0  1.021449  0  0  0.100507  0.104029  0  1.025037  0
H  H48  1  0.35233986  0.47008954  0.77311529  1  0  0.113228  0  0.936268  0  0  0.136462  0  0.990859  0  0  0.13825  0  0.990267  0  0  0.094416  0.135294  0  0.991158  0
H  H49  1  0.64765926  0.52991804  0.22688295  1  0  0.113157  0  0.936201  0  0  0.136401  0  0.990795  0  0  0.138191  0  0.990203  0  0  0.094388  0.135231  0  0.991099  0
H  H50  1  0.46747976  0.39114759  0.71137584  1  0  0.107273  0  0.946146  0  0  0.127908  0  1.009959  0  0  0.128897  0  1.010395  0  0  0.090558  0.127286  0  1.009545  0
H  H51  1  0.53251638  0.60885377  0.28862751  1  0  0.107215  0  0.946177  0  0  0.127861  0  1.009983  0  0  0.128851  0  1.010418  0  0  0.090552  0.127238  0  1.009573  0
H  H52  1  0.53563350  0.54468938  0.82554952  1  0  0.108101  0  0.956227  0  0  0.129249  0  1.01888  0  0  0.129532  0  1.020794  0  0  0.090583  0.129117  0  1.017434  0
H  H53  1  0.46436454  0.45531194  0.17444797  1  0  0.108169  0  0.956101  0  0  0.129284  0  1.01879  0  0  0.129567  0  1.020704  0  0  0.090589  0.129152  0  1.017344  0
C  C54  1  0.97971472  0.98676538  0.23424160  1  0  0.127137  0  3.705784  0  0  0.093928  0  3.968509  0  0  0.101854  0  3.984945  0  0  0.044956  0.088637  0  3.957419  0
C  C55  1  0.02029012  0.01322963  0.76575812  1  0  0.127099  0  3.705497  0  0  0.093943  0  3.968228  0  0  0.101841  0  3.984639  0  0  0.044947  0.088648  0  3.957165  0
C  C56  1  0.95030318  0.92285920  0.31081325  1  0  -0.110136  0  3.686514  0  0  -0.134875  0  3.941709  0  0  -0.140143  0  3.96109  0  0  -0.07426  -0.131687  0  3.928896  0
C  C57  1  0.04969972  0.07713584  0.68918855  1  0  -0.110134  0  3.686582  0  0  -0.13492  0  3.941788  0  0  -0.140189  0  3.961174  0  0  -0.074296  -0.131738  0  3.928992  0
C  C58  1  0.84697207  0.94598794  0.36591756  1  0  0.020524  0  3.702961  0  0  0.038348  0  3.931837  0  0  0.038053  0  3.95147  0  0  0.015774  0.038409  0  3.918982  0
C  C59  1  0.15302390  0.05400401  0.63408443  1  0  0.020628  0  3.703026  0  0  0.038491  0  3.931975  0  0  0.038201  0  3.9516  0  0  0.015724  0.038561  0  3.919129  0
C  C60  1  0.77637557  0.03295978  0.34069148  1  0  -0.123522  0  3.684363  0  0  -0.145273  0  3.928408  0  0  -0.150224  0  3.947794  0  0  -0.075129  -0.142487  0  3.916093  0
C  C61  1  0.22362310  0.96703737  0.65930966  1  0  -0.123631  0  3.684417  0  0  -0.145354  0  3.928493  0  0  -0.150307  0  3.947882  0  0  -0.075122  -0.142571  0  3.91619  0
C  C62  1  0.80967559  0.09081012  0.26186697  1  0  0.131293  0  3.694226  0  0  0.099752  0  3.945645  0  0  0.106779  0  3.963611  0  0  0.048291  0.095391  0  3.93291  0
C  C63  1  0.19033250  0.90917968  0.73813714  1  0  0.131256  0  3.693963  0  0  0.099767  0  3.945352  0  0  0.106773  0  3.963294  0  0  0.048261  0.095406  0  3.932627  0
C  C64  1  0.81808417  0.87595249  0.44913958  1  0  0.524226  0  3.869797  0  0  0.481215  0  4.155072  0  0  0.509119  0  4.154902  0  0  0.233064  0.462524  0  4.154654  0
C  C65  1  0.18191370  0.12403940  0.55085580  1  0  0.524336  0  3.87019  0  0  0.48113  0  4.155754  0  0  0.509035  0  4.155582  0  0  0.233101  0.46243  0  4.155348  0
C  C66  1  0.68745510  0.86409501  0.59321991  1  0  0.144055  0  3.589958  0  0  0.121914  0  3.832081  0  0  0.126113  0  3.847775  0  0  0.014781  0.119278  0  3.821184  0
C  C67  1  0.31254582  0.13590314  0.40677639  1  0  0.144128  0  3.589852  0  0  0.121947  0  3.831985  0  0  0.126127  0  3.84768  0  0  0.014722  0.119314  0  3.821075  0
C  C68  1  0.59169545  0.71164799  0.54831132  1  0  -0.169544  0  3.670747  0  0  -0.215722  0  3.932733  0  0  -0.217896  0  3.946297  0  0  -0.16815  -0.214014  0  3.923328  0
C  C69  1  0.40830516  0.28835225  0.45168391  1  0  -0.169509  0  3.670688  0  0  -0.215578  0  3.932584  0  0  -0.217736  0  3.946124  0  0  -0.16807  -0.21388  0  3.923193  0
C  C70  1  0.54272041  0.65969103  0.63767972  1  0  -0.102662  0  3.701459  0  0  -0.14057  0  3.959382  0  0  -0.141757  0  3.975445  0  0  -0.168192  -0.139441  0  3.948165  0
C  C71  1  0.45728279  0.34030814  0.36231400  1  0  -0.102551  0  3.701256  0  0  -0.140543  0  3.959238  0  0  -0.14174  0  3.9753  0  0  -0.168176  -0.139407  0  3.948013  0
C  C72  1  0.46724015  0.75174999  0.69908667  1  0  -0.105549  0  3.683099  0  0  -0.144979  0  3.942658  0  0  -0.14568  0  3.956613  0  0  -0.167204  -0.144338  0  3.932866  0
C  C73  1  0.53276209  0.24824920  0.30090847  1  0  -0.105701  0  3.683197  0  0  -0.145119  0  3.94278  0  0  -0.145826  0  3.956751  0  0  -0.167233  -0.144478  0  3.932989  0
C  C74  1  0.56181748  0.90407433  0.74564135  1  0  -0.159347  0  3.646451  0  0  -0.201971  0  3.903197  0  0  -0.203467  0  3.916448  0  0  -0.165691  -0.200776  0  3.894128  0
C  C75  1  0.43818413  0.09592591  0.25435548  1  0  -0.159134  0  3.646436  0  0  -0.201824  0  3.903255  0  0  -0.203314  0  3.916494  0  0  -0.165606  -0.200653  0  3.894193  0
C  C76  1  0.61506093  0.95892060  0.65837399  1  0  0.127742  0  3.568539  0  0  0.106141  0  3.809131  0  0  0.110701  0  3.823063  0  0  0.013733  0.103047  0  3.799787  0
C  C77  1  0.38494271  0.04108278  0.34162448  1  0  0.127675  0  3.568428  0  0  0.106045  0  3.80904  0  0  0.110606  0  3.82298  0  0  0.013696  0.102955  0  3.799706  0
C  C78  1  0.72472316  0.19638919  0.65416394  1  0  0.530018  0  3.836658  0  0  0.480964  0  4.126931  0  0  0.510325  0  4.12497  0  0  0.240057  0.461253  0  4.127563  0
C  C79  1  0.27527625  0.80361318  0.34583768  1  0  0.529947  0  3.836804  0  0  0.481019  0  4.126868  0  0  0.510386  0  4.124903  0  0  0.240093  0.461302  0  4.127506  0
C  C80  1  0.82148329  0.34224985  0.71424070  1  0  0.000185  0  3.736623  0  0  0.020088  0  3.968244  0  0  0.018381  0  3.988126  0  0  0.009289  0.021188  0  3.955153  0
C  C81  1  0.17852093  0.65774933  0.28575613  1  0  0.00027  0  3.736714  0  0  0.020171  0  3.968216  0  0  0.01846  0  3.988105  0  0  0.009302  0.021277  0  3.955121  0
C  C82  1  0.92418745  0.37747357  0.80713355  1  0  -0.127485  0  3.680243  0  0  -0.150923  0  3.93032  0  0  -0.154855  0  3.948293  0  0  -0.073362  -0.148745  0  3.918957  0
C  C83  1  0.07581909  0.62252665  0.19286447  1  0  -0.12741  0  3.67997  0  0  -0.150824  0  3.930046  0  0  -0.15476  0  3.948033  0  0  -0.073366  -0.14866  0  3.918689  0
C  C84  1  0.00910163  0.51618761  0.85526267  1  0  0.139901  0  3.68697  0  0  0.11185  0  3.939301  0  0  0.117894  0  3.956566  0  0  0.051894  0.107791  0  3.927875  0
C  C85  1  0.99090228  0.48381055  0.14473767  1  0  0.139916  0  3.68681  0  0  0.111841  0  3.93915  0  0  0.117882  0  3.956419  0  0  0.051933  0.107783  0  3.927717  0
C  C86  1  0.90163001  0.58346312  0.72551457  1  0  0.1238  0  3.718638  0  0  0.096571  0  3.971207  0  0  0.102098  0  3.989335  0  0  0.04933  0.09281  0  3.9588  0
C  C87  1  0.09837461  0.41654025  0.27448323  1  0  0.123741  0  3.718659  0  0  0.096502  0  3.971222  0  0  0.102036  0  3.989353  0  0  0.049316  0.092748  0  3.958798  0
C  C88  1  0.81225348  0.44773966  0.67218775  1  0  -0.11534  0  3.698394  0  0  -0.135692  0  3.937594  0  0  -0.14028  0  3.957211  0  0  -0.07077  -0.132946  0  3.925013  0
C  C89  1  0.18775080  0.55226267  0.32781054  1  0  -0.115399  0  3.69849  0  0  -0.135767  0  3.937682  0  0  -0.140353  0  3.957294  0  0  -0.070799  -0.133028  0  3.925096  0
C  C90  1  0.18015438  0.18882224  0.00405704  1  0  0.634707  0  3.92344  0  0  0.584647  0  4.209123  0  0  0.619728  0  4.203259  0  0  0.195321  0.560893  0  4.21197  0
C  C91  1  0.81984773  0.81118224  0.99594906  1  0  0.634904  0  3.92309  0  0  0.584872  0  4.208719  0  0  0.619947  0  4.202856  0  0  0.195408  0.561124  0  4.211591  0
C  C92  1  0.31202551  0.23416330  0.96695261  1  0  -0.075947  0  3.784125  0  0  -0.047779  0  4.018847  0  0  -0.057986  0  4.043274  0  0  -0.02396  -0.041621  0  4.003149  0
C  C93  1  0.68796769  0.76584119  0.03304741  1  0  -0.075917  0  3.784077  0  0  -0.047753  0  4.018766  0  0  -0.057951  0  4.043193  0  0  -0.023972  -0.041611  0  4.003074  0
C  C94  1  0.42512194  0.19175385  0.99491019  1  0  -0.059859  0  3.683928  0  0  -0.100888  0  3.936564  0  0  -0.097277  0  3.954632  0  0  -0.075961  -0.103439  0  3.925397  0
C  C95  1  0.57487592  0.80825272  0.00509298  1  0  -0.059942  0  3.683972  0  0  -0.100969  0  3.936605  0  0  -0.097364  0  3.954677  0  0  -0.076019  -0.103506  0  3.925445  0
C  C96  1  0.54624867  0.23331460  0.95717190  1  0  -0.06823  0  3.786996  0  0  -0.041589  0  4.023605  0  0  -0.050826  0  4.046183  0  0  -0.021413  -0.035588  0  4.008522  0
C  C97  1  0.45374720  0.76669198  0.04283034  1  0  -0.068238  0  3.787146  0  0  -0.041515  0  4.023609  0  0  -0.050752  0  4.046193  0  0  -0.021376  -0.035534  0  4.008569  0
C  C98  1  0.66925760  0.19250898  0.99024371  1  0  0.62985  0  3.922583  0  0  0.580874  0  4.20999  0  0  0.615193  0  4.204156  0  0  0.197041  0.557477  0  4.213053  0
C  C99  1  0.33073999  0.80749970  0.00976216  1  0  0.629641  0  3.92292  0  0  0.580685  0  4.210258  0  0  0.615009  0  4.204433  0  0  0.196938  0.557294  0  4.21333  0
C  C100  1  0.55252875  0.31522708  0.89040153  1  0  -0.11064  0  3.676249  0  0  -0.143727  0  3.918349  0  0  -0.142087  0  3.937272  0  0  -0.082455  -0.14362  0  3.904827  0
C  C101  1  0.44746159  0.68478057  0.10960119  1  0  -0.1106  0  3.67626  0  0  -0.143729  0  3.918355  0  0  -0.142095  0  3.937285  0  0  -0.082472  -0.143625  0  3.904868  0
C  C102  1  0.44002110  0.35840362  0.86124735  1  0  0.137967  0  3.769721  0  0  0.16891  0  4.006599  0  0  0.166707  0  4.032255  0  0  -0.008368  0.170025  0  3.989028  0
C  C103  1  0.55997446  0.64160192  0.13875689  1  0  0.138084  0  3.769572  0  0  0.169022  0  4.006441  0  0  0.166824  0  4.032099  0  0  -0.008266  0.170145  0  3.988841  0
C  C104  1  0.32092756  0.31813612  0.90112764  1  0  -0.111236  0  3.685923  0  0  -0.145684  0  3.929454  0  0  -0.144715  0  3.950044  0  0  -0.081541  -0.145609  0  3.915555  0
C  C105  1  0.67906935  0.68187359  0.09887539  1  0  -0.111362  0  3.686047  0  0  -0.145783  0  3.929579  0  0  -0.144822  0  3.950176  0  0  -0.081579  -0.145699  0  3.915661  0
C  C106  1  0.44880008  0.44576246  0.78908854  1  0  -0.332582  0  3.729174  0  0  -0.414159  0  3.964005  0  0  -0.416517  0  3.9752  0  0  -0.238647  -0.412466  0  3.95626  0
C  C107  1  0.55119411  0.55424203  0.21091233  1  0  -0.332529  0  3.728948  0  0  -0.414097  0  3.963801  0  0  -0.41646  0  3.974996  0  0  -0.238632  -0.412405  0  3.956062  0
N  N108  1  0.90948887  0.06821855  0.20907753  1  0  -0.347426  0  3.284585  0  0  -0.2683  0  3.551376  0  0  -0.28957  0  3.571341  0  0  -0.331539  -0.253155  0  3.536657  0
N  N109  1  0.09051495  0.93177335  0.79092366  1  0  -0.347365  0  3.284265  0  0  -0.26819  0  3.550942  0  0  -0.289466  0  3.570935  0  0  -0.331397  -0.253047  0  3.536247  0
N  N110  1  0.99764811  0.61787341  0.81621296  1  0  -0.32513  0  3.232902  0  0  -0.257415  0  3.497387  0  0  -0.274533  0  3.515708  0  0  -0.323234  -0.245419  0  3.48437  0
N  N111  1  0.00235584  0.38212788  0.18378657  1  0  -0.325158  0  3.233103  0  0  -0.25743  0  3.49759  0  0  -0.274545  0  3.515904  0  0  -0.323245  -0.245433  0  3.484543  0
N  N112  1  0.72847052  0.91569311  0.50744698  1  0  -0.462275  0  3.329903  0  0  -0.409935  0  3.578467  0  0  -0.43291  0  3.589509  0  0  -0.425778  -0.394152  0  3.570349  0
N  N113  1  0.27152887  0.08430926  0.49255313  1  0  -0.462239  0  3.330021  0  0  -0.409863  0  3.578569  0  0  -0.432848  0  3.589622  0  0  -0.425718  -0.394073  0  3.570447  0
N  N114  1  0.70778235  0.10425582  0.70785057  1  0  -0.453754  0  3.279094  0  0  -0.399051  0  3.52985  0  0  -0.422294  0  3.539972  0  0  -0.4105  -0.383133  0  3.522474  0
N  N115  1  0.29221758  0.89574233  0.29214489  1  0  -0.453797  0  3.279131  0  0  -0.399113  0  3.529781  0  0  -0.422363  0  3.539905  0  0  -0.410553  -0.383196  0  3.522411  0
O  O116  1  0.08583525  0.24151102  0.98413437  1  0  -0.624337  0  2.012405  0  0  -0.558225  0  2.255765  0  0  -0.588302  0  2.248491  0  0  -0.322265  -0.53644  0  2.260906  0
O  O117  1  0.91415782  0.75848096  0.01587037  1  0  -0.624388  0  2.012283  0  0  -0.558305  0  2.255678  0  0  -0.588382  0  2.2484  0  0  -0.322289  -0.536511  0  2.260805  0
O  O118  1  0.16360828  0.09811128  0.05277509  1  0  -0.680107  0  1.984672  0  0  -0.611611  0  2.241025  0  0  -0.639676  0  2.227478  0  0  -0.34251  -0.591024  0  2.249244  0
O  O119  1  0.83639671  0.90189003  0.94722906  1  0  -0.68021  0  1.984574  0  0  -0.611708  0  2.240886  0  0  -0.639771  0  2.227339  0  0  -0.342545  -0.591127  0  2.249116  0
O  O120  1  0.67646804  0.15148227  0.07099348  1  0  -0.618379  0  1.964076  0  0  -0.560487  0  2.204913  0  0  -0.588638  0  2.197684  0  0  -0.31774  -0.540057  0  2.208747  0
O  O121  1  0.32352080  0.84852961  0.92901607  1  0  -0.618234  0  1.964407  0  0  -0.560397  0  2.2053  0  0  -0.588554  0  2.198077  0  0  -0.317676  -0.539973  0  2.209134  0
O  O122  1  0.76665691  0.20287472  0.93705811  1  0  -0.664202  0  2.005989  0  0  -0.597209  0  2.250341  0  0  -0.625746  0  2.240704  0  0  -0.331927  -0.575977  0  2.257393  0
O  O123  1  0.23333688  0.79711936  0.06295018  1  0  -0.664145  0  2.005806  0  0  -0.597165  0  2.250155  0  0  -0.625672  0  2.240429  0  0  -0.331892  -0.575896  0  2.257107  0
O  O124  1  0.87443396  0.78926432  0.46094597  1  0  -0.548282  0  1.85132  0  0  -0.512524  0  2.050746  0  0  -0.530847  0  2.045578  0  0  -0.319203  -0.50003  0  2.053966  0
O  O125  1  0.12555192  0.21071510  0.53904854  1  0  -0.548417  0  1.85168  0  0  -0.512609  0  2.051222  0  0  -0.530922  0  2.046041  0  0  -0.319274  -0.500114  0  2.054455  0
O  O126  1  0.66712497  0.16563845  0.55733026  1  0  -0.564673  0  1.952851  0  0  -0.524809  0  2.186031  0  0  -0.544651  0  2.177767  0  0  -0.300836  -0.511046  0  2.191176  0
O  O127  1  0.33287184  0.83436498  0.44267136  1  0  -0.564592  0  1.952977  0  0  -0.524807  0  2.18612  0  0  -0.544655  0  2.17786  0  0  -0.300845  -0.511053  0  2.191285  0
