# generated using pymatgen
data_Bi2H15C17(SBr3)2
_symmetry_space_group_name_H-M   'P 1'
_cell_length_a   10.41150747
_cell_length_b   10.98334450
_cell_length_c   13.90456119
_cell_angle_alpha   99.15326556
_cell_angle_beta   96.73056295
_cell_angle_gamma   92.46446430
_symmetry_Int_Tables_number   1
_chemical_formula_structural   Bi2H15C17(SBr3)2
_chemical_formula_sum   'Bi4 H30 C34 S4 Br12'
_cell_volume   1555.88102542
_cell_formula_units_Z   2
loop_
 _symmetry_equiv_pos_site_id
 _symmetry_equiv_pos_as_xyz
  1  'x, y, z'
loop_
 _atom_site_type_symbol
 _atom_site_label
 _atom_site_symmetry_multiplicity
 _atom_site_fract_x
 _atom_site_fract_y
 _atom_site_fract_z
 _atom_site_occupancy
 _atom_site_pbe_bader_charge
 _atom_site_pbe_bader_spin_density
 _atom_site_pbe_cm5_charge
 _atom_site_pbe_ddec_charge
 _atom_site_pbe_ddec_spin_density
 _atom_site_pbe_ddec_sum_bond_order
 _atom_site_pbe_magmom
Bi  Bi0  1  0.34453853  0.89526551  0.55385078  1  1.374918  0  0.449065  0.842722  0  3.153182  0
Bi  Bi1  1  0.65545326  0.10475698  0.44615184  1  1.374942  0  0.449045  0.842574  0  3.153078  0
Bi  Bi2  1  0.24272491  0.09608872  0.28484257  1  1.375891  0  0.475439  0.860811  0  3.081535  0
Bi  Bi3  1  0.75727376  0.90392086  0.71515037  1  1.375896  0  0.475441  0.860864  0  3.081509  0
H  H4  1  0.49214612  0.36672072  0.12618063  1  0.04973  0  0.089166  0.087922  0  1.070935  0
H  H5  1  0.50785898  0.63326850  0.87382036  1  0.049795  0  0.089087  0.087805  0  1.070852  0
H  H6  1  0.53561621  0.50074547  0.27225576  1  0.065824  0  0.09872  0.107517  0  0.99957  0
H  H7  1  0.46438405  0.49925855  0.72774381  1  0.064809  0  0.098734  0.107538  0  0.999549  0
H  H8  1  0.42983327  0.54321993  0.42218431  1  0.096189  0  0.088534  0.106776  0  1.019975  0
H  H9  1  0.57016688  0.45679701  0.57782264  1  0.096376  0  0.088491  0.106746  0  1.019965  0
H  H10  1  0.12404218  0.71354318  0.26316247  1  0.099912  0  0.091294  0.10097  0  1.046077  0
H  H11  1  0.87595257  0.28645067  0.73683389  1  0.099911  0  0.09126  0.10092  0  1.046059  0
H  H12  1  0.22807624  0.66853775  0.11430515  1  0.062273  0  0.098392  0.104074  0  1.015716  0
H  H13  1  0.77191880  0.33144595  0.88568635  1  0.061738  0  0.098407  0.104126  0  1.015834  0
H  H14  1  0.03897112  0.78632386  0.40187047  1  0.088027  0  0.089096  0.145855  0  1.027128  0
H  H15  1  0.96102780  0.21367461  0.59812684  1  0.088062  0  0.089106  0.145864  0  1.027133  0
H  H16  1  0.00003265  0.71850650  0.50423333  1  0.107126  0  0.092451  0.158743  0  1.012188  0
H  H17  1  0.99996845  0.28149567  0.49576536  1  0.107048  0  0.092439  0.158776  0  1.01215  0
H  H18  1  0.98598751  0.62429817  0.38502223  1  0.118532  0  0.106166  0.167267  0  0.959978  0
H  H19  1  0.01400864  0.37570215  0.61497651  1  0.11857  0  0.106167  0.167247  0  0.959965  0
H  H20  1  0.43341617  0.19919759  0.84203543  1  0.080516  0  0.099348  0.10939  0  0.992997  0
H  H21  1  0.56658264  0.80079902  0.15796739  1  0.080439  0  0.099346  0.109363  0  0.993046  0
H  H22  1  0.47827248  0.97890467  0.81510587  1  0.087301  0  0.081597  0.090573  0  1.062723  0
H  H23  1  0.52172518  0.02108917  0.18489650  1  0.087335  0  0.081597  0.090588  0  1.06275  0
H  H24  1  0.78185316  0.04846189  0.06167067  1  0.084503  0  0.096827  0.11202  0  1.020865  0
H  H25  1  0.21815055  0.95153565  0.93833269  1  0.084589  0  0.09681  0.111995  0  1.020998  0
H  H26  1  0.72664825  0.26548961  0.09382306  1  0.095508  0  0.101466  0.109159  0  0.992193  0
H  H27  1  0.27335430  0.73450517  0.90617626  1  0.095532  0  0.101457  0.109145  0  0.992137  0
H  H28  1  0.79311604  0.83069807  0.05111974  1  0.106012  0  0.100188  0.160296  0  0.982165  0
H  H29  1  0.20688392  0.16930132  0.94888137  1  0.106045  0  0.10019  0.160332  0  0.982058  0
H  H30  1  0.84146745  0.72955018  0.94879475  1  0.124189  0  0.106346  0.168655  0  0.967657  0
H  H31  1  0.15854043  0.27045198  0.05121028  1  0.123964  0  0.106389  0.168675  0  0.967631  0
H  H32  1  0.89322579  0.89065473  0.96956980  1  0.111752  0  0.087707  0.140899  0  1.042533  0
H  H33  1  0.10678657  0.10934188  0.03043635  1  0.111823  0  0.087672  0.140892  0  1.042701  0
C  C34  1  0.49861503  0.42745079  0.07188657  1  -0.010543  0  -0.094154  -0.177215  0  3.977646  0
C  C35  1  0.50138638  0.57254121  0.92811588  1  -0.011107  0  -0.094091  -0.177053  0  3.977561  0
C  C36  1  0.54619758  0.38016007  0.98440238  1  -0.039885  0  -0.008065  0.0284  0  3.977788  0
C  C37  1  0.45380298  0.61983377  0.01559880  1  -0.039326  0  -0.00801  0.028387  0  3.978068  0
C  C38  1  0.45001399  0.54509385  0.08955803  1  -0.011481  0  -0.007997  0.028235  0  3.963979  0
C  C39  1  0.54998742  0.45489814  0.91044371  1  -0.011219  0  -0.00805  0.028129  0  3.96388  0
C  C40  1  0.39024392  0.58044889  0.18092291  1  -0.009985  0  -0.0095  0.070032  0  3.978994  0
C  C41  1  0.60975670  0.41954588  0.81907839  1  -0.010027  0  -0.009428  0.070102  0  3.979018  0
C  C42  1  0.44497001  0.54687471  0.26960138  1  -0.023967  0  -0.092183  -0.108422  0  3.949643  0
C  C43  1  0.55503006  0.45312653  0.73039998  1  -0.023073  0  -0.092233  -0.108487  0  3.949552  0
C  C44  1  0.38565852  0.57065567  0.35456111  1  -0.02305  0  -0.103529  -0.117027  0  4.004325  0
C  C45  1  0.61434356  0.42934650  0.64544126  1  -0.023092  0  -0.103464  -0.116928  0  4.004373  0
C  C46  1  0.26909786  0.62992471  0.35300637  1  -0.203478  0  -0.024298  0.034741  0  4.038936  0
C  C47  1  0.73090125  0.37007654  0.64699059  1  -0.203628  0  -0.024296  0.034654  0  4.038996  0
C  C48  1  0.21317991  0.66521676  0.26597823  1  -0.08608  0  -0.105295  -0.133146  0  4.014231  0
C  C49  1  0.78681877  0.33477801  0.73401860  1  -0.086324  0  -0.105268  -0.132965  0  4.014004  0
C  C50  1  0.27350790  0.64038039  0.18124370  1  0.028381  0  -0.088871  -0.108168  0  3.956962  0
C  C51  1  0.72648981  0.35961439  0.81875304  1  0.028923  0  -0.088876  -0.10829  0  3.957198  0
C  C52  1  0.04104035  0.70172023  0.43443120  1  -0.212714  0  -0.225561  -0.401905  0  3.85532  0
C  C53  1  0.95895676  0.29828009  0.56556691  1  -0.212836  0  -0.225517  -0.401867  0  3.85526  0
C  C54  1  0.57873480  0.24901207  0.96870921  1  -0.066035  0  -0.009542  0.062427  0  4.024106  0
C  C55  1  0.42126890  0.75098548  0.03129199  1  -0.066333  0  -0.009555  0.062412  0  4.024278  0
C  C56  1  0.50924621  0.16633020  0.89070321  1  0.051945  0  -0.09091  -0.106998  0  3.9661  0
C  C57  1  0.49075737  0.83366550  0.10929775  1  0.052083  0  -0.090932  -0.106997  0  3.966011  0
C  C58  1  0.53589975  0.04254027  0.87434856  1  -0.100734  0  -0.107089  -0.133421  0  4.025932  0
C  C59  1  0.46409907  0.95745634  0.12565426  1  -0.100826  0  -0.107087  -0.133393  0  4.025827  0
C  C60  1  0.63675034  0.00021348  0.93388839  1  -0.170687  0  -0.019685  0.032026  0  4.041544  0
C  C61  1  0.36325221  0.99978129  0.06611308  1  -0.170607  0  -0.019672  0.032041  0  4.04167  0
C  C62  1  0.70474812  0.08013331  0.01356549  1  0.010971  0  -0.09622  -0.114893  0  3.991514  0
C  C63  1  0.29525558  0.91986424  0.98643500  1  0.011045  0  -0.096225  -0.114851  0  3.991726  0
C  C64  1  0.67358476  0.20337524  0.03140885  1  -0.063003  0  -0.088463  -0.118689  0  3.958128  0
C  C65  1  0.32642076  0.79662046  0.96859012  1  -0.062996  0  -0.088424  -0.118678  0  3.958066  0
C  C66  1  0.81466329  0.82334779  0.97513172  1  -0.247151  0  -0.225312  -0.404776  0  3.879463  0
C  C67  1  0.18534260  0.17665345  0.02487086  1  -0.246871  0  -0.225355  -0.404885  0  3.879551  0
S  S68  1  0.20365686  0.65853895  0.46603098  1  0.04623  0  0.054187  0.10585  0  2.933897  0
S  S69  1  0.79634302  0.34147431  0.53396614  1  0.046563  0  0.054165  0.10585  0  2.933921  0
S  S70  1  0.67081856  0.84480111  0.89669857  1  0.060923  0  0.070421  0.118444  0  3.020722  0
S  S71  1  0.32918992  0.15519552  0.10330221  1  0.060795  0  0.070489  0.118537  0  3.020782  0
Br  Br72  1  0.21400033  0.90638477  0.70895131  1  -0.491071  0  -0.202289  -0.353032  0  1.246651  0
Br  Br73  1  0.78598560  0.09362201  0.29104737  1  -0.491128  0  -0.202276  -0.353012  0  1.24667  0
Br  Br74  1  0.46945262  0.90258118  0.36263327  1  -0.536593  0  -0.155619  -0.372984  0  1.472235  0
Br  Br75  1  0.53053351  0.09742836  0.63737513  1  -0.536562  0  -0.155617  -0.372954  0  1.472207  0
Br  Br76  1  0.15529061  0.05140365  0.46496489  1  -0.507462  0  -0.159309  -0.33943  0  1.427599  0
Br  Br77  1  0.84470580  0.94860034  0.53504657  1  -0.507328  0  -0.159273  -0.339356  0  1.427631  0
Br  Br78  1  0.06158754  0.93521932  0.17075782  1  -0.516399  0  -0.191972  -0.35004  0  1.210426  0
Br  Br79  1  0.93842058  0.06478654  0.82924626  1  -0.516481  0  -0.192007  -0.350087  0  1.210324  0
Br  Br80  1  0.52138857  0.72910695  0.61863467  1  -0.529567  0  -0.17683  -0.386003  0  1.386212  0
Br  Br81  1  0.47859697  0.27090813  0.38137797  1  -0.529558  0  -0.176785  -0.385932  0  1.386266  0
Br  Br82  1  0.10944897  0.29800949  0.28934807  1  -0.476888  0  -0.193773  -0.327723  0  1.145558  0
Br  Br83  1  0.89054850  0.70199638  0.71064430  1  -0.476836  0  -0.193788  -0.327757  0  1.145514  0
