# generated using pymatgen
data_ZnH5C4N9
_symmetry_space_group_name_H-M   'P 1'
_cell_length_a   7.39794763
_cell_length_b   7.78840264
_cell_length_c   14.19127629
_cell_angle_alpha   89.99990339
_cell_angle_beta   89.99995954
_cell_angle_gamma   95.13955884
_symmetry_Int_Tables_number   1
_chemical_formula_structural   ZnH5C4N9
_chemical_formula_sum   'Zn4 H20 C16 N36'
_cell_volume   814.38821900
_cell_formula_units_Z   4
loop_
 _symmetry_equiv_pos_site_id
 _symmetry_equiv_pos_as_xyz
  1  'x, y, z'
loop_
 _atom_site_type_symbol
 _atom_site_label
 _atom_site_symmetry_multiplicity
 _atom_site_fract_x
 _atom_site_fract_y
 _atom_site_fract_z
 _atom_site_occupancy
 _atom_site_hle17_bader_spin_density
 _atom_site_hle17_ddec_charge
 _atom_site_hle17_ddec_spin_density
 _atom_site_hle17_ddec_sum_bond_order
 _atom_site_hle17_magmom
 _atom_site_hse06_10hf_bader_spin_density
 _atom_site_hse06_10hf_ddec_charge
 _atom_site_hse06_10hf_ddec_spin_density
 _atom_site_hse06_10hf_ddec_sum_bond_order
 _atom_site_hse06_10hf_magmom
 _atom_site_hse06_bader_spin_density
 _atom_site_hse06_ddec_charge
 _atom_site_hse06_ddec_spin_density
 _atom_site_hse06_ddec_sum_bond_order
 _atom_site_hse06_magmom
 _atom_site_pbe_bader_spin_density
 _atom_site_pbe_cm5_charge
 _atom_site_pbe_ddec_charge
 _atom_site_pbe_ddec_spin_density
 _atom_site_pbe_ddec_sum_bond_order
 _atom_site_pbe_magmom
Zn  Zn0  1  0.83468827  0.49262827  0.42214417  1  0  0.918256  0  1.992407  0  0  0.749706  0  2.432928  0  0  0.787181  0  2.395366  0  0  0.714575  0.724022  0  2.458274  0
Zn  Zn1  1  0.66531217  0.00736965  0.92214456  1  0  0.918245  0  1.992413  0  0  0.749701  0  2.432935  0  0  0.787178  0  2.395373  0  0  0.71458  0.724023  0  2.45828  0
Zn  Zn2  1  0.16531274  0.50737041  0.57785544  1  0  0.91827  0  1.992393  0  0  0.749712  0  2.432913  0  0  0.787187  0  2.395352  0  0  0.71458  0.724031  0  2.458252  0
Zn  Zn3  1  0.33468761  0.99263033  0.07785505  1  0  0.918248  0  1.99242  0  0  0.749701  0  2.432945  0  0  0.787179  0  2.395383  0  0  0.71458  0.724022  0  2.458288  0
H  H4  1  0.53995026  0.90248177  0.27175798  1  0  0.102807  0  0.938946  0  0  0.105828  0  1.005909  0  0  0.10868  0  1.005037  0  0  0.120061  0.103775  0  1.006724  0
H  H5  1  0.96004931  0.59752086  0.77175888  1  0  0.102809  0  0.938936  0  0  0.10584  0  1.005886  0  0  0.108693  0  1.005015  0  0  0.120071  0.103793  0  1.0067  0
H  H6  1  0.46004843  0.09752078  0.72824092  1  0  0.102795  0  0.938953  0  0  0.105832  0  1.005893  0  0  0.108683  0  1.005025  0  0  0.120055  0.103782  0  1.006706  0
H  H7  1  0.03995048  0.40247912  0.22824143  1  0  0.102805  0  0.938937  0  0  0.10584  0  1.005883  0  0  0.108691  0  1.005013  0  0  0.120068  0.103788  0  1.0067  0
H  H8  1  0.47944064  0.35071690  0.11980786  1  0  0.086813  0  0.978413  0  0  0.091892  0  1.048182  0  0  0.095058  0  1.047198  0  0  0.111097  0.08966  0  1.04898  0
H  H9  1  0.02056004  0.14928593  0.61980817  1  0  0.086911  0  0.978334  0  0  0.091905  0  1.04819  0  0  0.095071  0  1.047207  0  0  0.111108  0.089674  0  1.048982  0
H  H10  1  0.52055940  0.64928566  0.88019246  1  0  0.086877  0  0.978366  0  0  0.091868  0  1.048219  0  0  0.095034  0  1.047235  0  0  0.111097  0.089641  0  1.049018  0
H  H11  1  0.97943975  0.85071405  0.38019215  1  0  0.086895  0  0.978341  0  0  0.091891  0  1.048197  0  0  0.095056  0  1.047215  0  0  0.111102  0.089661  0  1.048991  0
H  H12  1  0.65352318  0.52470534  0.24411299  1  0  0.08332  0  0.993549  0  0  0.085775  0  1.067395  0  0  0.088239  0  1.065462  0  0  0.112806  0.083987  0  1.068804  0
H  H13  1  0.84647607  0.97529352  0.74411287  1  0  0.083334  0  0.993514  0  0  0.085789  0  1.067371  0  0  0.088253  0  1.065439  0  0  0.11282  0.084006  0  1.068774  0
H  H14  1  0.34647661  0.47529464  0.75588733  1  0  0.083352  0  0.993519  0  0  0.085807  0  1.067372  0  0  0.088271  0  1.065439  0  0  0.112821  0.084021  0  1.06878  0
H  H15  1  0.15352360  0.02470517  0.25588745  1  0  0.08335  0  0.993522  0  0  0.085803  0  1.067375  0  0  0.088266  0  1.065443  0  0  0.112823  0.084015  0  1.068783  0
H  H16  1  0.78736397  0.13246969  0.46510948  1  0  0.333738  0  0.902973  0  0  0.314308  0  0.971322  0  0  0.321183  0  0.966149  0  0  0.305525  0.309459  0  0.974938  0
H  H17  1  0.71263517  0.36752939  0.96511022  1  0  0.333703  0  0.903012  0  0  0.314277  0  0.971359  0  0  0.321152  0  0.966186  0  0  0.3055  0.309428  0  0.97498  0
H  H18  1  0.21263581  0.86753029  0.53488943  1  0  0.333723  0  0.902973  0  0  0.314296  0  0.971317  0  0  0.321171  0  0.966144  0  0  0.305497  0.309448  0  0.974928  0
H  H19  1  0.28736584  0.63246930  0.03489010  1  0  0.333711  0  0.903009  0  0  0.314287  0  0.97135  0  0  0.321162  0  0.966176  0  0  0.305509  0.309439  0  0.974971  0
H  H20  1  0.69828783  0.92864028  0.42012585  1  0  0.327072  0  0.933943  0  0  0.306436  0  1.002928  0  0  0.31333  0  0.998414  0  0  0.296378  0.301584  0  1.006088  0
H  H21  1  0.80171260  0.57135930  0.92012613  1  0  0.327071  0  0.933934  0  0  0.306434  0  1.002923  0  0  0.313328  0  0.99841  0  0  0.296378  0.301583  0  1.006082  0
H  H22  1  0.30171196  0.07135970  0.57987306  1  0  0.327067  0  0.933952  0  0  0.30643  0  1.002942  0  0  0.313323  0  0.998429  0  0  0.296377  0.301575  0  1.006106  0
H  H23  1  0.19828719  0.42864068  0.07987419  1  0  0.327085  0  0.93393  0  0  0.30645  0  1.002919  0  0  0.313342  0  0.998408  0  0  0.296379  0.301597  0  1.00608  0
C  C24  1  0.66374941  0.13864316  0.33676727  1  0  0.459716  0  3.798836  0  0  0.43278  0  4.056328  0  0  0.450961  0  4.068904  0  0  0.242145  0.420532  0  4.047528  0
C  C25  1  0.83625093  0.36135246  0.83676797  1  0  0.459798  0  3.798951  0  0  0.432848  0  4.056451  0  0  0.451029  0  4.069025  0  0  0.2422  0.420602  0  4.047651  0
C  C26  1  0.33625136  0.86135295  0.66323164  1  0  0.459798  0  3.79896  0  0  0.43285  0  4.056455  0  0  0.45103  0  4.069031  0  0  0.242189  0.420605  0  4.047648  0
C  C27  1  0.16374886  0.63864752  0.16323164  1  0  0.459819  0  3.798888  0  0  0.432868  0  4.056388  0  0  0.451048  0  4.068962  0  0  0.242199  0.42062  0  4.047584  0
C  C28  1  0.56480792  0.04200683  0.26480270  1  0  -0.001209  0  3.588708  0  0  -0.031171  0  3.843405  0  0  -0.031386  0  3.857013  0  0  0.057036  -0.031285  0  3.834408  0
C  C29  1  0.93519291  0.45799289  0.76480398  1  0  -0.001172  0  3.588626  0  0  -0.031137  0  3.843306  0  0  -0.031351  0  3.856916  0  0  0.057053  -0.031258  0  3.834319  0
C  C30  1  0.43519187  0.95799315  0.73519621  1  0  -0.001155  0  3.588545  0  0  -0.031117  0  3.843243  0  0  -0.03133  0  3.856852  0  0  0.057078  -0.031237  0  3.834254  0
C  C31  1  0.06480688  0.54200709  0.23519634  1  0  -0.001157  0  3.588585  0  0  -0.031124  0  3.843265  0  0  -0.031338  0  3.856874  0  0  0.057058  -0.031243  0  3.834273  0
C  C32  1  0.53161162  0.29090661  0.18198692  1  0  0.021152  0  3.720985  0  0  -0.017655  0  3.99667  0  0  -0.02042  0  4.01647  0  0  0.014984  -0.016206  0  3.983685  0
C  C33  1  0.96838676  0.20909467  0.68198842  1  0  0.021117  0  3.720997  0  0  -0.017631  0  3.996695  0  0  -0.020397  0  4.016497  0  0  0.014982  -0.016177  0  3.983702  0
C  C34  1  0.46838816  0.70909337  0.81801269  1  0  0.021212  0  3.720979  0  0  -0.017507  0  3.99666  0  0  -0.020272  0  4.016462  0  0  0.015037  -0.016054  0  3.983678  0
C  C35  1  0.03161290  0.79090402  0.31801190  1  0  0.021165  0  3.720997  0  0  -0.017586  0  3.996694  0  0  -0.020352  0  4.016496  0  0  0.014999  -0.016135  0  3.983698  0
C  C36  1  0.62745713  0.38544901  0.25045709  1  0  0.100367  0  3.733357  0  0  0.067455  0  3.993529  0  0  0.073164  0  4.012166  0  0  0.040859  0.063653  0  3.981107  0
C  C37  1  0.87254396  0.11455333  0.75045731  1  0  0.10038  0  3.733364  0  0  0.067459  0  3.993519  0  0  0.073166  0  4.012158  0  0  0.040837  0.063655  0  3.981098  0
C  C38  1  0.37254425  0.61455355  0.74954252  1  0  0.10029  0  3.73347  0  0  0.067361  0  3.993622  0  0  0.073067  0  4.012263  0  0  0.040801  0.063557  0  3.981203  0
C  C39  1  0.12745582  0.88544665  0.24954301  1  0  0.100323  0  3.733415  0  0  0.067411  0  3.993555  0  0  0.073117  0  4.012194  0  0  0.040818  0.063613  0  3.981128  0
N  N40  1  0.96263251  0.66661850  0.52932118  1  0  -0.614078  0  2.843816  0  0  -0.566338  0  3.158416  0  0  -0.590949  0  3.162309  0  0  -0.318823  -0.549582  0  3.155598  0
N  N41  1  0.53736709  0.83338105  0.02932105  1  0  -0.614063  0  2.843797  0  0  -0.566348  0  3.158409  0  0  -0.59096  0  3.162301  0  0  -0.318828  -0.549586  0  3.155582  0
N  N42  1  0.03736863  0.33338148  0.47067914  1  0  -0.614083  0  2.843808  0  0  -0.566327  0  3.1584  0  0  -0.59094  0  3.162296  0  0  -0.318814  -0.549548  0  3.155533  0
N  N43  1  0.46263269  0.16661893  0.97067997  1  0  -0.614011  0  2.843795  0  0  -0.566293  0  3.158403  0  0  -0.590906  0  3.1623  0  0  -0.31882  -0.549528  0  3.155571  0
N  N44  1  0.85421747  0.72492324  0.58174775  1  0  0.400553  0  4.202859  0  0  0.42976  0  4.491089  0  0  0.445628  0  4.518842  0  0  0.08387  0.419098  0  4.472275  0
N  N45  1  0.64578204  0.77507614  0.08174763  1  0  0.400556  0  4.202911  0  0  0.42978  0  4.491129  0  0  0.445648  0  4.518881  0  0  0.08386  0.419122  0  4.472315  0
N  N46  1  0.14578231  0.27507674  0.41825257  1  0  0.400594  0  4.20282  0  0  0.429791  0  4.491051  0  0  0.445658  0  4.518806  0  0  0.083879  0.41913  0  4.472244  0
N  N47  1  0.35421775  0.22492384  0.91825269  1  0  0.400537  0  4.202864  0  0  0.429761  0  4.491082  0  0  0.445627  0  4.518838  0  0  0.083837  0.4191  0  4.472276  0
N  N48  1  0.74765867  0.78205207  0.62988083  1  0  -0.341619  0  2.419155  0  0  -0.346845  0  2.654654  0  0  -0.351982  0  2.666042  0  0  -0.175265  -0.343224  0  2.647125  0
N  N49  1  0.75234076  0.71794715  0.12988002  1  0  -0.341601  0  2.419199  0  0  -0.346832  0  2.654687  0  0  -0.351969  0  2.666077  0  0  -0.175234  -0.34321  0  2.647157  0
N  N50  1  0.25234112  0.21794791  0.37011878  1  0  -0.341646  0  2.419126  0  0  -0.34687  0  2.654626  0  0  -0.352006  0  2.666014  0  0  -0.175264  -0.34325  0  2.647099  0
N  N51  1  0.24765767  0.28205283  0.87011959  1  0  -0.341615  0  2.419128  0  0  -0.346851  0  2.654618  0  0  -0.351985  0  2.666005  0  0  -0.175218  -0.343227  0  2.647091  0
N  N52  1  0.63891233  0.68104524  0.40326351  1  0  -0.55111  0  2.681327  0  0  -0.524277  0  2.966042  0  0  -0.54294  0  2.973163  0  0  -0.276669  -0.511541  0  2.961153  0
N  N53  1  0.86108812  0.81895440  0.90326353  1  0  -0.551036  0  2.681473  0  0  -0.5242  0  2.966188  0  0  -0.54286  0  2.973305  0  0  -0.27661  -0.511481  0  2.96131  0
N  N54  1  0.36108733  0.31895345  0.59673681  1  0  -0.551039  0  2.681331  0  0  -0.524207  0  2.966046  0  0  -0.542862  0  2.97315  0  0  -0.276607  -0.511474  0  2.961148  0
N  N55  1  0.13891302  0.18104558  0.09673679  1  0  -0.551113  0  2.681285  0  0  -0.5243  0  2.966029  0  0  -0.542952  0  2.973129  0  0  -0.27667  -0.51157  0  2.961131  0
N  N56  1  0.48661612  0.65127068  0.43092773  1  0  0.412285  0  4.214918  0  0  0.444891  0  4.493828  0  0  0.461039  0  4.522109  0  0  0.089656  0.43411  0  4.474741  0
N  N57  1  0.01338230  0.84872893  0.93092715  1  0  0.412221  0  4.214904  0  0  0.44483  0  4.493798  0  0  0.460976  0  4.522078  0  0  0.089588  0.43406  0  4.474705  0
N  N58  1  0.51338501  0.34872930  0.56907259  1  0  0.412239  0  4.214877  0  0  0.444857  0  4.493749  0  0  0.461005  0  4.52203  0  0  0.089603  0.434084  0  4.474661  0
N  N59  1  0.98661614  0.15127105  0.06907246  1  0  0.412286  0  4.214775  0  0  0.444897  0  4.493674  0  0  0.461044  0  4.521956  0  0  0.089648  0.434125  0  4.474583  0
N  N60  1  0.33480898  0.62734631  0.45499185  1  0  -0.434144  0  2.614969  0  0  -0.420532  0  2.889969  0  0  -0.432741  0  2.899354  0  0  -0.220709  -0.412227  0  2.883809  0
N  N61  1  0.16519358  0.87265451  0.95499189  1  0  -0.434182  0  2.614803  0  0  -0.420545  0  2.889755  0  0  -0.432755  0  2.899141  0  0  -0.220705  -0.412238  0  2.883593  0
N  N62  1  0.66519363  0.37265495  0.54500777  1  0  -0.434179  0  2.614892  0  0  -0.420547  0  2.889846  0  0  -0.432757  0  2.899232  0  0  -0.220705  -0.412248  0  2.883691  0
N  N63  1  0.83480621  0.12734547  0.04500772  1  0  -0.43416  0  2.614872  0  0  -0.420524  0  2.88983  0  0  -0.432735  0  2.899217  0  0  -0.220696  -0.412218  0  2.883667  0
N  N64  1  0.69514297  0.31211176  0.32729798  1  0  -0.408128  0  3.214746  0  0  -0.334348  0  3.47971  0  0  -0.354503  0  3.494703  0  0  -0.326454  -0.320693  0  3.469359  0
N  N65  1  0.80485812  0.18789162  0.82729815  1  0  -0.408252  0  3.214956  0  0  -0.334445  0  3.479897  0  0  -0.354599  0  3.494889  0  0  -0.326504  -0.320792  0  3.46955  0
N  N66  1  0.30485853  0.68789208  0.67270233  1  0  -0.408211  0  3.214971  0  0  -0.334393  0  3.479891  0  0  -0.354547  0  3.494884  0  0  -0.326476  -0.320739  0  3.469541  0
N  N67  1  0.19514032  0.81210836  0.17270217  1  0  -0.408214  0  3.214967  0  0  -0.334393  0  3.479875  0  0  -0.354546  0  3.494865  0  0  -0.326465  -0.320741  0  3.469527  0
N  N68  1  0.50033573  0.11775120  0.19009974  1  0  -0.239273  0  3.329966  0  0  -0.17002  0  3.597693  0  0  -0.179165  0  3.61459  0  0  -0.302602  -0.163393  0  3.586097  0
N  N69  1  0.99966412  0.38225134  0.69010106  1  0  -0.239343  0  3.330064  0  0  -0.170066  0  3.597737  0  0  -0.17921  0  3.614632  0  0  -0.302603  -0.163441  0  3.586148  0
N  N70  1  0.49966566  0.88225136  0.80989917  1  0  -0.239364  0  3.329895  0  0  -0.170137  0  3.597637  0  0  -0.179281  0  3.614531  0  0  -0.302642  -0.163512  0  3.586052  0
N  N71  1  0.00033579  0.61774993  0.30989925  1  0  -0.239383  0  3.330056  0  0  -0.170116  0  3.597761  0  0  -0.179259  0  3.614656  0  0  -0.302635  -0.163487  0  3.58616  0
N  N72  1  0.72465407  0.05978414  0.41299370  1  0  -0.656526  0  3.135782  0  0  -0.617668  0  3.362475  0  0  -0.640402  0  3.363268  0  0  -0.568501  -0.601774  0  3.361513  0
N  N73  1  0.77534652  0.44021510  0.91299435  1  0  -0.65652  0  3.135831  0  0  -0.617669  0  3.362528  0  0  -0.640404  0  3.363322  0  0  -0.568489  -0.601769  0  3.361562  0
N  N74  1  0.27534842  0.94021584  0.58700591  1  0  -0.656535  0  3.135826  0  0  -0.617685  0  3.362525  0  0  -0.64042  0  3.363318  0  0  -0.568486  -0.601782  0  3.361552  0
N  N75  1  0.22465327  0.55978487  0.08700526  1  0  -0.656545  0  3.135799  0  0  -0.617703  0  3.362508  0  0  -0.640439  0  3.363302  0  0  -0.568506  -0.601808  0  3.361548  0
