# generated using pymatgen
data_Cd3H28C32(N3O7)2
_symmetry_space_group_name_H-M   'P 1'
_cell_length_a   7.89323062
_cell_length_b   8.73198941
_cell_length_c   14.19777585
_cell_angle_alpha   84.39507105
_cell_angle_beta   80.09079511
_cell_angle_gamma   72.47794925
_symmetry_Int_Tables_number   1
_chemical_formula_structural   Cd3H28C32(N3O7)2
_chemical_formula_sum   'Cd3 H28 C32 N6 O14'
_cell_volume   918.14065067
_cell_formula_units_Z   1
loop_
 _symmetry_equiv_pos_site_id
 _symmetry_equiv_pos_as_xyz
  1  'x, y, z'
loop_
 _atom_site_type_symbol
 _atom_site_label
 _atom_site_symmetry_multiplicity
 _atom_site_fract_x
 _atom_site_fract_y
 _atom_site_fract_z
 _atom_site_occupancy
 _atom_site_hle17_bader_spin_density
 _atom_site_hle17_ddec_charge
 _atom_site_hle17_ddec_spin_density
 _atom_site_hle17_ddec_sum_bond_order
 _atom_site_hle17_magmom
 _atom_site_hse06_10hf_bader_spin_density
 _atom_site_hse06_10hf_ddec_charge
 _atom_site_hse06_10hf_ddec_spin_density
 _atom_site_hse06_10hf_ddec_sum_bond_order
 _atom_site_hse06_10hf_magmom
 _atom_site_hse06_bader_spin_density
 _atom_site_hse06_ddec_charge
 _atom_site_hse06_ddec_spin_density
 _atom_site_hse06_ddec_sum_bond_order
 _atom_site_hse06_magmom
 _atom_site_pbe_bader_spin_density
 _atom_site_pbe_cm5_charge
 _atom_site_pbe_ddec_charge
 _atom_site_pbe_ddec_spin_density
 _atom_site_pbe_ddec_sum_bond_order
 _atom_site_pbe_magmom
Cd  Cd0  1  0.50000343  0.50000369  0.99999954  1  0  1.200793  0  1.554108  0  0  1.011162  0  1.989692  0  0  1.066713  0  1.935577  0  0  0.78936  0.971479  0  2.027043  0
Cd  Cd1  1  0.84095501  0.86249409  0.82292747  1  0  1.147182  0  1.645917  0  0  0.957953  0  2.091101  0  0  1.01835  0  2.035738  0  0  0.776984  0.915017  0  2.128968  0
Cd  Cd2  1  0.15904195  0.13750273  0.17707336  1  0  1.147151  0  1.645872  0  0  0.95795  0  2.091066  0  0  1.018344  0  2.035702  0  0  0.776976  0.91501  0  2.128933  0
H  H3  1  0.41484729  0.85699644  0.95468739  1  0  0.436491  0  0.860158  0  0  0.403981  0  0.926481  0  0  0.414987  0  0.910589  0  0  0.290543  0.396155  0  0.937769  0
H  H4  1  0.58516263  0.14301228  0.04531504  1  0  0.436547  0  0.860094  0  0  0.404061  0  0.926374  0  0  0.415065  0  0.910482  0  0  0.290618  0.396235  0  0.937662  0
H  H5  1  0.24664712  0.84055669  0.03023722  1  0  0.429325  0  0.875641  0  0  0.397015  0  0.94221  0  0  0.408059  0  0.92607  0  0  0.287592  0.389166  0  0.953665  0
H  H6  1  0.75336341  0.15944604  0.96976408  1  0  0.429303  0  0.875685  0  0  0.396972  0  0.942291  0  0  0.408014  0  0.926154  0  0  0.287578  0.389133  0  0.953738  0
H  H7  1  0.41005547  0.36089228  0.49201178  1  0  0.283605  0  0.869654  0  0  0.277892  0  0.913963  0  0  0.283732  0  0.910208  0  0  0.32576  0.273746  0  0.916723  0
H  H8  1  0.58993322  0.63910221  0.50798646  1  0  0.283589  0  0.869714  0  0  0.277876  0  0.914019  0  0  0.283717  0  0.910263  0  0  0.32576  0.273729  0  0.916776  0
H  H9  1  0.82767273  0.86046754  0.60063134  1  0  0.08727  0  0.929589  0  0  0.098169  0  0.988022  0  0  0.101019  0  0.984753  0  0  0.11839  0.096045  0  0.990412  0
H  H10  1  0.17233122  0.13953160  0.39937432  1  0  0.087315  0  0.929564  0  0  0.098205  0  0.987998  0  0  0.101054  0  0.984728  0  0  0.118387  0.096082  0  0.990386  0
H  H11  1  0.01072032  0.72431187  0.45666445  1  0  0.115293  0  0.970096  0  0  0.128324  0  1.022944  0  0  0.131695  0  1.022016  0  0  0.109362  0.125935  0  1.023774  0
H  H12  1  0.98927423  0.27568853  0.54334064  1  0  0.115253  0  0.97015  0  0  0.128317  0  1.022963  0  0  0.131688  0  1.022034  0  0  0.109364  0.125927  0  1.023794  0
H  H13  1  0.34388189  0.39520858  0.64651182  1  0  0.1136  0  0.965539  0  0  0.12431  0  1.025522  0  0  0.127581  0  1.024607  0  0  0.110507  0.121894  0  1.026449  0
H  H14  1  0.65611765  0.60478823  0.35348806  1  0  0.113593  0  0.965601  0  0  0.124302  0  1.025571  0  0  0.127573  0  1.024656  0  0  0.110494  0.121867  0  1.026524  0
H  H15  1  0.13850807  0.54111682  0.78310394  1  0  0.09978  0  0.936913  0  0  0.106867  0  1.001006  0  0  0.109503  0  0.998405  0  0  0.122998  0.104821  0  1.003029  0
H  H16  1  0.86149754  0.45888114  0.21689741  1  0  0.099855  0  0.936847  0  0  0.106949  0  1.000958  0  0  0.109586  0  0.998353  0  0  0.123022  0.104903  0  1.002984  0
H  H17  1  0.23084110  0.71086201  0.16992783  1  0  0.075197  0  0.981294  0  0  0.084312  0  1.045245  0  0  0.085778  0  1.044475  0  0  0.11553  0.083121  0  1.045928  0
H  H18  1  0.76914297  0.28913491  0.83007213  1  0  0.075202  0  0.981311  0  0  0.084277  0  1.045304  0  0  0.085768  0  1.044504  0  0  0.11554  0.08308  0  1.045989  0
H  H19  1  0.16784829  0.71941386  0.34336266  1  0  0.117558  0  0.968712  0  0  0.129873  0  1.022835  0  0  0.133252  0  1.021522  0  0  0.108784  0.127508  0  1.02387  0
H  H20  1  0.83212728  0.28058551  0.65663727  1  0  0.11757  0  0.96871  0  0  0.12987  0  1.022829  0  0  0.133248  0  1.021522  0  0  0.108803  0.127508  0  1.023859  0
H  H21  1  0.53860701  0.23729159  0.35533858  1  0  0.120257  0  0.930688  0  0  0.133584  0  0.982949  0  0  0.137363  0  0.981603  0  0  0.112543  0.130866  0  0.984128  0
H  H22  1  0.46139464  0.76271480  0.64466196  1  0  0.120249  0  0.93066  0  0  0.133595  0  0.982904  0  0  0.137373  0  0.981559  0  0  0.112556  0.130879  0  0.984078  0
H  H23  1  0.59914597  0.25823434  0.17972348  1  0  0.092896  0  0.963439  0  0  0.100128  0  1.028388  0  0  0.102121  0  1.026715  0  0  0.11856  0.098579  0  1.029728  0
H  H24  1  0.40085970  0.74177562  0.82027787  1  0  0.092868  0  0.963419  0  0  0.100111  0  1.028358  0  0  0.102105  0  1.026684  0  0  0.118542  0.098561  0  1.029701  0
H  H25  1  0.34941035  0.29590446  0.80422398  1  0  0.125107  0  0.950956  0  0  0.138961  0  1.009864  0  0  0.142072  0  1.008649  0  0  0.107041  0.136753  0  1.010795  0
H  H26  1  0.65059139  0.70409353  0.19577633  1  0  0.12502  0  0.950949  0  0  0.138863  0  1.009868  0  0  0.141976  0  1.008656  0  0  0.107037  0.136656  0  1.010795  0
H  H27  1  0.29599634  0.18287550  0.72040336  1  0  0.103837  0  0.942349  0  0  0.115843  0  1.004307  0  0  0.119146  0  1.0014  0  0  0.095841  0.113547  0  1.006406  0
H  H28  1  0.70400090  0.81712855  0.27959210  1  0  0.103678  0  0.942336  0  0  0.115667  0  1.004344  0  0  0.118972  0  1.001439  0  0  0.095786  0.113371  0  1.00644  0
H  H29  1  0.98394117  0.22533628  0.99023443  1  0  0.121873  0  0.967249  0  0  0.128094  0  1.0347  0  0  0.132238  0  1.03177  0  0  0.106927  0.125147  0  1.036931  0
H  H30  1  0.01606931  0.77465446  0.00976616  1  0  0.122004  0  0.967152  0  0  0.128192  0  1.034664  0  0  0.132339  0  1.031728  0  0  0.10698  0.125244  0  1.036898  0
C  C31  1  0.94389451  0.75579592  0.60704153  1  0  0.145075  0  3.745654  0  0  0.111902  0  4.000267  0  0  0.122349  0  4.017917  0  0  0.045198  0.105204  0  3.988061  0
C  C32  1  0.05610672  0.24419964  0.39296320  1  0  0.145053  0  3.745631  0  0  0.11188  0  4.000225  0  0  0.122326  0  4.017875  0  0  0.045182  0.105183  0  3.98802  0
C  C33  1  0.04923827  0.68017286  0.52625337  1  0  -0.234929  0  3.712969  0  0  -0.252143  0  3.964896  0  0  -0.263116  0  3.984497  0  0  -0.102301  -0.245101  0  3.951729  0
C  C34  1  0.95076514  0.31982392  0.47374756  1  0  -0.234985  0  3.71297  0  0  -0.252219  0  3.964894  0  0  -0.263192  0  3.984497  0  0  -0.102335  -0.245176  0  3.95173  0
C  C35  1  0.19974200  0.54740188  0.53827459  1  0  0.292264  0  3.823191  0  0  0.278716  0  4.08098  0  0  0.293758  0  4.098546  0  0  0.11259  0.26886  0  4.068755  0
C  C36  1  0.80025754  0.45259493  0.46172529  1  0  0.292351  0  3.823134  0  0  0.278786  0  4.080956  0  0  0.293827  0  4.098525  0  0  0.112553  0.268927  0  4.068726  0
C  C37  1  0.22953927  0.49719497  0.63304380  1  0  -0.24096  0  3.73215  0  0  -0.25959  0  3.988944  0  0  -0.271117  0  4.010132  0  0  -0.098085  -0.252168  0  3.974829  0
C  C38  1  0.77046300  0.50280542  0.36695561  1  0  -0.240976  0  3.732199  0  0  -0.259571  0  3.989002  0  0  -0.271098  0  4.01019  0  0  -0.098071  -0.252138  0  3.974897  0
C  C39  1  0.11628402  0.57804040  0.70932349  1  0  0.157795  0  3.702546  0  0  0.126588  0  3.953372  0  0  0.136392  0  3.971897  0  0  0.051654  0.120323  0  3.940668  0
C  C40  1  0.88372159  0.42195757  0.29067715  1  0  0.157696  0  3.70248  0  0  0.126412  0  3.953376  0  0  0.136216  0  3.971901  0  0  0.051575  0.120147  0  3.940672  0
C  C41  1  0.29526756  0.60655844  0.21321012  1  0  0.161058  0  3.710381  0  0  0.129293  0  3.962172  0  0  0.13825  0  3.981066  0  0  0.051474  0.123566  0  3.949258  0
C  C42  1  0.70472295  0.39343844  0.78678851  1  0  0.161123  0  3.71037  0  0  0.129374  0  3.962137  0  0  0.138315  0  3.981022  0  0  0.051499  0.123654  0  3.949226  0
C  C43  1  0.25603111  0.60932838  0.31249977  1  0  -0.22742  0  3.694274  0  0  -0.245496  0  3.947612  0  0  -0.25608  0  3.967721  0  0  -0.100124  -0.238679  0  3.934122  0
C  C44  1  0.74395039  0.39066854  0.68750115  1  0  -0.227495  0  3.694306  0  0  -0.245525  0  3.947667  0  0  -0.25611  0  3.967781  0  0  -0.100158  -0.238708  0  3.934178  0
C  C45  1  0.34091211  0.47426754  0.36728509  1  0  0.280909  0  3.828812  0  0  0.266566  0  4.08989  0  0  0.280097  0  4.108898  0  0  0.107488  0.25773  0  4.076666  0
C  C46  1  0.65907469  0.52573294  0.63271722  1  0  0.281026  0  3.82851  0  0  0.266632  0  4.089677  0  0  0.280167  0  4.108677  0  0  0.107519  0.257788  0  4.07646  0
C  C47  1  0.46454824  0.34485427  0.31748897  1  0  -0.233475  0  3.724988  0  0  -0.253158  0  3.986999  0  0  -0.264164  0  4.00805  0  0  -0.094929  -0.246009  0  3.972827  0
C  C48  1  0.53544811  0.65514855  0.68251298  1  0  -0.233558  0  3.724806  0  0  -0.253264  0  3.986868  0  0  -0.264271  0  4.007915  0  0  -0.09499  -0.246115  0  3.972698  0
C  C49  1  0.49835137  0.35488011  0.21854687  1  0  0.153874  0  3.69903  0  0  0.120901  0  3.953944  0  0  0.12972  0  3.97239  0  0  0.04709  0.115226  0  3.941325  0
C  C50  1  0.50165286  0.64512626  0.78145342  1  0  0.154018  0  3.698829  0  0  0.121053  0  3.953716  0  0  0.129872  0  3.972159  0  0  0.047154  0.115378  0  3.941096  0
C  C51  1  0.50362159  0.05515495  0.79928041  1  0  0.705925  0  3.845442  0  0  0.659498  0  4.142856  0  0  0.692993  0  4.137584  0  0  0.198523  0.636721  0  4.145535  0
C  C52  1  0.49637897  0.94484670  0.20071275  1  0  0.706087  0  3.845426  0  0  0.659651  0  4.142846  0  0  0.693147  0  4.137577  0  0  0.198601  0.636873  0  4.145527  0
C  C53  1  0.32474973  0.18174372  0.79334194  1  0  -0.300904  0  3.736698  0  0  -0.339593  0  3.97067  0  0  -0.346069  0  3.978558  0  0  -0.168369  -0.335112  0  3.965293  0
C  C54  1  0.67525638  0.81825669  0.20665147  1  0  -0.30057  0  3.7365  0  0  -0.339238  0  3.970476  0  0  -0.345728  0  3.97839  0  0  -0.168316  -0.334751  0  3.965084  0
C  C55  1  0.16553031  0.16545516  0.86354845  1  0  0.028807  0  3.67259  0  0  0.044061  0  3.917522  0  0  0.040809  0  3.937466  0  0  -0.009062  0.046046  0  3.904232  0
C  C56  1  0.83447519  0.83455122  0.13644890  1  0  0.028711  0  3.67299  0  0  0.043999  0  3.917864  0  0  0.040743  0  3.937807  0  0  -0.009035  0.045985  0  3.904576  0
C  C57  1  0.07364414  0.05025849  0.83890715  1  0  0.621135  0  3.912758  0  0  0.573776  0  4.202004  0  0  0.607217  0  4.196324  0  0  0.196043  0.551051  0  4.205103  0
C  C58  1  0.92636078  0.94973352  0.16108827  1  0  0.62137  0  3.912521  0  0  0.574  0  4.20182  0  0  0.607456  0  4.196118  0  0  0.196069  0.551272  0  4.204923  0
C  C59  1  0.10149054  0.24629884  0.94455136  1  0  -0.210285  0  3.579363  0  0  -0.240601  0  3.837743  0  0  -0.244449  0  3.848908  0  0  -0.083988  -0.238225  0  3.830504  0
C  C60  1  0.89851559  0.75370152  0.05544909  1  0  -0.21044  0  3.579225  0  0  -0.240733  0  3.837625  0  0  -0.244579  0  3.848791  0  0  -0.084043  -0.23836  0  3.830393  0
C  C61  1  0.18391974  0.35263930  0.98569229  1  0  0.707586  0  3.883369  0  0  0.66206  0  4.171302  0  0  0.698006  0  4.162037  0  0  0.204064  0.637498  0  4.176844  0
C  C62  1  0.81608094  0.64735391  0.01430769  1  0  0.707705  0  3.883012  0  0  0.662086  0  4.1711  0  0  0.698031  0  4.161834  0  0  0.204004  0.637524  0  4.176644  0
N  N63  1  0.97550214  0.70769630  0.69681172  1  0  -0.357287  0  3.295287  0  0  -0.276505  0  3.564595  0  0  -0.300409  0  3.583614  0  0  -0.34387  -0.260365  0  3.551285  0
N  N64  1  0.02450219  0.29230165  0.30319257  1  0  -0.357218  0  3.295176  0  0  -0.276385  0  3.564468  0  0  -0.300282  0  3.583478  0  0  -0.343736  -0.260243  0  3.551155  0
N  N65  1  0.32022776  0.45954764  0.46668789  1  0  -0.395762  0  3.38641  0  0  -0.342858  0  3.627178  0  0  -0.362622  0  3.637404  0  0  -0.396813  -0.329185  0  3.619548  0
N  N66  1  0.67976366  0.54045043  0.53331129  1  0  -0.395834  0  3.386382  0  0  -0.342902  0  3.627165  0  0  -0.36267  0  3.637395  0  0  -0.3968  -0.329214  0  3.619522  0
N  N67  1  0.41331203  0.48325320  0.16611444  1  0  -0.335213  0  3.240368  0  0  -0.257614  0  3.502909  0  0  -0.278977  0  3.520497  0  0  -0.328441  -0.243112  0  3.490628  0
N  N68  1  0.58668599  0.51674842  0.83388531  1  0  -0.335335  0  3.240281  0  0  -0.257723  0  3.502804  0  0  -0.279086  0  3.520399  0  0  -0.328479  -0.243219  0  3.49052  0
O  O69  1  0.53154123  0.97260979  0.87770183  1  0  -0.657579  0  1.992242  0  0  -0.580297  0  2.222968  0  0  -0.611117  0  2.213816  0  0  -0.322716  -0.558723  0  2.228597  0
O  O70  1  0.46846297  0.02739662  0.12229353  1  0  -0.657644  0  1.992252  0  0  -0.580365  0  2.222953  0  0  -0.611179  0  2.213803  0  0  -0.322692  -0.558792  0  2.228583  0
O  O71  1  0.62574072  0.04323130  0.72672484  1  0  -0.67305  0  1.885746  0  0  -0.622363  0  2.122886  0  0  -0.649384  0  2.111874  0  0  -0.356061  -0.60328  0  2.129714  0
O  O72  1  0.37425644  0.95676078  0.27326780  1  0  -0.673195  0  1.885738  0  0  -0.6225  0  2.122871  0  0  -0.649523  0  2.11186  0  0  -0.356161  -0.603416  0  2.129699  0
O  O73  1  0.92168003  0.04653495  0.89063854  1  0  -0.678729  0  2.094268  0  0  -0.595709  0  2.339345  0  0  -0.628202  0  2.328872  0  0  -0.330115  -0.572968  0  2.345866  0
O  O74  1  0.07831670  0.95346668  0.10936134  1  0  -0.678643  0  2.094123  0  0  -0.595751  0  2.33934  0  0  -0.628242  0  2.328853  0  0  -0.330129  -0.573001  0  2.345855  0
O  O75  1  0.14310290  0.96236926  0.76903609  1  0  -0.614245  0  1.881851  0  0  -0.565308  0  2.098011  0  0  -0.588712  0  2.08895  0  0  -0.330014  -0.548855  0  2.103704  0
O  O76  1  0.85690799  0.03763231  0.23095891  1  0  -0.614505  0  1.881494  0  0  -0.565507  0  2.097617  0  0  -0.588918  0  2.088548  0  0  -0.330092  -0.549053  0  2.103314  0
O  O77  1  0.26857632  0.43889951  0.93216729  1  0  -0.635611  0  1.970735  0  0  -0.571163  0  2.207844  0  0  -0.600478  0  2.198401  0  0  -0.31554  -0.550416  0  2.213616  0
O  O78  1  0.73142824  0.56109365  0.06783514  1  0  -0.63564  0  1.970667  0  0  -0.571164  0  2.207844  0  0  -0.600478  0  2.198403  0  0  -0.315479  -0.550418  0  2.213618  0
O  O79  1  0.16296271  0.35137968  0.07731263  1  0  -0.668112  0  2.010779  0  0  -0.601745  0  2.27173  0  0  -0.633339  0  2.260326  0  0  -0.339436  -0.57925  0  2.278552  0
O  O80  1  0.83703683  0.64861712  0.92268796  1  0  -0.668144  0  2.01076  0  0  -0.601736  0  2.271749  0  0  -0.63333  0  2.260344  0  0  -0.339403  -0.579248  0  2.278594  0
O  O81  1  0.35011236  0.77929525  0.98531590  1  0  -0.860552  0  1.834611  0  0  -0.800079  0  2.036532  0  0  -0.821588  0  2.001079  0  0  -0.596298  -0.784796  0  2.061321  0
O  O82  1  0.64990554  0.22070860  0.01468956  1  0  -0.860533  0  1.83457  0  0  -0.800102  0  2.036508  0  0  -0.821613  0  2.001078  0  0  -0.596363  -0.78483  0  2.061274  0
