# generated using pymatgen
data_ErPH11C9SNO9
_symmetry_space_group_name_H-M   'P 1'
_cell_length_a   6.72305805
_cell_length_b   7.48505150
_cell_length_c   13.31453266
_cell_angle_alpha   90.62448354
_cell_angle_beta   93.13140740
_cell_angle_gamma   102.10319423
_symmetry_Int_Tables_number   1
_chemical_formula_structural   ErPH11C9SNO9
_chemical_formula_sum   'Er2 P2 H22 C18 S2 N2 O18'
_cell_volume   653.97656032
_cell_formula_units_Z   2
loop_
 _symmetry_equiv_pos_site_id
 _symmetry_equiv_pos_as_xyz
  1  'x, y, z'
loop_
 _atom_site_type_symbol
 _atom_site_label
 _atom_site_symmetry_multiplicity
 _atom_site_fract_x
 _atom_site_fract_y
 _atom_site_fract_z
 _atom_site_occupancy
 _atom_site_hle17_bader_spin_density
 _atom_site_hle17_ddec_charge
 _atom_site_hle17_ddec_spin_density
 _atom_site_hle17_ddec_sum_bond_order
 _atom_site_hle17_magmom
 _atom_site_hse06_10hf_bader_spin_density
 _atom_site_hse06_10hf_ddec_charge
 _atom_site_hse06_10hf_ddec_spin_density
 _atom_site_hse06_10hf_ddec_sum_bond_order
 _atom_site_hse06_10hf_magmom
 _atom_site_hse06_bader_spin_density
 _atom_site_hse06_ddec_charge
 _atom_site_hse06_ddec_spin_density
 _atom_site_hse06_ddec_sum_bond_order
 _atom_site_hse06_magmom
 _atom_site_pbe_bader_spin_density
 _atom_site_pbe_cm5_charge
 _atom_site_pbe_ddec_charge
 _atom_site_pbe_ddec_spin_density
 _atom_site_pbe_ddec_sum_bond_order
 _atom_site_pbe_magmom
Er  Er0  1  0.28499944  0.76830144  0.45588339  1  0  2.365442  0  1.563448  0  0  2.30993  0  1.870903  0  0  2.351628  0  1.833391  0  0  1.538157  2.20096  0  2.041449  0
Er  Er1  1  0.71499715  0.23170476  0.54411818  1  0  2.365533  0  1.563418  0  0  2.310039  0  1.870879  0  0  2.35174  0  1.833357  0  0  1.538185  2.201109  0  2.041373  0
P  P2  1  0.25099760  0.38353184  0.61960683  1  0  1.542739  0  4.912702  0  0  1.379374  0  5.423085  0  0  1.431943  0  5.377812  0  0  0.379725  1.340345  0  5.447229  0
P  P3  1  0.74900080  0.61647572  0.38039180  1  0  1.54277  0  4.91275  0  0  1.379455  0  5.423006  0  0  1.432033  0  5.377722  0  0  0.379743  1.340409  0  5.447177  0
H  H4  1  0.16245951  0.10221281  0.77406622  1  0  0.132348  0  0.932737  0  0  0.143186  0  0.986252  0  0  0.147009  0  0.984602  0  0  0.12357  0.140102  0  0.988314  0
H  H5  1  0.83754426  0.89777968  0.22592647  1  0  0.132385  0  0.932801  0  0  0.143122  0  0.986429  0  0  0.14695  0  0.984766  0  0  0.123529  0.139998  0  0.988549  0
H  H6  1  0.16291459  0.12213712  0.96141431  1  0  0.096154  0  0.929404  0  0  0.110707  0  0.985863  0  0  0.113016  0  0.984209  0  0  0.112896  0.108933  0  0.987136  0
H  H7  1  0.83707741  0.87786224  0.03857883  1  0  0.096128  0  0.929427  0  0  0.110653  0  0.985933  0  0  0.112967  0  0.984273  0  0  0.112897  0.108926  0  0.987145  0
H  H8  1  0.21061071  0.31847935  0.12028744  1  0  0.115265  0  0.956905  0  0  0.1231  0  1.019704  0  0  0.126645  0  1.017218  0  0  0.105032  0.120477  0  1.021583  0
H  H9  1  0.78938334  0.68150360  0.87970718  1  0  0.115263  0  0.956987  0  0  0.12306  0  1.019846  0  0  0.126607  0  1.017356  0  0  0.105038  0.120433  0  1.021729  0
H  H10  1  0.27187082  0.62876901  0.19863833  1  0  0.122669  0  0.954357  0  0  0.131394  0  1.014936  0  0  0.134823  0  1.013271  0  0  0.113158  0.128807  0  1.016189  0
H  H11  1  0.72812953  0.37120300  0.80136542  1  0  0.122657  0  0.954345  0  0  0.13133  0  1.014992  0  0  0.134724  0  1.013375  0  0  0.113151  0.128754  0  1.016216  0
H  H12  1  0.33233751  0.90173388  0.09465433  1  0  0.095629  0  0.949807  0  0  0.106301  0  1.010545  0  0  0.109115  0  1.008792  0  0  0.104414  0.104052  0  1.012203  0
H  H13  1  0.66767120  0.09825454  0.90535876  1  0  0.095592  0  0.949971  0  0  0.106253  0  1.010696  0  0  0.109055  0  1.00895  0  0  0.10445  0.10401  0  1.012349  0
H  H14  1  0.33900256  0.87203317  0.90622743  1  0  0.120378  0  0.969416  0  0  0.128009  0  1.032966  0  0  0.131357  0  1.031723  0  0  0.108554  0.125594  0  1.033882  0
H  H15  1  0.66099930  0.12797031  0.09378479  1  0  0.120409  0  0.969428  0  0  0.128021  0  1.033014  0  0  0.13136  0  1.031787  0  0  0.108546  0.125606  0  1.033933  0
H  H16  1  0.31363536  0.67741452  0.76538515  1  0  0.315542  0  0.90525  0  0  0.291198  0  0.971191  0  0  0.300734  0  0.963641  0  0  0.317148  0.284261  0  0.977096  0
H  H17  1  0.68636420  0.32259167  0.23461575  1  0  0.315496  0  0.905338  0  0  0.291171  0  0.971264  0  0  0.300694  0  0.963711  0  0  0.31719  0.284239  0  0.97716  0
H  H18  1  0.02325606  0.41911497  0.38625162  1  0  0.432402  0  0.865267  0  0  0.403199  0  0.929019  0  0  0.413305  0  0.913899  0  0  0.309674  0.396202  0  0.938913  0
H  H19  1  0.97674248  0.58089942  0.61374554  1  0  0.432515  0  0.865303  0  0  0.403267  0  0.928995  0  0  0.413369  0  0.913888  0  0  0.309698  0.396271  0  0.938891  0
H  H20  1  0.23091534  0.39296069  0.34448941  1  0  0.461772  0  0.82462  0  0  0.434352  0  0.880128  0  0  0.444628  0  0.865126  0  0  0.307728  0.426453  0  0.891629  0
H  H21  1  0.76908651  0.60705506  0.65550785  1  0  0.46167  0  0.824745  0  0  0.434257  0  0.880235  0  0  0.444538  0  0.865228  0  0  0.307722  0.426353  0  0.891741  0
H  H22  1  0.23110388  0.91910208  0.64557890  1  0  0.419748  0  0.892381  0  0  0.390208  0  0.954933  0  0  0.400442  0  0.939783  0  0  0.296234  0.382934  0  0.96545  0
H  H23  1  0.76889435  0.08091093  0.35441374  1  0  0.419764  0  0.892377  0  0  0.390248  0  0.954885  0  0  0.400481  0  0.939737  0  0  0.296248  0.382978  0  0.965399  0
H  H24  1  0.10738756  0.03482220  0.57646010  1  0  0.446933  0  0.849785  0  0  0.420209  0  0.906287  0  0  0.430594  0  0.891133  0  0  0.30759  0.412561  0  0.917078  0
H  H25  1  0.89262141  0.96519215  0.42353360  1  0  0.447016  0  0.849664  0  0  0.420273  0  0.906208  0  0  0.430659  0  0.891051  0  0  0.307608  0.412624  0  0.917001  0
C  C26  1  0.23875293  0.39399410  0.75740591  1  0  0.021084  0  3.545223  0  0  0.026926  0  3.799852  0  0  0.033975  0  3.810734  0  0  0.150207  0.021725  0  3.794938  0
C  C27  1  0.76124915  0.60600387  0.24259277  1  0  0.021069  0  3.545408  0  0  0.026937  0  3.800006  0  0  0.033985  0  3.810892  0  0  0.150227  0.021737  0  3.795085  0
C  C28  1  0.19448717  0.23354832  0.81365968  1  0  -0.06993  0  3.673751  0  0  -0.092663  0  3.930424  0  0  -0.099936  0  3.948867  0  0  -0.06108  -0.088541  0  3.919636  0
C  C29  1  0.80551128  0.76644694  0.18634113  1  0  -0.069891  0  3.673778  0  0  -0.092563  0  3.93044  0  0  -0.099834  0  3.948888  0  0  -0.061019  -0.088419  0  3.919679  0
C  C30  1  0.19428379  0.24559177  0.91697005  1  0  -0.021473  0  3.669076  0  0  -0.048954  0  3.921172  0  0  -0.043007  0  3.9369  0  0  -0.048896  -0.05249  0  3.910609  0
C  C31  1  0.80571514  0.75441167  0.08302406  1  0  -0.021408  0  3.668733  0  0  -0.048935  0  3.920758  0  0  -0.042994  0  3.936483  0  0  -0.048907  -0.0525  0  3.910173  0
C  C32  1  0.23351434  0.41754127  0.96757695  1  0  0.005094  0  3.81513  0  0  0.024542  0  4.041266  0  0  0.019955  0  4.067037  0  0  0.000446  0.027278  0  4.024068  0
C  C33  1  0.76649025  0.58244849  0.03242251  1  0  0.004812  0  3.815167  0  0  0.024572  0  4.04098  0  0  0.01997  0  4.066767  0  0  0.000459  0.027319  0  4.023806  0
C  C34  1  0.23539273  0.43893394  0.07348351  1  0  -0.100173  0  3.709949  0  0  -0.123886  0  3.965938  0  0  -0.125353  0  3.987092  0  0  -0.083641  -0.122563  0  3.951784  0
C  C35  1  0.76460558  0.56105447  0.92651577  1  0  -0.100208  0  3.709891  0  0  -0.123995  0  3.965842  0  0  -0.125459  0  3.986986  0  0  -0.083648  -0.12267  0  3.951685  0
C  C36  1  0.27144369  0.61107391  0.11744826  1  0  -0.04807  0  3.696325  0  0  -0.068178  0  3.955089  0  0  -0.072141  0  3.977729  0  0  -0.081488  -0.065894  0  3.940815  0
C  C37  1  0.72855894  0.38890767  0.88255636  1  0  -0.047951  0  3.696067  0  0  -0.068005  0  3.954828  0  0  -0.071946  0  3.977482  0  0  -0.08151  -0.065719  0  3.940561  0
C  C38  1  0.30648672  0.76789882  0.05729091  1  0  -0.030181  0  3.743  0  0  -0.047907  0  4.000111  0  0  -0.047296  0  4.021509  0  0  -0.078299  -0.048074  0  3.985978  0
C  C39  1  0.69350912  0.23208552  0.94271428  1  0  -0.030311  0  3.743069  0  0  -0.048022  0  4.000184  0  0  -0.047394  0  4.021554  0  0  -0.0784  -0.0482  0  3.986064  0
C  C40  1  0.30878650  0.75314415  0.95387896  1  0  -0.179339  0  3.718658  0  0  -0.19969  0  3.973544  0  0  -0.206345  0  3.994694  0  0  -0.093022  -0.195239  0  3.959193  0
C  C41  1  0.69121873  0.24684837  0.04612955  1  0  -0.179382  0  3.71855  0  0  -0.199699  0  3.973502  0  0  -0.206356  0  3.994646  0  0  -0.093006  -0.195234  0  3.95917  0
C  C42  1  0.27257965  0.57719940  0.90828849  1  0  0.216859  0  3.721645  0  0  0.208915  0  3.955913  0  0  0.215982  0  3.977658  0  0  0.125106  0.204264  0  3.941393  0
C  C43  1  0.72741964  0.42279312  0.09171309  1  0  0.2172  0  3.721469  0  0  0.209054  0  3.955879  0  0  0.216143  0  3.977592  0  0  0.125154  0.204354  0  3.941424  0
S  S44  1  0.39357679  0.07804301  0.31000015  1  0  1.585238  0  5.84095  0  0  1.459065  0  6.400753  0  0  1.515182  0  6.361591  0  0  0.558376  1.420502  0  6.415889  0
S  S45  1  0.60641668  0.92195637  0.69000280  1  0  1.585344  0  5.840643  0  0  1.459159  0  6.400466  0  0  1.515288  0  6.361291  0  0  0.558456  1.420596  0  6.415604  0
N  N46  1  0.27437235  0.55618943  0.80577159  1  0  -0.234144  0  3.439692  0  0  -0.169905  0  3.650338  0  0  -0.185158  0  3.666279  0  0  -0.325964  -0.160355  0  3.640965  0
N  N47  1  0.72563219  0.44381264  0.19422869  1  0  -0.234163  0  3.43975  0  0  -0.16992  0  3.6505  0  0  -0.185169  0  3.666437  0  0  -0.326032  -0.160351  0  3.641142  0
O  O48  1  0.25003592  0.57859647  0.58669162  1  0  -0.968185  0  2.0532  0  0  -0.902705  0  2.326386  0  0  -0.927547  0  2.303246  0  0  -0.461435  -0.872368  0  2.343836  0
O  O49  1  0.74996003  0.42140698  0.41330541  1  0  -0.968182  0  2.053226  0  0  -0.902742  0  2.326437  0  0  -0.927588  0  2.303288  0  0  -0.46143  -0.872405  0  2.343883  0
O  O50  1  0.44372343  0.31630738  0.60241888  1  0  -0.939856  0  2.002212  0  0  -0.880052  0  2.282603  0  0  -0.906814  0  2.261143  0  0  -0.460775  -0.847885  0  2.301596  0
O  O51  1  0.55627102  0.68369609  0.39758111  1  0  -0.939837  0  2.002204  0  0  -0.880017  0  2.282546  0  0  -0.90678  0  2.261088  0  0  -0.46078  -0.847837  0  2.301535  0
O  O52  1  0.05690802  0.24698318  0.58353438  1  0  -0.942904  0  2.054669  0  0  -0.86792  0  2.310835  0  0  -0.895991  0  2.291708  0  0  -0.436405  -0.836875  0  2.326495  0
O  O53  1  0.94308792  0.75302028  0.41646415  1  0  -0.942926  0  2.054705  0  0  -0.867937  0  2.310877  0  0  -0.896011  0  2.291746  0  0  -0.436378  -0.83688  0  2.326538  0
O  O54  1  0.26611435  0.89250085  0.28890947  1  0  -0.787714  0  1.99338  0  0  -0.750764  0  2.268476  0  0  -0.772246  0  2.252912  0  0  -0.398979  -0.72626  0  2.277896  0
O  O55  1  0.73386515  0.10751498  0.71109392  1  0  -0.787804  0  1.993299  0  0  -0.750815  0  2.268323  0  0  -0.7723  0  2.252783  0  0  -0.399  -0.726313  0  2.277751  0
O  O56  1  0.43140224  0.08482602  0.42377758  1  0  -0.919689  0  2.107701  0  0  -0.878682  0  2.38925  0  0  -0.90011  0  2.370853  0  0  -0.45259  -0.844321  0  2.398897  0
O  O57  1  0.56860425  0.91518426  0.57622354  1  0  -0.919786  0  2.107679  0  0  -0.87878  0  2.389214  0  0  -0.900194  0  2.370801  0  0  -0.452634  -0.84442  0  2.398868  0
O  O58  1  0.29279021  0.22379175  0.27535653  1  0  -0.687624  0  1.940026  0  0  -0.627843  0  2.173988  0  0  -0.648719  0  2.155943  0  0  -0.338132  -0.614425  0  2.187484  0
O  O59  1  0.70722618  0.77622262  0.72465090  1  0  -0.687578  0  1.939948  0  0  -0.627779  0  2.173873  0  0  -0.64867  0  2.155835  0  0  -0.338142  -0.614359  0  2.187371  0
O  O60  1  0.59343815  0.09730500  0.26198705  1  0  -0.72997  0  1.986202  0  0  -0.665161  0  2.224305  0  0  -0.687908  0  2.208216  0  0  -0.343437  -0.649851  0  2.235394  0
O  O61  1  0.40655286  0.90269028  0.73801355  1  0  -0.729985  0  1.98623  0  0  -0.665154  0  2.224286  0  0  -0.687926  0  2.208214  0  0  -0.343425  -0.649845  0  2.235381  0
O  O62  1  0.15966364  0.48624670  0.37027341  1  0  -0.929415  0  1.879058  0  0  -0.893645  0  2.075433  0  0  -0.911344  0  2.043518  0  0  -0.640596  -0.870081  0  2.102782  0
O  O63  1  0.84033607  0.51376632  0.62972227  1  0  -0.929419  0  1.879135  0  0  -0.893646  0  2.075396  0  0  -0.91133  0  2.043442  0  0  -0.640622  -0.870105  0  2.102782  0
O  O64  1  0.14162164  0.91197135  0.58313542  1  0  -0.906663  0  1.88196  0  0  -0.872694  0  2.074786  0  0  -0.890446  0  2.043659  0  0  -0.653307  -0.850273  0  2.101213  0
O  O65  1  0.85837892  0.08803892  0.41685803  1  0  -0.90676  0  1.88181  0  0  -0.87283  0  2.074644  0  0  -0.890587  0  2.043525  0  0  -0.653338  -0.850416  0  2.101068  0
