# generated using pymatgen
data_CaH10C5O6
_symmetry_space_group_name_H-M   'P 1'
_cell_length_a   6.84663519
_cell_length_b   12.31094500
_cell_length_c   11.65371605
_cell_angle_alpha   96.34480932
_cell_angle_beta   88.84897448
_cell_angle_gamma   93.30174442
_symmetry_Int_Tables_number   1
_chemical_formula_structural   CaH10C5O6
_chemical_formula_sum   'Ca4 H40 C20 O24'
_cell_volume   974.54447434
_cell_formula_units_Z   4
loop_
 _symmetry_equiv_pos_site_id
 _symmetry_equiv_pos_as_xyz
  1  'x, y, z'
loop_
 _atom_site_type_symbol
 _atom_site_label
 _atom_site_symmetry_multiplicity
 _atom_site_fract_x
 _atom_site_fract_y
 _atom_site_fract_z
 _atom_site_occupancy
 _atom_site_hle17_bader_spin_density
 _atom_site_hle17_ddec_charge
 _atom_site_hle17_ddec_spin_density
 _atom_site_hle17_ddec_sum_bond_order
 _atom_site_hle17_magmom
 _atom_site_hse06_10hf_bader_spin_density
 _atom_site_hse06_10hf_ddec_charge
 _atom_site_hse06_10hf_ddec_spin_density
 _atom_site_hse06_10hf_ddec_sum_bond_order
 _atom_site_hse06_10hf_magmom
 _atom_site_hse06_bader_spin_density
 _atom_site_hse06_ddec_charge
 _atom_site_hse06_ddec_spin_density
 _atom_site_hse06_ddec_sum_bond_order
 _atom_site_hse06_magmom
 _atom_site_pbe_bader_spin_density
 _atom_site_pbe_cm5_charge
 _atom_site_pbe_ddec_charge
 _atom_site_pbe_ddec_spin_density
 _atom_site_pbe_ddec_sum_bond_order
 _atom_site_pbe_magmom
Ca  Ca0  1  0.53067275  0.56104658  0.35445222  1  0  1.53658  0  1.151282  0  0  1.401301  0  1.510552  0  0  1.448884  0  1.462632  0  0  0.897629  1.365547  0  1.544422  0
Ca  Ca1  1  0.46932937  0.43895558  0.64554007  1  0  1.536512  0  1.151401  0  0  1.401313  0  1.510539  0  0  1.448901  0  1.462607  0  0  0.897656  1.365554  0  1.544419  0
Ca  Ca2  1  0.05371452  0.71899878  0.32285768  1  0  1.558855  0  1.085554  0  0  1.423186  0  1.437337  0  0  1.468834  0  1.391277  0  0  0.897582  1.389063  0  1.469708  0
Ca  Ca3  1  0.94628238  0.28099439  0.67713011  1  0  1.558817  0  1.085545  0  0  1.423267  0  1.43712  0  0  1.468858  0  1.391154  0  0  0.89755  1.389142  0  1.469488  0
H  H4  1  0.61021949  0.93726472  0.24433633  1  0  0.137537  0  0.925114  0  0  0.159476  0  0.979006  0  0  0.161473  0  0.978655  0  0  0.105251  0.158047  0  0.97931  0
H  H5  1  0.38977013  0.06274651  0.75566376  1  0  0.137516  0  0.925141  0  0  0.159458  0  0.979025  0  0  0.161454  0  0.978674  0  0  0.105242  0.158027  0  0.97933  0
H  H6  1  0.70069616  0.95259624  0.38723399  1  0  0.140028  0  0.945563  0  0  0.15789  0  1.006281  0  0  0.160608  0  1.005014  0  0  0.102951  0.155895  0  1.007307  0
H  H7  1  0.29928660  0.04740766  0.61276866  1  0  0.139982  0  0.945512  0  0  0.157893  0  1.006187  0  0  0.160612  0  1.004915  0  0  0.102929  0.155897  0  1.007215  0
H  H8  1  0.44250830  0.95443763  0.36226572  1  0  0.145362  0  0.965645  0  0  0.161942  0  1.02575  0  0  0.164759  0  1.024981  0  0  0.101949  0.159931  0  1.026327  0
H  H9  1  0.55747057  0.04555973  0.63774045  1  0  0.14539  0  0.965699  0  0  0.161897  0  1.025897  0  0  0.164711  0  1.025132  0  0  0.101939  0.159888  0  1.02647  0
H  H10  1  0.62691171  0.82580298  0.61338956  1  0  0.144334  0  0.953199  0  0  0.160735  0  1.016144  0  0  0.163963  0  1.01477  0  0  0.100493  0.158461  0  1.017124  0
H  H11  1  0.37308452  0.17419921  0.38660355  1  0  0.144295  0  0.953245  0  0  0.160715  0  1.016171  0  0  0.163944  0  1.014795  0  0  0.1005  0.158439  0  1.017154  0
H  H12  1  0.47330170  0.83718856  0.73906476  1  0  0.121973  0  0.94613  0  0  0.140299  0  1.005019  0  0  0.142843  0  1.003784  0  0  0.089329  0.138448  0  1.005974  0
H  H13  1  0.52669355  0.16280791  0.26093370  1  0  0.121975  0  0.946276  0  0  0.140291  0  1.005172  0  0  0.142835  0  1.003937  0  0  0.089333  0.13844  0  1.006127  0
H  H14  1  0.37039975  0.81716360  0.59671271  1  0  0.145855  0  0.959931  0  0  0.162801  0  1.024203  0  0  0.165899  0  1.022853  0  0  0.101215  0.160559  0  1.025251  0
H  H15  1  0.62959623  0.18282467  0.40328139  1  0  0.145844  0  0.959887  0  0  0.162756  0  1.024221  0  0  0.16585  0  1.022876  0  0  0.101185  0.160515  0  1.025267  0
H  H16  1  0.97229341  0.31843847  0.30200505  1  0  0.136272  0  0.952023  0  0  0.156813  0  1.0131  0  0  0.158037  0  1.01388  0  0  0.105583  0.155886  0  1.01265  0
H  H17  1  0.02768451  0.68156054  0.69799529  1  0  0.136388  0  0.952033  0  0  0.156904  0  1.013084  0  0  0.158128  0  1.013863  0  0  0.105601  0.155981  0  1.01263  0
H  H18  1  0.87797144  0.35778802  0.44074540  1  0  0.139687  0  0.964918  0  0  0.157576  0  1.026946  0  0  0.160012  0  1.026489  0  0  0.117289  0.155811  0  1.027391  0
H  H19  1  0.12201808  0.64222322  0.55925641  1  0  0.139754  0  0.964932  0  0  0.157634  0  1.02694  0  0  0.160064  0  1.026494  0  0  0.117339  0.15587  0  1.027384  0
H  H20  1  0.13854015  0.34568935  0.41868128  1  0  0.143138  0  0.959826  0  0  0.161346  0  1.019636  0  0  0.164076  0  1.018648  0  0  0.114587  0.159367  0  1.020396  0
H  H21  1  0.86145135  0.65430141  0.58131994  1  0  0.1432  0  0.960027  0  0  0.161416  0  1.01977  0  0  0.164145  0  1.018782  0  0  0.114598  0.159438  0  1.020531  0
H  H22  1  0.85941096  0.65585201  0.87094322  1  0  0.14649  0  0.939087  0  0  0.164319  0  0.997415  0  0  0.167121  0  0.996165  0  0  0.106072  0.162251  0  0.998413  0
H  H23  1  0.14060145  0.34415996  0.12906914  1  0  0.146504  0  0.939103  0  0  0.164293  0  0.997444  0  0  0.167094  0  0.996208  0  0  0.106102  0.162226  0  0.998438  0
H  H24  1  0.94728440  0.53883547  0.92936908  1  0  0.148199  0  0.968643  0  0  0.16301  0  1.033229  0  0  0.166441  0  1.031519  0  0  0.105897  0.16053  0  1.034525  0
H  H25  1  0.05272156  0.46117408  0.07064897  1  0  0.148187  0  0.968633  0  0  0.162978  0  1.033229  0  0  0.166385  0  1.03155  0  0  0.10589  0.160496  0  1.034526  0
H  H26  1  0.11518881  0.63296586  0.87068193  1  0  0.160818  0  0.922338  0  0  0.180667  0  0.978262  0  0  0.183564  0  0.977109  0  0  0.114845  0.17858  0  0.979141  0
H  H27  1  0.88481798  0.36702892  0.12931557  1  0  0.160852  0  0.922163  0  0  0.180697  0  0.978088  0  0  0.183594  0  0.976934  0  0  0.114877  0.178608  0  0.978968  0
H  H28  1  0.96012064  0.03156467  0.10012902  1  0  0.136697  0  0.94633  0  0  0.155345  0  1.004833  0  0  0.158181  0  1.003141  0  0  0.097425  0.153271  0  1.00614  0
H  H29  1  0.03989135  0.96844321  0.89988201  1  0  0.136565  0  0.946338  0  0  0.15525  0  1.004786  0  0  0.158085  0  1.003096  0  0  0.097388  0.153175  0  1.006095  0
H  H30  1  0.12355629  0.13166118  0.17564915  1  0  0.148364  0  0.932596  0  0  0.169588  0  0.987874  0  0  0.172136  0  0.986841  0  0  0.10558  0.167743  0  0.98868  0
H  H31  1  0.87644979  0.86833608  0.82436665  1  0  0.148328  0  0.932513  0  0  0.169534  0  0.987812  0  0  0.17209  0  0.986772  0  0  0.10557  0.167684  0  0.988625  0
H  H32  1  0.87967464  0.11430321  0.22594996  1  0  0.139659  0  0.94454  0  0  0.161241  0  1.00297  0  0  0.163038  0  1.00301  0  0  0.104778  0.159955  0  1.002971  0
H  H33  1  0.12033008  0.88569160  0.77405868  1  0  0.139658  0  0.944449  0  0  0.161217  0  1.002899  0  0  0.163011  0  1.002943  0  0  0.104773  0.159931  0  1.0029  0
H  H34  1  0.98193833  0.83766032  0.11842458  1  0  0.398345  0  0.910787  0  0  0.364494  0  0.988434  0  0  0.378012  0  0.969755  0  0  0.304164  0.355069  0  1.001417  0
H  H35  1  0.01806825  0.16234839  0.88158050  1  0  0.398289  0  0.910939  0  0  0.364439  0  0.988544  0  0  0.377958  0  0.969863  0  0  0.304114  0.355013  0  1.001529  0
H  H36  1  0.47070948  0.47650842  0.12804638  1  0  0.42999  0  0.838644  0  0  0.407324  0  0.898343  0  0  0.416255  0  0.885116  0  0  0.318328  0.400912  0  0.907858  0
H  H37  1  0.52925386  0.52348329  0.87196419  1  0  0.429937  0  0.838792  0  0  0.40725  0  0.898438  0  0  0.416175  0  0.885223  0  0  0.318322  0.400838  0  0.907953  0
H  H38  1  0.35883917  0.58285367  0.12187098  1  0  0.426998  0  0.850508  0  0  0.399709  0  0.911983  0  0  0.409043  0  0.898296  0  0  0.315092  0.393031  0  0.921783  0
H  H39  1  0.64113528  0.41714043  0.87812878  1  0  0.426897  0  0.850411  0  0  0.399591  0  0.912101  0  0  0.408924  0  0.898416  0  0  0.315086  0.392912  0  0.921902  0
H  H40  1  0.12222902  0.91688761  0.44537372  1  0  0.406862  0  0.907784  0  0  0.371992  0  0.979499  0  0  0.383841  0  0.962181  0  0  0.291603  0.363642  0  0.991684  0
H  H41  1  0.87776639  0.08309985  0.55462887  1  0  0.406996  0  0.907637  0  0  0.372124  0  0.979352  0  0  0.38397  0  0.962037  0  0  0.291683  0.363776  0  0.991534  0
H  H42  1  0.99745795  0.87845507  0.54757923  1  0  0.424811  0  0.876575  0  0  0.394338  0  0.939408  0  0  0.404975  0  0.923973  0  0  0.295517  0.386825  0  0.950296  0
H  H43  1  0.00254151  0.12153074  0.45242578  1  0  0.424815  0  0.876554  0  0  0.394341  0  0.939395  0  0  0.404978  0  0.923961  0  0  0.295539  0.386822  0  0.950292  0
C  C44  1  0.56169585  0.79509924  0.33138645  1  0  0.808647  0  3.802017  0  0  0.772907  0  4.083025  0  0  0.807757  0  4.073103  0  0  0.240049  0.74897  0  4.089063  0
C  C45  1  0.43829534  0.20490624  0.66859927  1  0  0.808457  0  3.80233  0  0  0.772683  0  4.083403  0  0  0.807532  0  4.073481  0  0  0.239915  0.748733  0  4.089459  0
C  C46  1  0.57891146  0.91769527  0.33293382  1  0  -0.460008  0  3.633359  0  0  -0.534036  0  3.861745  0  0  -0.541206  0  3.863475  0  0  -0.237462  -0.528958  0  3.860573  0
C  C47  1  0.42107441  0.08230861  0.66706542  1  0  -0.459882  0  3.633367  0  0  -0.533897  0  3.861759  0  0  -0.541066  0  3.863494  0  0  -0.237441  -0.528814  0  3.86059  0
C  C48  1  0.48541906  0.67349536  0.65226566  1  0  0.763855  0  3.86283  0  0  0.725799  0  4.155603  0  0  0.759202  0  4.147841  0  0  0.210814  0.702924  0  4.160254  0
C  C49  1  0.51456943  0.32651505  0.34772660  1  0  0.763737  0  3.863179  0  0  0.72564  0  4.155979  0  0  0.759038  0  4.148219  0  0  0.210807  0.702771  0  4.160622  0
C  C50  1  0.48860999  0.79589198  0.65139005  1  0  -0.470537  0  3.660607  0  0  -0.544134  0  3.894523  0  0  -0.552107  0  3.896529  0  0  -0.250134  -0.538459  0  3.893108  0
C  C51  1  0.51138982  0.20410529  0.34860682  1  0  -0.470526  0  3.660473  0  0  -0.544085  0  3.894384  0  0  -0.552055  0  3.896395  0  0  -0.250212  -0.538413  0  3.892967  0
C  C52  1  0.02198433  0.48831795  0.35964082  1  0  0.797932  0  3.812358  0  0  0.760886  0  4.096708  0  0  0.795183  0  4.087649  0  0  0.23782  0.737329  0  4.102175  0
C  C53  1  0.97802820  0.51167435  0.64035300  1  0  0.79807  0  3.812167  0  0  0.760945  0  4.096657  0  0  0.79524  0  4.087591  0  0  0.237882  0.737388  0  4.102124  0
C  C54  1  0.00338808  0.37030757  0.38304376  1  0  -0.465248  0  3.627485  0  0  -0.544557  0  3.857308  0  0  -0.551289  0  3.859429  0  0  -0.22984  -0.539743  0  3.855928  0
C  C55  1  0.99660626  0.62969382  0.61695526  1  0  -0.465571  0  3.627624  0  0  -0.544814  0  3.857479  0  0  -0.551544  0  3.8596  0  0  -0.229952  -0.540004  0  3.8561  0
C  C56  1  0.00203009  0.69246040  0.03412699  1  0  0.789464  0  3.728894  0  0  0.750912  0  4.019321  0  0  0.785315  0  4.009031  0  0  0.255832  0.727418  0  4.025739  0
C  C57  1  0.99799988  0.30755232  0.96588644  1  0  0.789444  0  3.728684  0  0  0.750943  0  4.019031  0  0  0.785346  0  4.008736  0  0  0.25587  0.727445  0  4.025451  0
C  C58  1  0.97640625  0.62573976  0.91963403  1  0  -0.47833  0  3.638582  0  0  -0.555266  0  3.868417  0  0  -0.563425  0  3.869525  0  0  -0.237005  -0.549448  0  3.867688  0
C  C59  1  0.02361013  0.37426153  0.08036255  1  0  -0.478266  0  3.638756  0  0  -0.555126  0  3.868634  0  0  -0.563279  0  3.869771  0  0  -0.236962  -0.549308  0  3.867906  0
C  C60  1  0.06436554  0.98935381  0.26422718  1  0  0.775075  0  3.800972  0  0  0.730217  0  4.098974  0  0  0.763591  0  4.091462  0  0  0.235507  0.707548  0  4.103329  0
C  C61  1  0.93565761  0.01065074  0.73578613  1  0  0.775272  0  3.801013  0  0  0.730226  0  4.09927  0  0  0.763624  0  4.09173  0  0  0.235347  0.70755  0  4.103631  0
C  C62  1  0.00322227  0.07041816  0.18558047  1  0  -0.470066  0  3.66301  0  0  -0.549274  0  3.895926  0  0  -0.555907  0  3.898115  0  0  -0.242984  -0.544498  0  3.894321  0
C  C63  1  0.99678036  0.92958321  0.81442719  1  0  -0.470002  0  3.66291  0  0  -0.54913  0  3.895834  0  0  -0.555785  0  3.898021  0  0  -0.242949  -0.54434  0  3.894234  0
O  O64  1  0.71608459  0.74224090  0.33560561  1  0  -0.778323  0  1.971002  0  0  -0.716804  0  2.21883  0  0  -0.746606  0  2.207635  0  0  -0.399944  -0.695462  0  2.225773  0
O  O65  1  0.28392688  0.25776776  0.66436344  1  0  -0.77818  0  1.971143  0  0  -0.716716  0  2.219065  0  0  -0.746509  0  2.207877  0  0  -0.399765  -0.695368  0  2.226007  0
O  O66  1  0.39413569  0.74440079  0.32538263  1  0  -0.760782  0  1.971491  0  0  -0.696663  0  2.217071  0  0  -0.726576  0  2.206217  0  0  -0.394536  -0.675299  0  2.223824  0
O  O67  1  0.60585893  0.25560141  0.67461304  1  0  -0.760763  0  1.971631  0  0  -0.696627  0  2.217199  0  0  -0.726534  0  2.206352  0  0  -0.394555  -0.675258  0  2.223959  0
O  O68  1  0.49900137  0.61390167  0.55452602  1  0  -0.788659  0  1.968242  0  0  -0.723242  0  2.223565  0  0  -0.753133  0  2.212759  0  0  -0.406761  -0.701739  0  2.230281  0
O  O69  1  0.50098668  0.38609483  0.44547068  1  0  -0.788576  0  1.968198  0  0  -0.723189  0  2.2236  0  0  -0.753079  0  2.212791  0  0  -0.406738  -0.701688  0  2.230313  0
O  O70  1  0.46879973  0.63103262  0.74659168  1  0  -0.713796  0  1.877073  0  0  -0.662073  0  2.097066  0  0  -0.68725  0  2.086133  0  0  -0.364809  -0.644293  0  2.104107  0
O  O71  1  0.53118959  0.36896552  0.25341208  1  0  -0.713678  0  1.877712  0  0  -0.661908  0  2.097727  0  0  -0.687074  0  2.086782  0  0  -0.364732  -0.644133  0  2.104765  0
O  O72  1  0.18949705  0.53655150  0.34715850  1  0  -0.769564  0  1.994786  0  0  -0.706353  0  2.246165  0  0  -0.736187  0  2.23619  0  0  -0.392782  -0.685054  0  2.252363  0
O  O73  1  0.81050682  0.46344247  0.65283716  1  0  -0.769723  0  1.994687  0  0  -0.706474  0  2.246085  0  0  -0.736306  0  2.23611  0  0  -0.392808  -0.685173  0  2.252286  0
O  O74  1  0.86856061  0.54106827  0.35245140  1  0  -0.761106  0  1.972283  0  0  -0.6941  0  2.216059  0  0  -0.724469  0  2.207133  0  0  -0.39349  -0.672393  0  2.221457  0
O  O75  1  0.13144246  0.45892487  0.64753043  1  0  -0.761012  0  1.972486  0  0  -0.694022  0  2.216329  0  0  -0.724382  0  2.207398  0  0  -0.393527  -0.672318  0  2.221727  0
O  O76  1  0.08165702  0.65678862  0.11732802  1  0  -0.674194  0  1.930141  0  0  -0.614925  0  2.149479  0  0  -0.640416  0  2.138437  0  0  -0.325396  -0.597118  0  2.156703  0
O  O77  1  0.91837365  0.34322079  0.88266530  1  0  -0.674255  0  1.929526  0  0  -0.615096  0  2.148959  0  0  -0.640575  0  2.137924  0  0  -0.325456  -0.597275  0  2.156167  0
O  O78  1  0.93955325  0.79194651  0.03940208  1  0  -0.562472  0  2.038186  0  0  -0.511292  0  2.239874  0  0  -0.535365  0  2.222025  0  0  -0.321496  -0.494663  0  2.251825  0
O  O79  1  0.06046384  0.20805316  0.96060463  1  0  -0.562457  0  2.038156  0  0  -0.511266  0  2.239759  0  0  -0.535337  0  2.221907  0  0  -0.321501  -0.494639  0  2.251714  0
O  O80  1  0.05264192  0.88658546  0.22880671  1  0  -0.709094  0  2.052858  0  0  -0.644211  0  2.288027  0  0  -0.672886  0  2.276224  0  0  -0.349229  -0.624025  0  2.295483  0
O  O81  1  0.94738086  0.11341418  0.77120261  1  0  -0.709015  0  2.052872  0  0  -0.644091  0  2.288093  0  0  -0.672771  0  2.276285  0  0  -0.349049  -0.623896  0  2.295548  0
O  O82  1  0.12546916  0.02490854  0.36405712  1  0  -0.655567  0  2.004474  0  0  -0.58678  0  2.213749  0  0  -0.613519  0  2.204114  0  0  -0.299446  -0.568477  0  2.220192  0
O  O83  1  0.87454171  0.97509198  0.63595822  1  0  -0.655725  0  2.004328  0  0  -0.586839  0  2.213645  0  0  -0.613554  0  2.203954  0  0  -0.299385  -0.568558  0  2.220118  0
O  O84  1  0.48548468  0.55639730  0.14022716  1  0  -0.838669  0  1.769533  0  0  -0.791393  0  1.923715  0  0  -0.809622  0  1.895513  0  0  -0.591749  -0.778299  0  1.94354  0
O  O85  1  0.51450350  0.44359916  0.85974034  1  0  -0.838482  0  1.769628  0  0  -0.791167  0  1.924044  0  0  -0.80939  0  1.895842  0  0  -0.591753  -0.778073  0  1.943878  0
O  O86  1  0.09124609  0.85070760  0.48674693  1  0  -0.895404  0  1.828916  0  0  -0.841045  0  2.017902  0  0  -0.863115  0  1.98623  0  0  -0.636099  -0.825106  0  2.039858  0
O  O87  1  0.90875356  0.14927985  0.51325826  1  0  -0.895574  0  1.828783  0  0  -0.841216  0  2.017737  0  0  -0.863276  0  1.986062  0  0  -0.636267  -0.825281  0  2.039696  0
