# generated using pymatgen
data_Cd3H14C22(S3N8)2
_symmetry_space_group_name_H-M   'P 1'
_cell_length_a   8.59542997
_cell_length_b   8.68353736
_cell_length_c   11.69408299
_cell_angle_alpha   77.90870338
_cell_angle_beta   76.06320210
_cell_angle_gamma   87.42484300
_symmetry_Int_Tables_number   1
_chemical_formula_structural   Cd3H14C22(S3N8)2
_chemical_formula_sum   'Cd3 H14 C22 S6 N16'
_cell_volume   828.32946774
_cell_formula_units_Z   1
loop_
 _symmetry_equiv_pos_site_id
 _symmetry_equiv_pos_as_xyz
  1  'x, y, z'
loop_
 _atom_site_type_symbol
 _atom_site_label
 _atom_site_symmetry_multiplicity
 _atom_site_fract_x
 _atom_site_fract_y
 _atom_site_fract_z
 _atom_site_occupancy
 _atom_site_hle17_bader_spin_density
 _atom_site_hle17_ddec_charge
 _atom_site_hle17_ddec_spin_density
 _atom_site_hle17_ddec_sum_bond_order
 _atom_site_hle17_magmom
 _atom_site_hse06_10hf_bader_spin_density
 _atom_site_hse06_10hf_ddec_charge
 _atom_site_hse06_10hf_ddec_spin_density
 _atom_site_hse06_10hf_ddec_sum_bond_order
 _atom_site_hse06_10hf_magmom
 _atom_site_hse06_bader_spin_density
 _atom_site_hse06_ddec_charge
 _atom_site_hse06_ddec_spin_density
 _atom_site_hse06_ddec_sum_bond_order
 _atom_site_hse06_magmom
 _atom_site_pbe_bader_spin_density
 _atom_site_pbe_cm5_charge
 _atom_site_pbe_ddec_charge
 _atom_site_pbe_ddec_spin_density
 _atom_site_pbe_ddec_sum_bond_order
 _atom_site_pbe_magmom
Cd  Cd0  1  0.96392920  0.72691277  0.31406714  1  0  0.959829  0  2.028617  0  0  0.782626  0  2.49962  0  0  0.826346  0  2.463671  0  0  0.737123  0.7519  0  2.524172  0
Cd  Cd1  1  0.03607089  0.27309413  0.68593270  1  0  0.95996  0  2.028445  0  0  0.782755  0  2.499448  0  0  0.826474  0  2.463501  0  0  0.737187  0.752031  0  2.524007  0
Cd  Cd2  1  0.49999781  0.49999908  0.00000031  1  0  0.971983  0  1.981348  0  0  0.791429  0  2.451214  0  0  0.835243  0  2.41431  0  0  0.74176  0.760647  0  2.476229  0
H  H3  1  0.59252912  0.67223190  0.43451809  1  0  0.090141  0  0.929789  0  0  0.096225  0  0.995887  0  0  0.098758  0  0.99336  0  0  0.117737  0.094402  0  0.997673  0
H  H4  1  0.40747090  0.32776911  0.56548353  1  0  0.090129  0  0.929714  0  0  0.096214  0  0.995821  0  0  0.098746  0  0.993294  0  0  0.117729  0.094391  0  0.997608  0
H  H5  1  0.32957479  0.81564169  0.45095339  1  0  0.107352  0  0.973606  0  0  0.113631  0  1.039172  0  0  0.115749  0  1.039785  0  0  0.102212  0.112085  0  1.038853  0
H  H6  1  0.67042513  0.18435226  0.54904422  1  0  0.107331  0  0.9736  0  0  0.113604  0  1.039182  0  0  0.115722  0  1.039797  0  0  0.102221  0.112062  0  1.038864  0
H  H7  1  0.33121820  0.10376641  0.35722999  1  0  0.095024  0  0.950614  0  0  0.101461  0  1.018825  0  0  0.104262  0  1.017188  0  0  0.099861  0.099397  0  1.02006  0
H  H8  1  0.66878052  0.89622636  0.64276973  1  0  0.095106  0  0.950553  0  0  0.101513  0  1.018776  0  0  0.104314  0  1.017141  0  0  0.099886  0.099452  0  1.020006  0
H  H9  1  0.59410139  0.23621443  0.24891122  1  0  0.11076  0  0.981225  0  0  0.116202  0  1.051442  0  0  0.119134  0  1.050691  0  0  0.100638  0.114037  0  1.052233  0
H  H10  1  0.40589500  0.76378307  0.75109160  1  0  0.110738  0  0.981197  0  0  0.11618  0  1.051413  0  0  0.119112  0  1.050662  0  0  0.100638  0.114014  0  1.052205  0
H  H11  1  0.88222473  0.22768108  0.19223545  1  0  0.101362  0  0.92197  0  0  0.112397  0  0.9837  0  0  0.114682  0  0.980634  0  0  0.129129  0.110507  0  0.986375  0
H  H12  1  0.11777291  0.77231995  0.80776746  1  0  0.101339  0  0.92197  0  0  0.112384  0  0.983728  0  0  0.114668  0  0.980663  0  0  0.129131  0.110492  0  0.986405  0
H  H13  1  0.29589851  0.90706922  0.08425901  1  0  0.128212  0  0.944696  0  0  0.130201  0  1.01705  0  0  0.132521  0  1.013708  0  0  0.141562  0.128287  0  1.019213  0
H  H14  1  0.70410028  0.09292710  0.91574699  1  0  0.128301  0  0.944652  0  0  0.130274  0  1.016968  0  0  0.132594  0  1.013626  0  0  0.141597  0.12836  0  1.019129  0
H  H15  1  0.11902656  0.33553401  0.18853194  1  0  0.11728  0  0.937004  0  0  0.125447  0  1.002698  0  0  0.126951  0  1.00022  0  0  0.140919  0.123933  0  1.004613  0
H  H16  1  0.88097222  0.66446348  0.81146874  1  0  0.117261  0  0.936972  0  0  0.125408  0  1.002698  0  0  0.126927  0  1.000188  0  0  0.140909  0.12389  0  1.004628  0
C  C17  1  0.13035586  0.65508143  0.04257496  1  0  0.278599  0  4.03152  0  0  0.259905  0  4.337101  0  0  0.280633  0  4.352833  0  0  0.135489  0.245771  0  4.32623  0
C  C18  1  0.86964546  0.34493135  0.95741775  1  0  0.278558  0  4.031661  0  0  0.259864  0  4.33725  0  0  0.280591  0  4.352984  0  0  0.135532  0.245732  0  4.326376  0
C  C19  1  0.07666629  0.63515871  0.56854623  1  0  0.294821  0  4.007544  0  0  0.278799  0  4.304861  0  0  0.299494  0  4.320517  0  0  0.139117  0.264655  0  4.293999  0
C  C20  1  0.92336116  0.36482922  0.43145165  1  0  0.294314  0  4.007648  0  0  0.278268  0  4.305041  0  0  0.298973  0  4.320712  0  0  0.138889  0.264117  0  4.294164  0
C  C21  1  0.35059107  0.61852391  0.25759791  1  0  0.31809  0  4.005038  0  0  0.298823  0  4.300632  0  0  0.32184  0  4.315098  0  0  0.153324  0.283191  0  4.290341  0
C  C22  1  0.64940049  0.38147008  0.74240547  1  0  0.318366  0  4.004605  0  0  0.299097  0  4.300212  0  0  0.322121  0  4.314678  0  0  0.153447  0.283461  0  4.289924  0
C  C23  1  0.58703558  0.79713263  0.39466242  1  0  0.147121  0  3.680884  0  0  0.113999  0  3.936354  0  0  0.120903  0  3.953665  0  0  0.058898  0.109347  0  3.924855  0
C  C24  1  0.41296081  0.20286369  0.60534145  1  0  0.147163  0  3.680813  0  0  0.114048  0  3.936278  0  0  0.120952  0  3.953591  0  0  0.058948  0.109396  0  3.924779  0
C  C25  1  0.44122505  0.87776239  0.40381983  1  0  -0.08552  0  3.677789  0  0  -0.09863  0  3.926575  0  0  -0.104485  0  3.948325  0  0  -0.070537  -0.095011  0  3.912254  0
C  C26  1  0.55877013  0.12223512  0.59617894  1  0  -0.085505  0  3.677854  0  0  -0.098606  0  3.926621  0  0  -0.10446  0  3.94837  0  0  -0.07056  -0.094992  0  3.912305  0
C  C27  1  0.44252440  0.03703819  0.35122986  1  0  0.006859  0  3.68189  0  0  -0.011347  0  3.933506  0  0  -0.009001  0  3.952336  0  0  -0.062364  -0.012645  0  3.920919  0
C  C28  1  0.55747436  0.96295811  0.64877016  1  0  0.006735  0  3.68182  0  0  -0.011454  0  3.933452  0  0  -0.009107  0  3.952282  0  0  -0.06239  -0.012754  0  3.920871  0
C  C29  1  0.58871745  0.11171872  0.29166718  1  0  -0.106533  0  3.650159  0  0  -0.128621  0  3.894444  0  0  -0.133997  0  3.916054  0  0  -0.065662  -0.125348  0  3.880245  0
C  C30  1  0.41128132  0.88827759  0.70833540  1  0  -0.106445  0  3.650093  0  0  -0.128522  0  3.894344  0  0  -0.133899  0  3.915951  0  0  -0.065639  -0.125248  0  3.880146  0
C  C31  1  0.72940921  0.02366171  0.28670685  1  0  0.193606  0  3.781877  0  0  0.198009  0  4.018141  0  0  0.200601  0  4.040856  0  0  0.115422  0.196264  0  4.003098  0
C  C32  1  0.27059078  0.97633578  0.71329618  1  0  0.193502  0  3.781845  0  0  0.19795  0  4.018107  0  0  0.200545  0  4.040823  0  0  0.11539  0.196204  0  4.003067  0
C  C33  1  0.88354739  0.10006589  0.22535982  1  0  0.090021  0  3.62766  0  0  0.044161  0  3.900077  0  0  0.056249  0  3.905329  0  0  0.08961  0.035794  0  3.895043  0
C  C34  1  0.11644666  0.89993633  0.77464440  1  0  0.090148  0  3.627623  0  0  0.044185  0  3.900109  0  0  0.056271  0  3.905366  0  0  0.089592  0.035819  0  3.895077  0
C  C35  1  0.28986001  0.02848015  0.09499165  1  0  0.139816  0  3.601751  0  0  0.071582  0  3.879939  0  0  0.091806  0  3.893237  0  0  0.160094  0.064107  0  3.873257  0
C  C36  1  0.71013756  0.97151381  0.90501408  1  0  0.139618  0  3.601988  0  0  0.071439  0  3.880186  0  0  0.091662  0  3.893485  0  0  0.160003  0.063965  0  3.873502  0
C  C37  1  0.19666742  0.24952582  0.14848148  1  0  0.127468  0  3.663042  0  0  0.052083  0  3.935503  0  0  0.073674  0  3.952807  0  0  0.152816  0.043844  0  3.926381  0
C  C38  1  0.80333139  0.75047403  0.85151884  1  0  0.127507  0  3.662901  0  0  0.052137  0  3.935354  0  0  0.073723  0  3.952666  0  0  0.152807  0.043896  0  3.92623  0
S  S39  1  0.93828542  0.66596547  0.09977269  1  0  -0.32413  0  2.194446  0  0  -0.300027  0  2.533088  0  0  -0.317464  0  2.529669  0  0  -0.152879  -0.287464  0  2.535233  0
S  S40  1  0.06171956  0.33405436  0.90021570  1  0  -0.324195  0  2.194388  0  0  -0.30005  0  2.532949  0  0  -0.31749  0  2.529527  0  0  -0.152928  -0.287488  0  2.535096  0
S  S41  1  0.98995620  0.80324565  0.53292097  1  0  -0.338398  0  2.158128  0  0  -0.313898  0  2.491413  0  0  -0.329967  0  2.48596  0  0  -0.152158  -0.301871  0  2.494843  0
S  S42  1  0.01005356  0.19677063  0.46707311  1  0  -0.337966  0  2.158936  0  0  -0.313459  0  2.492271  0  0  -0.32952  0  2.486821  0  0  -0.15201  -0.301443  0  2.495704  0
S  S43  1  0.52732191  0.54182081  0.22365557  1  0  -0.314962  0  2.15247  0  0  -0.281486  0  2.472526  0  0  -0.298688  0  2.4659  0  0  -0.13615  -0.269042  0  2.476575  0
S  S44  1  0.47267683  0.45817196  0.77634671  1  0  -0.314957  0  2.152543  0  0  -0.28149  0  2.472605  0  0  -0.29869  0  2.465978  0  0  -0.136116  -0.269038  0  2.476641  0
N  N45  1  0.26932459  0.64830839  0.99882922  1  0  -0.528302  0  2.871764  0  0  -0.475179  0  3.150175  0  0  -0.495013  0  3.157371  0  0  -0.395539  -0.461431  0  3.145079  0
N  N46  1  0.73068263  0.35169612  0.00116287  1  0  -0.528199  0  2.871965  0  0  -0.475081  0  3.150381  0  0  -0.494914  0  3.157575  0  0  -0.395529  -0.461336  0  3.145283  0
N  N47  1  0.14386873  0.51488700  0.59361468  1  0  -0.539737  0  2.858558  0  0  -0.485266  0  3.125613  0  0  -0.505856  0  3.133577  0  0  -0.405157  -0.470889  0  3.11984  0
N  N48  1  0.85613026  0.48513521  0.40637014  1  0  -0.539593  0  2.857771  0  0  -0.485096  0  3.124825  0  0  -0.505699  0  3.132807  0  0  -0.405044  -0.470709  0  3.119037  0
N  N49  1  0.22443295  0.67939294  0.28178116  1  0  -0.554534  0  2.971393  0  0  -0.491356  0  3.251066  0  0  -0.515876  0  3.260401  0  0  -0.407865  -0.474413  0  3.244472  0
N  N50  1  0.77557176  0.32059981  0.71821663  1  0  -0.554843  0  2.970985  0  0  -0.491666  0  3.250683  0  0  -0.516191  0  3.260008  0  0  -0.408005  -0.474722  0  3.244093  0
N  N51  1  0.72718180  0.86834886  0.33763679  1  0  -0.349065  0  3.270785  0  0  -0.273007  0  3.520522  0  0  -0.291897  0  3.541455  0  0  -0.322747  -0.260079  0  3.506416  0
N  N52  1  0.27281702  0.13164981  0.66236883  1  0  -0.349039  0  3.270769  0  0  -0.272995  0  3.520496  0  0  -0.291887  0  3.541431  0  0  -0.322734  -0.260065  0  3.506389  0
N  N53  1  0.01276996  0.01754113  0.20981019  1  0  -0.207964  0  3.133589  0  0  -0.183068  0  3.411795  0  0  -0.184005  0  3.430138  0  0  -0.199236  -0.17612  0  3.402599  0
N  N54  1  0.98723007  0.98245871  0.79019504  1  0  -0.208103  0  3.133669  0  0  -0.183151  0  3.411888  0  0  -0.184092  0  3.430229  0  0  -0.199269  -0.176205  0  3.402696  0
N  N55  1  0.15525643  0.09604970  0.15602517  1  0  0.017784  0  3.613322  0  0  0.129078  0  3.804663  0  0  0.088758  0  3.864082  0  0  -0.120378  0.13755  0  3.787986  0
N  N56  1  0.84474118  0.90394897  0.84397810  1  0  0.017835  0  3.613351  0  0  0.129118  0  3.804653  0  0  0.088806  0  3.864067  0  0  -0.12034  0.137591  0  3.787976  0
N  N57  1  0.40578151  0.13334128  0.05231547  1  0  -0.200017  0  2.934925  0  0  -0.18427  0  3.224195  0  0  -0.19192  0  3.237496  0  0  -0.21606  -0.178939  0  3.213245  0
N  N58  1  0.59421726  0.86665386  0.94768815  1  0  -0.199947  0  2.935103  0  0  -0.184201  0  3.224362  0  0  -0.191851  0  3.237665  0  0  -0.216019  -0.178869  0  3.213411  0
N  N59  1  0.34677717  0.27124127  0.08747422  1  0  -0.261037  0  3.221607  0  0  -0.194277  0  3.514762  0  0  -0.211907  0  3.532057  0  0  -0.238151  -0.182225  0  3.500804  0
N  N60  1  0.65322161  0.72875622  0.91252561  1  0  -0.261049  0  3.221501  0  0  -0.194298  0  3.514672  0  0  -0.21193  0  3.531971  0  0  -0.238152  -0.182245  0  3.500713  0
