# generated using pymatgen
data_AgH14C14N5O3
_symmetry_space_group_name_H-M   'P 1'
_cell_length_a   5.06830436
_cell_length_b   10.46191618
_cell_length_c   14.67880159
_cell_angle_alpha   90.00274414
_cell_angle_beta   91.06177092
_cell_angle_gamma   90.00285206
_symmetry_Int_Tables_number   1
_chemical_formula_structural   AgH14C14N5O3
_chemical_formula_sum   'Ag2 H28 C28 N10 O6'
_cell_volume   778.19770749
_cell_formula_units_Z   2
loop_
 _symmetry_equiv_pos_site_id
 _symmetry_equiv_pos_as_xyz
  1  'x, y, z'
loop_
 _atom_site_type_symbol
 _atom_site_label
 _atom_site_symmetry_multiplicity
 _atom_site_fract_x
 _atom_site_fract_y
 _atom_site_fract_z
 _atom_site_occupancy
 _atom_site_hle17_bader_spin_density
 _atom_site_hle17_ddec_charge
 _atom_site_hle17_ddec_spin_density
 _atom_site_hle17_ddec_sum_bond_order
 _atom_site_hle17_magmom
 _atom_site_hse06_10hf_bader_spin_density
 _atom_site_hse06_10hf_ddec_charge
 _atom_site_hse06_10hf_ddec_spin_density
 _atom_site_hse06_10hf_ddec_sum_bond_order
 _atom_site_hse06_10hf_magmom
 _atom_site_hse06_bader_spin_density
 _atom_site_hse06_ddec_charge
 _atom_site_hse06_ddec_spin_density
 _atom_site_hse06_ddec_sum_bond_order
 _atom_site_hse06_magmom
 _atom_site_pbe_bader_spin_density
 _atom_site_pbe_cm5_charge
 _atom_site_pbe_ddec_charge
 _atom_site_pbe_ddec_spin_density
 _atom_site_pbe_ddec_sum_bond_order
 _atom_site_pbe_magmom
Ag  Ag0  1  0.50000744  0.38748233  0.25000505  1  0  0.520013  0  1.368059  0  0  0.364747  0  1.787002  0  0  0.396672  0  1.741534  0  0  0.454515  0.343141  0  1.818144  0
Ag  Ag1  1  0.49999412  0.61251381  0.75001108  1  0  0.519898  0  1.368236  0  0  0.364656  0  1.787328  0  0  0.396615  0  1.741747  0  0  0.454544  0.34307  0  1.818362  0
H  H2  1  0.77820090  0.21445940  0.11510666  1  0  0.07769  0  0.954569  0  0  0.08245  0  1.026682  0  0  0.086014  0  1.022209  0  0  0.116215  0.079811  0  1.030076  0
H  H3  1  0.22183178  0.21439563  0.38488621  1  0  0.077618  0  0.954711  0  0  0.082377  0  1.026794  0  0  0.085947  0  1.022312  0  0  0.116241  0.079737  0  1.030189  0
H  H4  1  0.22183570  0.78558740  0.88489543  1  0  0.077731  0  0.954604  0  0  0.082369  0  1.026818  0  0  0.085941  0  1.022333  0  0  0.116234  0.079732  0  1.03021  0
H  H5  1  0.77814362  0.78556036  0.61511420  1  0  0.077653  0  0.954689  0  0  0.08236  0  1.026842  0  0  0.08593  0  1.022354  0  0  0.116207  0.07972  0  1.030236  0
H  H6  1  0.12185424  0.44769716  0.08924174  1  0  0.078251  0  0.972807  0  0  0.084429  0  1.042463  0  0  0.086886  0  1.040171  0  0  0.112139  0.082331  0  1.044757  0
H  H7  1  0.87826583  0.44763169  0.41073359  1  0  0.077917  0  0.972961  0  0  0.084162  0  1.042619  0  0  0.086643  0  1.040261  0  0  0.112055  0.082036  0  1.044943  0
H  H8  1  0.87821225  0.55235537  0.91074948  1  0  0.078044  0  0.972831  0  0  0.084261  0  1.04248  0  0  0.086722  0  1.04016  0  0  0.112097  0.08217  0  1.044739  0
H  H9  1  0.12172323  0.55233768  0.58928398  1  0  0.078114  0  0.972799  0  0  0.084336  0  1.042498  0  0  0.086833  0  1.040088  0  0  0.112122  0.082212  0  1.044813  0
H  H10  1  0.03006752  0.36801080  0.92913384  1  0  0.102972  0  0.984081  0  0  0.111886  0  1.047027  0  0  0.114106  0  1.047636  0  0  0.105737  0.110167  0  1.047015  0
H  H11  1  0.97006102  0.36795821  0.57084267  1  0  0.103071  0  0.983805  0  0  0.111866  0  1.04688  0  0  0.114086  0  1.047487  0  0  0.105769  0.110148  0  1.04686  0
H  H12  1  0.96998624  0.63204747  0.07085949  1  0  0.103123  0  0.983826  0  0  0.11192  0  1.046878  0  0  0.11414  0  1.047498  0  0  0.105776  0.1102  0  1.046879  0
H  H13  1  0.02994592  0.63198918  0.42916961  1  0  0.102861  0  0.984015  0  0  0.111849  0  1.046873  0  0  0.114059  0  1.047509  0  0  0.105758  0.110131  0  1.046872  0
H  H14  1  0.32463395  0.20549251  0.86350099  1  0  0.107721  0  0.932264  0  0  0.121008  0  0.988773  0  0  0.123201  0  0.987475  0  0  0.11542  0.11932  0  0.989836  0
H  H15  1  0.67546089  0.20545669  0.63647534  1  0  0.107675  0  0.932392  0  0  0.121081  0  0.988787  0  0  0.123363  0  0.987377  0  0  0.115395  0.119355  0  0.989893  0
H  H16  1  0.67542078  0.79456002  0.13649513  1  0  0.107577  0  0.932446  0  0  0.12094  0  0.988905  0  0  0.123223  0  0.987503  0  0  0.115342  0.119214  0  0.990034  0
H  H17  1  0.32454905  0.79447636  0.36351786  1  0  0.107692  0  0.932327  0  0  0.120953  0  0.988861  0  0  0.123138  0  0.987598  0  0  0.115419  0.119278  0  0.989927  0
H  H18  1  0.86989012  0.97216494  0.84337007  1  0  0.125833  0  0.959818  0  0  0.141643  0  1.024512  0  0  0.144818  0  1.021954  0  0  0.094731  0.139301  0  1.02641  0
H  H19  1  0.13007291  0.97215442  0.65662357  1  0  0.125778  0  0.959665  0  0  0.141593  0  1.024378  0  0  0.144764  0  1.021821  0  0  0.094718  0.139249  0  1.026278  0
H  H20  1  0.13006816  0.02786561  0.15662811  1  0  0.125724  0  0.959733  0  0  0.141595  0  1.02438  0  0  0.144771  0  1.021823  0  0  0.094744  0.139252  0  1.026278  0
H  H21  1  0.86986947  0.02780157  0.34336902  1  0  0.126083  0  0.959576  0  0  0.14179  0  1.024395  0  0  0.144963  0  1.021837  0  0  0.094815  0.139447  0  1.026291  0
H  H22  1  0.75705149  0.12926758  0.81116412  1  0  0.13821  0  0.955179  0  0  0.157923  0  1.018278  0  0  0.159866  0  1.016961  0  0  0.099327  0.156432  0  1.019222  0
H  H23  1  0.24295600  0.12926404  0.68882565  1  0  0.138088  0  0.955243  0  0  0.157766  0  1.018401  0  0  0.159706  0  1.017087  0  0  0.099279  0.156275  0  1.019346  0
H  H24  1  0.24291780  0.87076392  0.18883667  1  0  0.138234  0  0.955212  0  0  0.157876  0  1.018373  0  0  0.1598  0  1.01711  0  0  0.099364  0.156383  0  1.019352  0
H  H25  1  0.75701475  0.87068430  0.31117659  1  0  0.138079  0  0.955224  0  0  0.157935  0  1.018176  0  0  0.159855  0  1.016908  0  0  0.099357  0.156442  0  1.019156  0
H  H26  1  0.52581759  0.01037734  0.84318655  1  0  0.121224  0  0.944863  0  0  0.143741  0  1.005494  0  0  0.144636  0  1.005786  0  0  0.097589  0.143096  0  1.005225  0
H  H27  1  0.47416654  0.01036323  0.65682027  1  0  0.121222  0  0.944763  0  0  0.143693  0  1.00545  0  0  0.144588  0  1.005745  0  0  0.097553  0.143049  0  1.00518  0
H  H28  1  0.47414749  0.98966563  0.15683120  1  0  0.121108  0  0.944799  0  0  0.143565  0  1.005529  0  0  0.144457  0  1.005828  0  0  0.097491  0.142925  0  1.005255  0
H  H29  1  0.52579100  0.98957938  0.34317994  1  0  0.121134  0  0.944991  0  0  0.143679  0  1.005637  0  0  0.144574  0  1.005927  0  0  0.097571  0.14304  0  1.005363  0
C  C30  1  0.61307767  0.24652355  0.07256572  1  0  0.095423  0  3.684957  0  0  0.05751  0  3.928191  0  0  0.064516  0  3.947223  0  0  0.052173  0.052775  0  3.91585  0
C  C31  1  0.38699658  0.24646026  0.42741671  1  0  0.095357  0  3.685063  0  0  0.057434  0  3.928062  0  0  0.06442  0  3.947103  0  0  0.052136  0.052712  0  3.915723  0
C  C32  1  0.38697511  0.75353089  0.92743031  1  0  0.095317  0  3.684676  0  0  0.057476  0  3.927686  0  0  0.064453  0  3.946724  0  0  0.052215  0.052749  0  3.915358  0
C  C33  1  0.61299717  0.75349382  0.57258805  1  0  0.095467  0  3.684817  0  0  0.057587  0  3.927922  0  0  0.064591  0  3.946956  0  0  0.052304  0.052876  0  3.915536  0
C  C34  1  0.24855025  0.37844164  0.05621080  1  0  0.12044  0  3.69274  0  0  0.089936  0  3.936427  0  0  0.096722  0  3.956404  0  0  0.041647  0.085501  0  3.923025  0
C  C35  1  0.75154248  0.37838868  0.44377116  1  0  0.120661  0  3.692449  0  0  0.090048  0  3.936124  0  0  0.096821  0  3.956146  0  0  0.041618  0.085659  0  3.922711  0
C  C36  1  0.75149053  0.62160707  0.94378532  1  0  0.120521  0  3.69238  0  0  0.090007  0  3.936134  0  0  0.096789  0  3.956081  0  0  0.041668  0.085592  0  3.92268  0
C  C37  1  0.24845589  0.62157783  0.55624276  1  0  0.120428  0  3.692452  0  0  0.089804  0  3.936221  0  0  0.096592  0  3.956199  0  0  0.041565  0.085395  0  3.922775  0
C  C38  1  0.19999553  0.33392952  0.96842094  1  0  -0.115243  0  3.734542  0  0  -0.129822  0  3.988963  0  0  -0.138038  0  4.012818  0  0  -0.085268  -0.124485  0  3.972832  0
C  C39  1  0.80010762  0.33387321  0.53155314  1  0  -0.115202  0  3.734533  0  0  -0.129636  0  3.988962  0  0  -0.137876  0  4.012884  0  0  -0.085216  -0.124293  0  3.972803  0
C  C40  1  0.80004795  0.66612684  0.03157326  1  0  -0.115253  0  3.734333  0  0  -0.129692  0  3.988718  0  0  -0.137929  0  4.012669  0  0  -0.085325  -0.124349  0  3.9726  0
C  C41  1  0.19989371  0.66607800  0.46845268  1  0  -0.115022  0  3.734232  0  0  -0.129613  0  3.988559  0  0  -0.137842  0  4.012479  0  0  -0.085131  -0.124275  0  3.972461  0
C  C42  1  0.36408706  0.24090351  0.93214917  1  0  -0.000612  0  3.635488  0  0  -0.028787  0  3.880977  0  0  -0.024417  0  3.898866  0  0  -0.054001  -0.031313  0  3.868814  0
C  C43  1  0.63600805  0.24085872  0.56782831  1  0  -0.000856  0  3.635593  0  0  -0.029316  0  3.881045  0  0  -0.025016  0  3.898925  0  0  -0.054171  -0.031826  0  3.868921  0
C  C44  1  0.63596059  0.75914902  0.06784454  1  0  -0.000825  0  3.635878  0  0  -0.029307  0  3.881281  0  0  -0.025015  0  3.899211  0  0  -0.054143  -0.031808  0  3.869167  0
C  C45  1  0.36400628  0.75908771  0.43216924  1  0  -0.000785  0  3.635622  0  0  -0.029042  0  3.881141  0  0  -0.024675  0  3.89907  0  0  -0.054187  -0.031584  0  3.869026  0
C  C46  1  0.57432170  0.19334189  0.98541601  1  0  -0.044391  0  3.738163  0  0  -0.022078  0  3.966716  0  0  -0.029172  0  3.991277  0  0  -0.001082  -0.017738  0  3.950687  0
C  C47  1  0.42573167  0.19328386  0.51456201  1  0  -0.044176  0  3.738187  0  0  -0.021545  0  3.966336  0  0  -0.028604  0  3.99086  0  0  -0.000917  -0.017215  0  3.950302  0
C  C48  1  0.42571420  0.80671447  0.01457712  1  0  -0.044313  0  3.738023  0  0  -0.021567  0  3.965861  0  0  -0.028617  0  3.990393  0  0  -0.000955  -0.017242  0  3.94984  0
C  C49  1  0.57424890  0.80666736  0.48542973  1  0  -0.04441  0  3.738257  0  0  -0.021938  0  3.966481  0  0  -0.029041  0  3.991075  0  0  -0.001051  -0.017603  0  3.95047  0
C  C50  1  0.75022267  0.09087433  0.95367158  1  0  0.281735  0  3.669441  0  0  0.281245  0  3.929288  0  0  0.290694  0  3.946837  0  0  0.151498  0.274725  0  3.917418  0
C  C51  1  0.24981783  0.09084058  0.54631672  1  0  0.281655  0  3.669743  0  0  0.281077  0  3.929578  0  0  0.290514  0  3.947141  0  0  0.151439  0.274566  0  3.917697  0
C  C52  1  0.24980000  0.90917151  0.04632501  1  0  0.281503  0  3.66986  0  0  0.281091  0  3.929376  0  0  0.290521  0  3.946948  0  0  0.151409  0.274583  0  3.917506  0
C  C53  1  0.75015538  0.90912019  0.45367877  1  0  0.281885  0  3.669636  0  0  0.281458  0  3.929357  0  0  0.290903  0  3.946908  0  0  0.15165  0.274935  0  3.917497  0
C  C54  1  0.72609724  0.04733622  0.85683267  1  0  -0.39151  0  3.706051  0  0  -0.472726  0  3.937784  0  0  -0.475991  0  3.944169  0  0  -0.244515  -0.470049  0  3.933275  0
C  C55  1  0.27388808  0.04732102  0.64315744  1  0  -0.391388  0  3.705733  0  0  -0.472527  0  3.93754  0  0  -0.475794  0  3.943936  0  0  -0.24442  -0.469851  0  3.933028  0
C  C56  1  0.27387157  0.95269815  0.14316397  1  0  -0.391207  0  3.705877  0  0  -0.472438  0  3.937658  0  0  -0.475701  0  3.944098  0  0  -0.244408  -0.469765  0  3.933157  0
C  C57  1  0.72605552  0.95263497  0.35683726  1  0  -0.391563  0  3.70597  0  0  -0.472863  0  3.937648  0  0  -0.476106  0  3.94407  0  0  -0.244577  -0.470192  0  3.933148  0
N  N58  1  0.45459705  0.33596498  0.10742838  1  0  -0.296857  0  3.370078  0  0  -0.206249  0  3.648645  0  0  -0.22663  0  3.666372  0  0  -0.348354  -0.19241  0  3.636203  0
N  N59  1  0.54546917  0.33589907  0.39255405  1  0  -0.29666  0  3.369792  0  0  -0.206082  0  3.648414  0  0  -0.226453  0  3.666125  0  0  -0.348288  -0.192257  0  3.635982  0
N  N60  1  0.54545035  0.66408755  0.89256600  1  0  -0.29653  0  3.369724  0  0  -0.206079  0  3.648441  0  0  -0.226434  0  3.666122  0  0  -0.348328  -0.192253  0  3.635999  0
N  N61  1  0.45451772  0.66406648  0.60745311  1  0  -0.29677  0  3.370185  0  0  -0.206154  0  3.648788  0  0  -0.226541  0  3.666497  0  0  -0.348495  -0.192312  0  3.636325  0
N  N62  1  0.91627312  0.04656342  0.01509763  1  0  -0.267164  0  3.077157  0  0  -0.238441  0  3.358373  0  0  -0.250826  0  3.379051  0  0  -0.213827  -0.229772  0  3.34423  0
N  N63  1  0.08375438  0.04651469  0.48489526  1  0  -0.267257  0  3.077016  0  0  -0.238588  0  3.358323  0  0  -0.250972  0  3.379002  0  0  -0.213993  -0.229923  0  3.344177  0
N  N64  1  0.08377109  0.95348529  0.98490003  1  0  -0.266989  0  3.077429  0  0  -0.238361  0  3.358608  0  0  -0.250744  0  3.379292  0  0  -0.213889  -0.229701  0  3.344467  0
N  N65  1  0.91623180  0.95343939  0.51510294  1  0  -0.266917  0  3.07687  0  0  -0.238215  0  3.357997  0  0  -0.250598  0  3.378673  0  0  -0.213783  -0.229548  0  3.343854  0
N  N66  1  0.99999509  0.59258935  0.25000154  1  0  0.683039  0  4.158018  0  0  0.726618  0  4.435104  0  0  0.743002  0  4.45841  0  0  0.085355  0.707394  0  4.430403  0
N  N67  1  0.99996658  0.40740534  0.74999913  1  0  0.683221  0  4.157646  0  0  0.71456  0  4.452064  0  0  0.742788  0  4.458473  0  0  0.085193  0.707283  0  4.430349  0
O  O68  1  0.18632728  0.65150517  0.21222265  1  0  -0.473038  0  1.741106  0  0  -0.468803  0  1.955532  0  0  -0.478669  0  1.953442  0  0  -0.198679  -0.458879  0  1.960191  0
O  O69  1  0.81360931  0.65145169  0.28778557  1  0  -0.4728  0  1.740671  0  0  -0.468673  0  1.955246  0  0  -0.478528  0  1.953123  0  0  -0.198611  -0.458775  0  1.95996  0
O  O70  1  0.81360359  0.34850818  0.78777416  1  0  -0.473021  0  1.740547  0  0  -0.464795  0  1.960069  0  0  -0.478638  0  1.953212  0  0  -0.198682  -0.458883  0  1.959895  0
O  O71  1  0.18632009  0.34852342  0.71220980  1  0  -0.472979  0  1.74075  0  0  -0.464585  0  1.960053  0  0  -0.478442  0  1.953216  0  0  -0.198519  -0.458669  0  1.959883  0
O  O72  1  0.00004416  0.46957318  0.24999435  1  0  -0.52465  0  1.821929  0  0  -0.501236  0  2.080474  0  0  -0.51522  0  2.07024  0  0  -0.221343  -0.488264  0  2.0904  0
O  O73  1  0.99997968  0.53042009  0.75001534  1  0  -0.524601  0  1.82194  0  0  -0.497143  0  2.085239  0  0  -0.515113  0  2.070436  0  0  -0.221235  -0.488176  0  2.090513  0
