# generated using pymatgen
data_Ag5H16C20(N3O5)3
_symmetry_space_group_name_H-M   'P 1'
_cell_length_a   8.00394882
_cell_length_b   11.56684283
_cell_length_c   17.54997853
_cell_angle_alpha   103.06744892
_cell_angle_beta   89.98299426
_cell_angle_gamma   110.23989853
_symmetry_Int_Tables_number   1
_chemical_formula_structural   Ag5H16C20(N3O5)3
_chemical_formula_sum   'Ag10 H32 C40 N18 O30'
_cell_volume   1479.57427678
_cell_formula_units_Z   2
loop_
 _symmetry_equiv_pos_site_id
 _symmetry_equiv_pos_as_xyz
  1  'x, y, z'
loop_
 _atom_site_type_symbol
 _atom_site_label
 _atom_site_symmetry_multiplicity
 _atom_site_fract_x
 _atom_site_fract_y
 _atom_site_fract_z
 _atom_site_occupancy
 _atom_site_hle17_bader_spin_density
 _atom_site_hle17_ddec_charge
 _atom_site_hle17_ddec_spin_density
 _atom_site_hle17_ddec_sum_bond_order
 _atom_site_hle17_magmom
 _atom_site_hse06_10hf_bader_spin_density
 _atom_site_hse06_10hf_ddec_charge
 _atom_site_hse06_10hf_ddec_spin_density
 _atom_site_hse06_10hf_ddec_sum_bond_order
 _atom_site_hse06_10hf_magmom
 _atom_site_hse06_bader_spin_density
 _atom_site_hse06_ddec_charge
 _atom_site_hse06_ddec_spin_density
 _atom_site_hse06_ddec_sum_bond_order
 _atom_site_hse06_magmom
 _atom_site_pbe_bader_spin_density
 _atom_site_pbe_cm5_charge
 _atom_site_pbe_ddec_charge
 _atom_site_pbe_ddec_spin_density
 _atom_site_pbe_ddec_sum_bond_order
 _atom_site_pbe_magmom
Ag  Ag0  1  0.62210079  0.61243084  0.83731804  1  0  0.557868  0  1.392014  0  0  0.418418  0  1.833333  0  0  0.451199  0  1.781091  0  0  0.450371  0.395575  0  1.869552  0
Ag  Ag1  1  0.00992738  0.38764093  0.66254728  1  0  0.557791  0  1.39036  0  0  0.418286  0  1.831707  0  0  0.451186  0  1.779442  0  0  0.450066  0.395256  0  1.868276  0
Ag  Ag2  1  0.37789916  0.38757390  0.16268162  1  0  0.55796  0  1.392006  0  0  0.418405  0  1.833374  0  0  0.451324  0  1.781091  0  0  0.450362  0.395561  0  1.869592  0
Ag  Ag3  1  0.99007424  0.61235716  0.33745140  1  0  0.557862  0  1.390319  0  0  0.418315  0  1.831634  0  0  0.451265  0  1.77937  0  0  0.450066  0.395283  0  1.86826  0
Ag  Ag4  1  0.05655300  0.99997625  0.74996997  1  0  0.632843  0  1.145601  0  0  0.514791  0  1.550244  0  0  0.553319  0  1.494098  0  0  0.439994  0.48701  0  1.589836  0
Ag  Ag5  1  0.94344411  0.00002280  0.25002999  1  0  0.632855  0  1.145604  0  0  0.5148  0  1.550253  0  0  0.553331  0  1.49408  0  0  0.439992  0.48702  0  1.589827  0
Ag  Ag6  1  0.38869962  0.75492532  0.82469646  1  0  0.572595  0  1.353639  0  0  0.434422  0  1.790651  0  0  0.467041  0  1.738388  0  0  0.446859  0.411719  0  1.826897  0
Ag  Ag7  1  0.63413696  0.24511668  0.67532782  1  0  0.572965  0  1.353387  0  0  0.435122  0  1.790181  0  0  0.467863  0  1.737855  0  0  0.446901  0.41238  0  1.826655  0
Ag  Ag8  1  0.61130047  0.24507469  0.17530478  1  0  0.57274  0  1.353517  0  0  0.434459  0  1.790577  0  0  0.46723  0  1.738273  0  0  0.446877  0.411742  0  1.826852  0
Ag  Ag9  1  0.36586186  0.75488331  0.32467114  1  0  0.573023  0  1.353345  0  0  0.435187  0  1.790089  0  0  0.467926  0  1.73779  0  0  0.446913  0.412438  0  1.82662  0
H  H10  1  0.69131700  0.85156096  0.11125953  1  0  0.108087  0  0.963508  0  0  0.113983  0  1.03351  0  0  0.117504  0  1.031678  0  0  0.103575  0.111448  0  1.035004  0
H  H11  1  0.83996427  0.14853429  0.38856802  1  0  0.108453  0  0.96361  0  0  0.114727  0  1.033112  0  0  0.118247  0  1.031269  0  0  0.103849  0.112158  0  1.034638  0
H  H12  1  0.30868058  0.14843904  0.88874114  1  0  0.1081  0  0.963485  0  0  0.114016  0  1.033481  0  0  0.117539  0  1.031633  0  0  0.103595  0.111482  0  1.034962  0
H  H13  1  0.16003623  0.85145905  0.61142996  1  0  0.108452  0  0.96355  0  0  0.114735  0  1.033045  0  0  0.118253  0  1.031201  0  0  0.103803  0.112165  0  1.034568  0
H  H14  1  0.69067065  0.00936204  0.87375527  1  0  0.084418  0  0.969775  0  0  0.087708  0  1.044565  0  0  0.09004  0  1.042248  0  0  0.11146  0.085997  0  1.046198  0
H  H15  1  0.68116546  0.99062092  0.62603277  1  0  0.084481  0  0.968649  0  0  0.08714  0  1.044127  0  0  0.089533  0  1.041773  0  0  0.111357  0.085367  0  1.045815  0
H  H16  1  0.30933644  0.99063700  0.12624298  1  0  0.084414  0  0.969803  0  0  0.087729  0  1.044531  0  0  0.09006  0  1.042239  0  0  0.111442  0.086005  0  1.046199  0
H  H17  1  0.31882980  0.00938194  0.37396946  1  0  0.084489  0  0.968539  0  0  0.087141  0  1.044017  0  0  0.089532  0  1.041683  0  0  0.111341  0.085372  0  1.045718  0
H  H18  1  0.89749354  0.15155603  0.99005353  1  0  0.115058  0  0.942625  0  0  0.128138  0  0.996745  0  0  0.130885  0  0.996253  0  0  0.111915  0.126232  0  0.997069  0
H  H19  1  0.74533251  0.84829681  0.50961733  1  0  0.115041  0  0.942851  0  0  0.128509  0  0.996245  0  0  0.131184  0  0.995883  0  0  0.11185  0.126294  0  0.997209  0
H  H20  1  0.10251433  0.84844207  0.00994515  1  0  0.115069  0  0.942648  0  0  0.128165  0  0.996715  0  0  0.130897  0  0.99629  0  0  0.111899  0.126258  0  0.997054  0
H  H21  1  0.25466508  0.15170322  0.49038733  1  0  0.115067  0  0.942816  0  0  0.128534  0  0.996215  0  0  0.131212  0  0.995847  0  0  0.111835  0.126319  0  0.997181  0
H  H22  1  0.90064143  0.07138112  0.11139293  1  0  0.099585  0  0.959411  0  0  0.1082  0  1.026209  0  0  0.111162  0  1.022772  0  0  0.104982  0.105909  0  1.028941  0
H  H23  1  0.82892750  0.92854519  0.38831837  1  0  0.099226  0  0.960021  0  0  0.108074  0  1.026443  0  0  0.111015  0  1.023078  0  0  0.104711  0.105861  0  1.029009  0
H  H24  1  0.09936287  0.92861983  0.88860788  1  0  0.099578  0  0.959478  0  0  0.10824  0  1.026219  0  0  0.111192  0  1.022801  0  0  0.105001  0.10595  0  1.028951  0
H  H25  1  0.17107176  0.07144818  0.61168304  1  0  0.099172  0  0.960045  0  0  0.108042  0  1.026472  0  0  0.110988  0  1.023077  0  0  0.104699  0.105816  0  1.029056  0
H  H26  1  0.35476366  0.74532434  0.10522885  1  0  0.120345  0  0.941037  0  0  0.129342  0  1.001387  0  0  0.132452  0  1.000684  0  0  0.110755  0.127044  0  1.002128  0
H  H27  1  0.60955402  0.25486660  0.39475248  1  0  0.119993  0  0.940361  0  0  0.128836  0  1.001039  0  0  0.131934  0  1.000296  0  0  0.110526  0.126585  0  1.00171  0
H  H28  1  0.64523457  0.25467947  0.89477295  1  0  0.120421  0  0.941013  0  0  0.129391  0  1.001408  0  0  0.132505  0  1.000676  0  0  0.110771  0.127091  0  1.002128  0
H  H29  1  0.39044635  0.74513149  0.60524506  1  0  0.119967  0  0.940438  0  0  0.128843  0  1.00108  0  0  0.131939  0  1.00034  0  0  0.110528  0.126592  0  1.001748  0
H  H30  1  0.31145833  0.40399785  0.87233476  1  0  0.087094  0  0.943329  0  0  0.092225  0  1.012421  0  0  0.094756  0  1.01008  0  0  0.115231  0.090359  0  1.014088  0
H  H31  1  0.90728228  0.59599564  0.62770507  1  0  0.087123  0  0.942609  0  0  0.09247  0  1.011627  0  0  0.095081  0  1.009198  0  0  0.115146  0.090533  0  1.013384  0
H  H32  1  0.68854490  0.59600595  0.12766647  1  0  0.087121  0  0.943307  0  0  0.092225  0  1.012417  0  0  0.094755  0  1.010095  0  0  0.115221  0.090353  0  1.014097  0
H  H33  1  0.09271590  0.40400056  0.37229391  1  0  0.087138  0  0.942566  0  0  0.092456  0  1.011621  0  0  0.0951  0  1.009139  0  0  0.115141  0.090522  0  1.01338  0
H  H34  1  0.13452018  0.53040892  0.09820426  1  0  0.107469  0  0.961446  0  0  0.114862  0  1.025253  0  0  0.117617  0  1.023011  0  0  0.107439  0.112724  0  1.027113  0
H  H35  1  0.60424535  0.46983507  0.40184397  1  0  0.106858  0  0.961595  0  0  0.114197  0  1.025676  0  0  0.116893  0  1.023504  0  0  0.10748  0.112195  0  1.027277  0
H  H36  1  0.86547882  0.46959393  0.90179625  1  0  0.107476  0  0.961465  0  0  0.114874  0  1.025283  0  0  0.117613  0  1.023041  0  0  0.107459  0.112739  0  1.027108  0
H  H37  1  0.39575799  0.53016396  0.59815257  1  0  0.106823  0  0.961552  0  0  0.114132  0  1.025679  0  0  0.116829  0  1.023502  0  0  0.107458  0.112129  0  1.027279  0
H  H38  1  0.10862121  0.35392166  0.97800859  1  0  0.110411  0  0.951354  0  0  0.120831  0  1.011709  0  0  0.12397  0  1.010609  0  0  0.108382  0.118566  0  1.012669  0
H  H39  1  0.75476602  0.64624674  0.52209914  1  0  0.110252  0  0.950946  0  0  0.120712  0  1.011095  0  0  0.123778  0  1.010105  0  0  0.108312  0.11822  0  1.012489  0
H  H40  1  0.89137904  0.64608118  0.02199192  1  0  0.110401  0  0.951432  0  0  0.120832  0  1.011754  0  0  0.123966  0  1.010687  0  0  0.108366  0.118566  0  1.012738  0
H  H41  1  0.24523685  0.35375135  0.47789897  1  0  0.110342  0  0.950927  0  0  0.120788  0  1.01109  0  0  0.123845  0  1.010116  0  0  0.108345  0.118298  0  1.012487  0
C  C42  1  0.57793579  0.81751230  0.99327563  1  0  0.172126  0  3.768518  0  0  0.168536  0  4.004653  0  0  0.175355  0  4.026605  0  0  0.115414  0.164284  0  3.989169  0
C  C43  1  0.76054911  0.18257279  0.50655472  1  0  0.17255  0  3.767108  0  0  0.168278  0  4.004148  0  0  0.175105  0  4.026093  0  0  0.115046  0.163778  0  3.989089  0
C  C44  1  0.42206899  0.18248960  0.00672589  1  0  0.171968  0  3.768668  0  0  0.168486  0  4.004711  0  0  0.175305  0  4.026667  0  0  0.115349  0.164235  0  3.989222  0
C  C45  1  0.23945002  0.81742531  0.49344453  1  0  0.17242  0  3.767235  0  0  0.168162  0  4.004276  0  0  0.174979  0  4.026252  0  0  0.114937  0.163664  0  3.989208  0
C  C46  1  0.44927374  0.68872656  0.99222118  1  0  0.167748  0  3.772435  0  0  0.163883  0  4.008675  0  0  0.17019  0  4.030898  0  0  0.114923  0.15992  0  3.992984  0
C  C47  1  0.76066494  0.31139175  0.50770194  1  0  0.168186  0  3.771998  0  0  0.165139  0  4.007874  0  0  0.171383  0  4.030238  0  0  0.115215  0.160962  0  3.992572  0
C  C48  1  0.55073027  0.31127630  0.00778105  1  0  0.167855  0  3.772478  0  0  0.163893  0  4.008779  0  0  0.170205  0  4.031  0  0  0.114938  0.159931  0  3.993087  0
C  C49  1  0.23933543  0.68860634  0.49229617  1  0  0.168308  0  3.772035  0  0  0.165236  0  4.007934  0  0  0.171483  0  4.030295  0  0  0.115224  0.161056  0  3.992633  0
C  C50  1  0.69263425  0.89080637  0.06024831  1  0  -0.145577  0  3.695637  0  0  -0.160797  0  3.938571  0  0  -0.16937  0  3.961542  0  0  -0.082973  -0.155436  0  3.923284  0
C  C51  1  0.80190347  0.10925801  0.43956408  1  0  -0.145733  0  3.694098  0  0  -0.16116  0  3.937226  0  0  -0.169691  0  3.960159  0  0  -0.08324  -0.155706  0  3.922079  0
C  C52  1  0.30737101  0.10919650  0.93975448  1  0  -0.145573  0  3.695643  0  0  -0.160829  0  3.93856  0  0  -0.1694  0  3.961513  0  0  -0.082984  -0.15547  0  3.923266  0
C  C53  1  0.19809471  0.89073819  0.56043432  1  0  -0.145733  0  3.694171  0  0  -0.161169  0  3.937288  0  0  -0.169699  0  3.960221  0  0  -0.083166  -0.155706  0  3.922117  0
C  C54  1  0.69318244  0.97892647  0.92796372  1  0  0.138215  0  3.677627  0  0  0.106716  0  3.927308  0  0  0.113758  0  3.946907  0  0  0.044399  0.102216  0  3.913778  0
C  C55  1  0.71412260  0.02107685  0.57181921  1  0  0.139825  0  3.676341  0  0  0.108873  0  3.925727  0  0  0.115881  0  3.945264  0  0  0.045487  0.104314  0  3.912245  0
C  C56  1  0.30682513  0.02107352  0.07203524  1  0  0.138103  0  3.677776  0  0  0.106592  0  3.927432  0  0  0.113636  0  3.947054  0  0  0.044363  0.102097  0  3.91392  0
C  C57  1  0.28587451  0.97892221  0.42818189  1  0  0.139854  0  3.67635  0  0  0.108903  0  3.925717  0  0  0.115909  0  3.945281  0  0  0.045507  0.104339  0  3.912267  0
C  C58  1  0.80920252  0.05728722  0.99289023  1  0  -0.099558  0  3.697601  0  0  -0.11178  0  3.943103  0  0  -0.118953  0  3.965376  0  0  -0.078601  -0.107334  0  3.928093  0
C  C59  1  0.75152960  0.94262423  0.50683239  1  0  -0.100119  0  3.697755  0  0  -0.112595  0  3.942827  0  0  -0.119704  0  3.965022  0  0  -0.079054  -0.107876  0  3.927924  0
C  C60  1  0.19080660  0.94271087  0.00710845  1  0  -0.099467  0  3.697561  0  0  -0.111693  0  3.943045  0  0  -0.118877  0  3.96533  0  0  -0.078557  -0.107248  0  3.928051  0
C  C61  1  0.24846876  0.05737482  0.49316871  1  0  -0.100173  0  3.697823  0  0  -0.112646  0  3.942902  0  0  -0.119756  0  3.965094  0  0  -0.079028  -0.107928  0  3.928006  0
C  C62  1  0.80948806  0.01235159  0.06009131  1  0  0.002201  0  3.718933  0  0  -0.016973  0  3.97089  0  0  -0.013264  0  3.989623  0  0  -0.066201  -0.019196  0  3.958505  0
C  C63  1  0.79686919  0.98759973  0.43964794  1  0  0.001657  0  3.718341  0  0  -0.017578  0  3.970272  0  0  -0.013893  0  3.989028  0  0  -0.06612  -0.019782  0  3.957555  0
C  C64  1  0.19051374  0.98764936  0.93990893  1  0  0.002161  0  3.718965  0  0  -0.017054  0  3.97093  0  0  -0.01335  0  3.989682  0  0  -0.066204  -0.019279  0  3.958543  0
C  C65  1  0.20312977  0.01239553  0.56035318  1  0  0.001786  0  3.718407  0  0  -0.01747  0  3.970331  0  0  -0.013783  0  3.98908  0  0  -0.066101  -0.019677  0  3.957599  0
C  C66  1  0.34368086  0.66764360  0.05468566  1  0  -0.128022  0  3.668009  0  0  -0.143603  0  3.909128  0  0  -0.150924  0  3.930047  0  0  -0.075437  -0.139121  0  3.895249  0
C  C67  1  0.67609621  0.33252337  0.44530664  1  0  -0.128646  0  3.666522  0  0  -0.144325  0  3.907885  0  0  -0.151597  0  3.928796  0  0  -0.075492  -0.139662  0  3.894046  0
C  C68  1  0.65632189  0.33235925  0.94531543  1  0  -0.128112  0  3.668031  0  0  -0.143665  0  3.909201  0  0  -0.150984  0  3.930088  0  0  -0.07544  -0.139175  0  3.895302  0
C  C69  1  0.32390588  0.66747566  0.55468990  1  0  -0.128793  0  3.666687  0  0  -0.144494  0  3.908044  0  0  -0.151769  0  3.928954  0  0  -0.075539  -0.139831  0  3.894201  0
C  C70  1  0.31632327  0.47647539  0.92501983  1  0  0.142414  0  3.675064  0  0  0.10827  0  3.927723  0  0  0.115758  0  3.947084  0  0  0.044941  0.103492  0  3.914401  0
C  C71  1  0.83971914  0.52356978  0.57499591  1  0  0.141066  0  3.675239  0  0  0.106912  0  3.928009  0  0  0.114318  0  3.947351  0  0  0.044104  0.101993  0  3.914855  0
C  C72  1  0.68368043  0.52352936  0.07498154  1  0  0.142428  0  3.675056  0  0  0.108318  0  3.927651  0  0  0.115798  0  3.947052  0  0  0.044941  0.103529  0  3.914385  0
C  C73  1  0.16028171  0.47642926  0.42500233  1  0  0.141057  0  3.675241  0  0  0.106921  0  3.928005  0  0  0.114325  0  3.947322  0  0  0.044103  0.101998  0  3.91486  0
C  C74  1  0.21990611  0.54658446  0.05062716  1  0  0.001163  0  3.710674  0  0  -0.019152  0  3.965799  0  0  -0.014651  0  3.982296  0  0  -0.066381  -0.021961  0  3.955095  0
C  C75  1  0.67340272  0.45361619  0.44939288  1  0  0.002432  0  3.708964  0  0  -0.017745  0  3.964249  0  0  -0.013186  0  3.980643  0  0  -0.066343  -0.020732  0  3.953252  0
C  C76  1  0.78009461  0.45341933  0.94937350  1  0  0.001231  0  3.710687  0  0  -0.019061  0  3.965807  0  0  -0.014565  0  3.982292  0  0  -0.066361  -0.02187  0  3.955075  0
C  C77  1  0.32660109  0.54638379  0.55060323  1  0  0.00269  0  3.708741  0  0  -0.017452  0  3.964024  0  0  -0.012893  0  3.980418  0  0  -0.066253  -0.020436  0  3.953019  0
C  C78  1  0.20495800  0.44954792  0.98445207  1  0  -0.107797  0  3.713293  0  0  -0.123076  0  3.968474  0  0  -0.130309  0  3.989545  0  0  -0.080953  -0.118769  0  3.95464  0
C  C79  1  0.75545411  0.55060096  0.51558072  1  0  -0.107267  0  3.712813  0  0  -0.122534  0  3.968245  0  0  -0.129698  0  3.989369  0  0  -0.080309  -0.117744  0  3.954153  0
C  C80  1  0.79504351  0.55045493  0.01554959  1  0  -0.107917  0  3.713381  0  0  -0.123208  0  3.96853  0  0  -0.13045  0  3.989634  0  0  -0.081004  -0.118906  0  3.95472  0
C  C81  1  0.24454752  0.44939713  0.48441739  1  0  -0.107402  0  3.712728  0  0  -0.122675  0  3.968192  0  0  -0.129838  0  3.989312  0  0  -0.080342  -0.117887  0  3.954108  0
N  N82  1  0.57890224  0.86176681  0.92805679  1  0  -0.346983  0  3.341915  0  0  -0.262792  0  3.611976  0  0  -0.284239  0  3.629584  0  0  -0.339297  -0.248182  0  3.599478  0
N  N83  1  0.71722336  0.13829538  0.57178446  1  0  -0.34877  0  3.341143  0  0  -0.264451  0  3.611302  0  0  -0.285886  0  3.628899  0  0  -0.339808  -0.249703  0  3.598975  0
N  N84  1  0.42109832  0.13823415  0.07194459  1  0  -0.346847  0  3.342086  0  0  -0.262686  0  3.612122  0  0  -0.284131  0  3.629726  0  0  -0.339238  -0.248075  0  3.599616  0
N  N85  1  0.28277249  0.86170366  0.42821436  1  0  -0.348821  0  3.341197  0  0  -0.264497  0  3.611317  0  0  -0.285933  0  3.628941  0  0  -0.339817  -0.249754  0  3.599016  0
N  N86  1  0.43646771  0.59323701  0.92879335  1  0  -0.357178  0  3.376633  0  0  -0.269717  0  3.647236  0  0  -0.291576  0  3.665073  0  0  -0.344107  -0.25487  0  3.634616  0
N  N87  1  0.84324267  0.40681612  0.57116278  1  0  -0.356071  0  3.374494  0  0  -0.269296  0  3.645407  0  0  -0.291136  0  3.663345  0  0  -0.343482  -0.254292  0  3.632952  0
N  N88  1  0.56353255  0.40676584  0.07120831  1  0  -0.357252  0  3.376815  0  0  -0.269745  0  3.64742  0  0  -0.291601  0  3.665251  0  0  -0.3441  -0.254897  0  3.634793  0
N  N89  1  0.15675943  0.59318292  0.42883604  1  0  -0.356108  0  3.374545  0  0  -0.269328  0  3.645465  0  0  -0.291164  0  3.663392  0  0  -0.343468  -0.254325  0  3.633017  0
N  N90  1  0.99708002  0.63036672  0.79911134  1  0  0.688581  0  4.10411  0  0  0.715708  0  4.382567  0  0  0.743837  0  4.392466  0  0  0.09232  0.695552  0  4.375497  0
N  N91  1  0.36682558  0.36964251  0.70088337  1  0  0.685514  0  4.106573  0  0  0.726768  0  4.365554  0  0  0.742673  0  4.394555  0  0  0.092143  0.706295  0  4.358967  0
N  N92  1  0.00291928  0.36963422  0.20088776  1  0  0.689413  0  4.103687  0  0  0.715736  0  4.382596  0  0  0.745542  0  4.392154  0  0  0.092353  0.695582  0  4.375528  0
N  N93  1  0.63317545  0.63035940  0.29911757  1  0  0.685509  0  4.106911  0  0  0.726827  0  4.365788  0  0  0.742655  0  4.394932  0  0  0.09217  0.706353  0  4.359227  0
N  N94  1  0.42575062  0.99989352  0.75001835  1  0  0.676884  0  4.138744  0  0  0.709337  0  4.418403  0  0  0.737798  0  4.428208  0  0  0.087633  0.691676  0  4.410692  0
N  N95  1  0.57424649  0.00010553  0.24998218  1  0  0.676986  0  4.13882  0  0  0.709439  0  4.418467  0  0  0.737902  0  4.428278  0  0  0.087686  0.691773  0  4.41076  0
N  N96  1  0.73413810  0.77616566  0.71227510  1  0  0.690523  0  4.131429  0  0  0.718064  0  4.420087  0  0  0.748136  0  4.42813  0  0  0.087777  0.713363  0  4.391783  0
N  N97  1  0.95790916  0.22380328  0.78761915  1  0  0.693778  0  4.13019  0  0  0.719501  0  4.420327  0  0  0.7496  0  4.428318  0  0  0.087367  0.712907  0  4.394766  0
N  N98  1  0.26585745  0.22383528  0.28772399  1  0  0.690511  0  4.131433  0  0  0.71813  0  4.41998  0  0  0.748204  0  4.428015  0  0  0.08785  0.713335  0  4.391787  0
N  N99  1  0.04208592  0.77619671  0.21238038  1  0  0.69374  0  4.13011  0  0  0.733428  0  4.400331  0  0  0.749508  0  4.428316  0  0  0.087341  0.712874  0  4.394687  0
O  O100  1  0.29376558  0.90208753  0.75663423  1  0  -0.483841  0  1.858463  0  0  -0.456555  0  2.117833  0  0  -0.47764  0  2.107697  0  0  -0.197713  -0.442288  0  2.124507  0
O  O101  1  0.39228615  0.09797235  0.74349236  1  0  -0.483762  0  1.85781  0  0  -0.456907  0  2.117399  0  0  -0.477861  0  2.107125  0  0  -0.197705  -0.442653  0  2.124049  0
O  O102  1  0.70623278  0.09791152  0.24336630  1  0  -0.48385  0  1.858466  0  0  -0.456556  0  2.11784  0  0  -0.477624  0  2.107664  0  0  -0.197715  -0.442282  0  2.124503  0
O  O103  1  0.60771048  0.90202575  0.25650632  1  0  -0.48382  0  1.857883  0  0  -0.456965  0  2.117454  0  0  -0.47792  0  2.107182  0  0  -0.197723  -0.442713  0  2.124114  0
O  O104  1  0.83859180  0.56877226  0.76714523  1  0  -0.447569  0  1.91947  0  0  -0.415113  0  2.181737  0  0  -0.436277  0  2.173184  0  0  -0.189285  -0.399829  0  2.18742  0
O  O105  1  0.26984532  0.43122533  0.73284566  1  0  -0.44584  0  1.921048  0  0  -0.418003  0  2.177623  0  0  -0.43526  0  2.174376  0  0  -0.188417  -0.402646  0  2.183467  0
O  O106  1  0.16140875  0.43122868  0.23285444  1  0  -0.447905  0  1.919425  0  0  -0.415107  0  2.181745  0  0  -0.437012  0  2.173222  0  0  -0.189298  -0.399821  0  2.187433  0
O  O107  1  0.73015006  0.56877279  0.26715587  1  0  -0.445864  0  1.921218  0  0  -0.418003  0  2.177744  0  0  -0.435229  0  2.174518  0  0  -0.1884  -0.402651  0  2.183604  0
O  O108  1  0.02733937  0.68828165  0.86993269  1  0  -0.443186  0  1.773742  0  0  -0.427134  0  1.996505  0  0  -0.440896  0  1.989065  0  0  -0.169075  -0.416915  0  2.001402  0
O  O109  1  0.33947634  0.31190091  0.63002778  1  0  -0.442531  0  1.773019  0  0  -0.431437  0  1.990051  0  0  -0.441195  0  1.988316  0  0  -0.169531  -0.421203  0  1.995263  0
O  O110  1  0.97266243  0.31171930  0.13006698  1  0  -0.443568  0  1.77374  0  0  -0.427165  0  1.99657  0  0  -0.441681  0  1.989113  0  0  -0.169096  -0.41694  0  2.001459  0
O  O111  1  0.66052641  0.68810194  0.36997217  1  0  -0.442467  0  1.773148  0  0  -0.431418  0  1.990158  0  0  -0.441148  0  1.988465  0  0  -0.169521  -0.421188  0  1.995381  0
O  O112  1  0.12519096  0.62947209  0.75518793  1  0  -0.4447  0  1.890527  0  0  -0.395651  0  2.138408  0  0  -0.41762  0  2.127937  0  0  -0.193105  -0.379819  0  2.145444  0
O  O113  1  0.49558631  0.37037446  0.74484055  1  0  -0.443135  0  1.889569  0  0  -0.398967  0  2.132182  0  0  -0.417125  0  2.127047  0  0  -0.193189  -0.383119  0  2.139327  0
O  O114  1  0.87480882  0.37052980  0.24481188  1  0  -0.445058  0  1.890475  0  0  -0.395657  0  2.138394  0  0  -0.418374  0  2.127964  0  0  -0.193095  -0.379827  0  2.145436  0
O  O115  1  0.50441550  0.62962649  0.25515969  1  0  -0.443193  0  1.889627  0  0  -0.399046  0  2.132215  0  0  -0.417168  0  2.127096  0  0  -0.19324  -0.383201  0  2.139372  0
O  O116  1  0.58198811  0.99960032  0.74993628  1  0  -0.425114  0  1.769348  0  0  -0.414799  0  1.987162  0  0  -0.428608  0  1.981014  0  0  -0.169767  -0.406061  0  1.991561  0
O  O117  1  0.41800994  0.00040064  0.25006453  1  0  -0.425179  0  1.769389  0  0  -0.414838  0  1.987202  0  0  -0.428669  0  1.981054  0  0  -0.16979  -0.406111  0  1.991589  0
O  O118  1  0.58493018  0.68661979  0.70585095  1  0  -0.455722  0  1.82151  0  0  -0.429065  0  2.059204  0  0  -0.44701  0  2.049934  0  0  -0.18187  -0.421712  0  2.059123  0
O  O119  1  0.89814702  0.31330021  0.79398473  1  0  -0.457004  0  1.8233  0  0  -0.429341  0  2.061423  0  0  -0.447261  0  2.051981  0  0  -0.181686  -0.421387  0  2.062271  0
O  O120  1  0.41506413  0.31338115  0.29414872  1  0  -0.455755  0  1.821596  0  0  -0.429109  0  2.059232  0  0  -0.447042  0  2.049942  0  0  -0.181918  -0.421731  0  2.0592  0
O  O121  1  0.10184711  0.68669788  0.20601453  1  0  -0.456968  0  1.823276  0  0  -0.433959  0  2.05576  0  0  -0.447193  0  2.051967  0  0  -0.181643  -0.421357  0  2.062291  0
O  O122  1  0.82334078  0.82527667  0.77960497  1  0  -0.487434  0  1.856999  0  0  -0.460481  0  2.114494  0  0  -0.482681  0  2.105032  0  0  -0.201091  -0.450115  0  2.114696  0
O  O123  1  0.99791836  0.17452117  0.72029591  1  0  -0.487561  0  1.855332  0  0  -0.460755  0  2.114252  0  0  -0.48296  0  2.104712  0  0  -0.200668  -0.449686  0  2.115127  0
O  O124  1  0.17665726  0.17472427  0.22039356  1  0  -0.487385  0  1.856928  0  0  -0.460435  0  2.114351  0  0  -0.482609  0  2.104851  0  0  -0.201065  -0.450037  0  2.114578  0
O  O125  1  0.00208095  0.82547978  0.27970490  1  0  -0.487545  0  1.855209  0  0  -0.465424  0  2.108656  0  0  -0.48294  0  2.10461  0  0  -0.200673  -0.449692  0  2.115011  0
O  O126  1  0.79641351  0.81779656  0.65363876  1  0  -0.461156  0  1.765492  0  0  -0.442249  0  1.993115  0  0  -0.45963  0  1.986067  0  0  -0.183503  -0.435106  0  1.991375  0
O  O127  1  0.97869444  0.18238572  0.84631594  1  0  -0.462537  0  1.763863  0  0  -0.442973  0  1.992096  0  0  -0.460315  0  1.984974  0  0  -0.183538  -0.435303  0  1.991126  0
O  O128  1  0.20358156  0.18220344  0.34636020  1  0  -0.461183  0  1.765457  0  0  -0.442307  0  1.993047  0  0  -0.459693  0  1.986009  0  0  -0.183552  -0.435126  0  1.991337  0
O  O129  1  0.02130284  0.81761618  0.15368387  1  0  -0.462558  0  1.763908  0  0  -0.447696  0  1.986413  0  0  -0.460294  0  1.985019  0  0  -0.183539  -0.435306  0  1.99115  0
