# generated using pymatgen
data_CuH29C32N5O6
_symmetry_space_group_name_H-M   'P 1'
_cell_length_a   7.28787237
_cell_length_b   9.18668327
_cell_length_c   12.66342684
_cell_angle_alpha   70.48682151
_cell_angle_beta   71.89388659
_cell_angle_gamma   73.19830952
_symmetry_Int_Tables_number   1
_chemical_formula_structural   CuH29C32N5O6
_chemical_formula_sum   'Cu1 H29 C32 N5 O6'
_cell_volume   743.15072030
_cell_formula_units_Z   1
loop_
 _symmetry_equiv_pos_site_id
 _symmetry_equiv_pos_as_xyz
  1  'x, y, z'
loop_
 _atom_site_type_symbol
 _atom_site_label
 _atom_site_symmetry_multiplicity
 _atom_site_fract_x
 _atom_site_fract_y
 _atom_site_fract_z
 _atom_site_occupancy
 _atom_site_pbe_cm5_charge
 _atom_site_pbe_ddec_charge
 _atom_site_pbe_ddec_spin_density
 _atom_site_pbe_ddec_sum_bond_order
 _atom_site_pbe_magmom
Cu  Cu0  1  0.59169014  0.91688605  0.09862441  1  0.734732  0.793442  -0.734682  2.207953  -0.572
H  H1  1  0.29564063  0.41807890  0.75133916  1  0.109418  0.106411  -2e-06  0.99853  0.0
H  H2  1  0.26473534  0.39129148  0.57323238  1  0.105397  0.103438  -2e-06  1.021801  0.0
H  H3  1  0.54905671  0.39601209  0.40171232  1  0.106136  0.106579  -2.4e-05  0.99526  0.0
H  H4  1  0.87364864  0.42047057  0.41418994  1  0.104224  0.102061  -3.4e-05  0.988579  0.0
H  H5  1  0.90828429  0.44278688  0.59831288  1  0.107117  0.107164  -1e-06  1.031158  0.0
H  H6  1  0.62322647  0.49969524  0.98937773  1  0.116593  0.086992  -0.001064  0.978964  -0.001
H  H7  1  0.23293188  0.58227940  0.03158364  1  0.09722  0.095031  -0.000249  1.003237  0.0
H  H8  1  0.23615473  0.38335100  0.11198970  1  0.094971  0.094216  -0.000587  0.988409  -0.001
H  H9  1  0.20485029  0.52897858  0.24691179  1  0.09986  0.115652  -0.000415  0.972859  0.0
H  H10  1  0.45737006  0.42875893  0.22315873  1  0.095967  0.11202  -1.1e-05  1.002744  0.0
H  H11  1  0.28766791  0.14553084  0.22101027  1  0.117659  0.088677  -0.000688  1.010688  -0.001
H  H12  1  0.17654166  0.17354025  0.42356216  1  0.104565  0.108063  -0.000567  1.032906  -0.001
H  H13  1  0.56592628  0.72449543  0.52148634  1  0.102284  0.106719  -0.000468  1.045516  -0.001
H  H14  1  0.66399130  0.71895145  0.31780154  1  0.118376  0.093256  -0.000889  1.009099  -0.002
H  H15  1  0.46096098  0.73598545  0.68657389  1  0.097808  0.099578  -2.9e-05  1.052709  0.0
H  H16  1  0.34560252  0.77330142  0.88470145  1  0.102454  0.102664  -9e-06  1.022357  0.0
H  H17  1  0.11095632  0.02420321  0.91530057  1  0.11008  0.120817  -1.7e-05  1.000484  0.0
H  H18  1  0.01287563  0.23096838  0.74497247  1  0.104352  0.077898  -2e-06  1.059535  0.0
H  H19  1  0.52661604  0.12345768  0.87656603  1  0.11487  0.089557  -0.000679  1.034503  -0.002
H  H20  1  0.63233825  0.12038400  0.67219722  1  0.102823  0.107004  -0.000427  1.05197  0.0
H  H21  1  0.97757062  0.65165750  0.77632413  1  0.107019  0.118086  -0.000548  1.033673  -0.001
H  H22  1  0.87154653  0.01982244  0.11853307  1  0.278901  0.37324  5e-05  0.970106  0.0
H  H23  1  0.03977904  0.86319922  0.10526671  1  0.281916  0.395067  3.4e-05  0.939925  0.0
H  H24  1  0.85872594  0.67637445  0.97985453  1  0.121219  0.097227  -0.000806  0.984368  -0.001
H  H25  1  0.70129697  0.09754777  0.51428719  1  0.098046  0.100925  -2.8e-05  1.052304  0.0
H  H26  1  0.82113961  0.07085892  0.31332136  1  0.110169  0.11665  -5e-06  0.985183  0.0
H  H27  1  0.07414067  0.83073505  0.27643155  1  0.1032  0.110966  3e-05  1.052951  0.0
H  H28  1  0.19263365  0.62721814  0.44273655  1  0.102262  0.062074  9e-06  1.027453  0.0
H  H29  1  0.35779505  0.43593432  0.88416081  1  0.318143  0.271848  -5.9e-05  0.944045  0.0
C  C30  1  0.42541969  0.41920751  0.67915844  1  -0.078176  -0.103577  -2.7e-05  3.966998  0.0
C  C31  1  0.40564328  0.40519322  0.57711454  1  -0.08575  -0.077372  6e-06  4.001516  0.0
C  C32  1  0.56603592  0.40584889  0.48151160  1  -0.082953  -0.079928  -0.000117  3.989935  0.0
C  C33  1  0.74769819  0.41976082  0.48851968  1  -0.085982  -0.080857  -7e-06  4.003946  0.0
C  C34  1  0.76828209  0.43215182  0.59076208  1  -0.076925  -0.092408  -7.9e-05  3.958906  0.0
C  C35  1  0.60789002  0.43143410  0.68742954  1  -0.019556  -0.050868  -2e-06  4.000207  0.0
C  C36  1  0.64691482  0.43594183  0.79586509  1  0.233704  0.460389  -0.000102  4.151143  0.0
C  C37  1  0.51904218  0.42705532  0.00041703  1  0.011698  0.026527  -0.008263  3.835271  -0.009
C  C38  1  0.61348176  0.25242845  0.05310012  1  0.207162  0.570014  0.000526  4.16031  0.002
C  C39  1  0.32029838  0.47767790  0.08095303  1  -0.156923  -0.165918  -0.000346  3.910029  0.0
C  C40  1  0.34630672  0.51985286  0.18204836  1  -0.163884  -0.284903  -0.007244  3.908345  -0.008
C  C41  1  0.40383211  0.68070702  0.14084069  1  0.198555  0.613434  0.002879  4.165674  0.004
C  C42  1  0.34711076  0.05689017  0.29072642  1  0.045144  0.09219  0.000932  3.95948  0.0
C  C43  1  0.28596114  0.07174903  0.40253402  1  -0.082041  -0.160421  -0.0038  3.945711  -0.005
C  C44  1  0.36223839  0.95246801  0.49053173  1  0.014331  0.085553  0.003948  3.950961  0.002
C  C45  1  0.49887380  0.82217114  0.45904018  1  -0.07856  -0.15678  -0.003718  3.939725  -0.004
C  C46  1  0.55531232  0.81695105  0.34501691  1  0.046587  0.095358  0.001677  3.947543  0.001
C  C47  1  0.29828454  0.96636222  0.61038772  1  0.112279  0.186365  -0.000281  4.007865  0.0
C  C48  1  0.36097709  0.84444100  0.70181835  1  -0.086948  -0.161427  0.000684  3.938856  0.0
C  C49  1  0.29546344  0.86427163  0.81267606  1  -0.074129  -0.035544  -8.4e-05  3.985299  0.0
C  C50  1  0.16703463  0.00408349  0.82993432  1  -0.083448  -0.116219  0.000848  3.939796  0.0
C  C51  1  0.11200811  0.11941880  0.73421739  1  0.03858  0.086979  -2.8e-05  3.986377  0.0
C  C52  1  0.62803636  0.02195271  0.85027008  1  0.041293  0.089572  0.001269  3.945562  0.001
C  C53  1  0.68907727  0.01822800  0.73599225  1  -0.081016  -0.159044  -0.003938  3.948993  -0.005
C  C54  1  0.81816214  0.88456423  0.70572178  1  0.01363  0.086024  0.004018  3.94484  0.002
C  C55  1  0.88070358  0.75909407  0.79547711  1  -0.075427  -0.148776  -0.003779  3.925559  -0.004
C  C56  1  0.81395105  0.77178600  0.90803713  1  0.042555  0.083835  0.000993  3.94865  0.0
C  C57  1  0.88428059  0.87426225  0.58495372  1  0.115416  0.187744  -0.000292  3.990942  0.0
C  C58  1  0.81118262  0.99463084  0.49596812  1  -0.085904  -0.165587  0.000657  3.945769  0.0
C  C59  1  0.87798834  0.98031030  0.38371155  1  -0.071181  -0.029066  -6.9e-05  3.967707  0.0
C  C60  1  0.01773944  0.84652258  0.36289813  1  -0.088349  -0.125735  0.000882  3.967082  0.0
C  C61  1  0.08159309  0.73265769  0.45633688  1  0.036341  0.083951  -1.9e-05  4.025498  0.0
N  N62  1  0.48983737  0.44791164  0.88731607  1  -0.422903  -0.38069  -0.00015  3.57496  0.0
N  N63  1  0.48147228  0.93253293  0.26149096  1  -0.350676  -0.231556  -0.056334  3.615577  -0.073
N  N64  1  0.68921374  0.90124643  0.93560042  1  -0.346933  -0.229833  -0.055572  3.623031  -0.072
N  N65  1  0.01749645  0.74384092  0.56493634  1  -0.315442  -0.299048  0.000426  3.323925  0.0
N  N66  1  0.17626372  0.10290156  0.62676998  1  -0.320527  -0.316188  0.000402  3.335518  0.0
O  O67  1  0.81652166  0.42849808  0.80209454  1  -0.292179  -0.478121  -7.4e-05  2.143195  0.0
O  O68  1  0.53388020  0.15322410  0.03996898  1  -0.332869  -0.572865  -0.061525  2.396814  -0.088
O  O69  1  0.74709665  0.22236267  0.10441995  1  -0.326327  -0.548448  -0.000487  2.117041  -0.002
O  O70  1  0.56786011  0.68609514  0.15636557  1  -0.324819  -0.548877  -0.072458  2.26284  -0.103
O  O71  1  0.29120433  0.80013528  0.09277787  1  -0.322225  -0.589839  0.000393  2.206419  -0.002
O  O72  1  0.89565426  0.90557544  0.12470328  1  -0.613003  -0.821358  0.000422  2.064986  -0.001
