# generated using pymatgen
data_CuH13C13N2O5
_symmetry_space_group_name_H-M   'P 1'
_cell_length_a   8.42004722
_cell_length_b   12.81767201
_cell_length_c   17.86181512
_cell_angle_alpha   110.99456314
_cell_angle_beta   94.22847825
_cell_angle_gamma   90.00254319
_symmetry_Int_Tables_number   1
_chemical_formula_structural   CuH13C13N2O5
_chemical_formula_sum   'Cu4 H52 C52 N8 O20'
_cell_volume   1794.14514978
_cell_formula_units_Z   4
loop_
 _symmetry_equiv_pos_site_id
 _symmetry_equiv_pos_as_xyz
  1  'x, y, z'
loop_
 _atom_site_type_symbol
 _atom_site_label
 _atom_site_symmetry_multiplicity
 _atom_site_fract_x
 _atom_site_fract_y
 _atom_site_fract_z
 _atom_site_occupancy
 _atom_site_pbe_bader_charge
 _atom_site_pbe_bader_spin_density
 _atom_site_pbe_cm5_charge
 _atom_site_pbe_ddec_charge
 _atom_site_pbe_ddec_spin_density
 _atom_site_pbe_ddec_sum_bond_order
 _atom_site_pbe_magmom
Cu  Cu0  1  0.58306181  0.06470224  0.56334862  1  1.057756  0.540326  0.672835  0.743633  0.69589  2.405412  0.538
Cu  Cu1  1  0.91708578  0.50161617  0.43672740  1  1.05767  0.540499  0.672984  0.742823  0.696232  2.406069  0.538
Cu  Cu2  1  0.41694143  0.93529673  0.43666697  1  1.057599  -0.540331  0.672824  0.743603  -0.695898  2.405423  -0.538
Cu  Cu3  1  0.08290329  0.49839077  0.56326678  1  1.056688  -0.540466  0.672962  0.742752  -0.696207  2.406193  -0.538
H  H4  1  0.41257449  0.69428058  0.57137412  1  0.086028  0.001869  0.100117  0.164301  0.000869  1.00925  0.001
H  H5  1  0.08597656  0.12277500  0.42852136  1  0.089927  0.001869  0.099984  0.164164  0.000871  1.009995  0.001
H  H6  1  0.58747567  0.30569757  0.42862543  1  0.082662  -0.001866  0.10005  0.164255  -0.000869  1.009123  -0.001
H  H7  1  0.91400250  0.87723039  0.57149233  1  0.089742  -0.001871  0.100007  0.164165  -0.000872  1.010006  -0.001
H  H8  1  0.62331007  0.70452548  0.57338060  1  0.083381  -9.1e-05  0.105318  0.171381  -5.4e-05  0.98269  0.0
H  H9  1  0.87526750  0.13099971  0.42660082  1  0.094026  -8.4e-05  0.105704  0.171895  -5e-05  0.982701  0.0
H  H10  1  0.37673650  0.29547855  0.42661898  1  0.083135  8.9e-05  0.105266  0.171206  5.3e-05  0.98263  0.0
H  H11  1  0.12472074  0.86901492  0.57341545  1  0.094327  8.4e-05  0.105707  0.171869  5.1e-05  0.982673  0.0
H  H12  1  0.52616450  0.78625049  0.65980003  1  0.007158  -0.002026  0.096617  0.148243  -0.000984  0.985596  -0.001
H  H13  1  0.97228705  0.12662112  0.34018637  1  0.06217  -0.002036  0.096644  0.14839  -0.000991  0.98528  -0.001
H  H14  1  0.47388015  0.21372099  0.34020376  1  0.007051  0.002027  0.096616  0.148186  0.000985  0.985694  0.001
H  H15  1  0.02769256  0.87336950  0.65982337  1  0.062088  0.002035  0.096633  0.148403  0.00099  0.985448  0.001
H  H16  1  0.99708327  0.06136353  0.58237026  1  0.12411  0.001724  0.099615  0.165467  0.000866  1.032464  0.001
H  H17  1  0.50288292  0.47860288  0.41753881  1  0.108511  0.001756  0.099668  0.16612  0.000864  1.031106  0.001
H  H18  1  0.00292013  0.93863399  0.41764808  1  0.123781  -0.001727  0.09971  0.16564  -0.000867  1.032387  -0.001
H  H19  1  0.49708529  0.52134958  0.58243158  1  0.107257  -0.001756  0.099674  0.166028  -0.000865  1.03127  -0.001
H  H20  1  0.11254293  0.14863417  0.67288236  1  0.023154  -0.001836  0.092406  0.148524  -0.000826  1.012527  -0.001
H  H21  1  0.38749602  0.47524860  0.32694327  1  0.02939  -0.001793  0.092294  0.148686  -0.000816  1.01246  -0.001
H  H22  1  0.88745952  0.85138226  0.32713402  1  0.023346  0.001834  0.092324  0.148501  0.000825  1.01259  0.001
H  H23  1  0.61246020  0.52470895  0.67303227  1  0.029228  0.001794  0.092257  0.148686  0.000816  1.012744  0.001
H  H24  1  0.06522071  0.19555464  0.59149424  1  0.077112  -0.000241  0.101109  0.158017  -0.000183  1.01499  0.0
H  H25  1  0.43452423  0.60353800  0.40824199  1  0.063187  -0.000248  0.101622  0.15852  -0.000184  1.013932  0.0
H  H26  1  0.93476808  0.80443772  0.40850712  1  0.077259  0.000244  0.101171  0.158185  0.000184  1.014921  0.0
H  H27  1  0.56546170  0.39641494  0.59172464  1  0.06252  0.000247  0.10166  0.158557  0.000184  1.013914  0.0
H  H28  1  0.74197556  0.05961379  0.72715260  1  0.125806  -1.2e-05  0.118652  0.093221  1.8e-05  0.988562  0.0
H  H29  1  0.75831845  0.33322567  0.27308600  1  0.138668  -1e-05  0.118955  0.093143  1.9e-05  0.988354  0.0
H  H30  1  0.25802834  0.94039778  0.27286475  1  0.125451  1.1e-05  0.118688  0.093309  -1.8e-05  0.988584  0.0
H  H31  1  0.24167665  0.66677220  0.72689733  1  0.138646  1e-05  0.119008  0.093259  -1.9e-05  0.988106  0.0
H  H32  1  0.94296145  0.17445501  0.83856829  1  0.09025  -2.5e-05  0.110204  0.116623  -5e-06  0.994233  0.0
H  H33  1  0.55729577  0.33713757  0.16176746  1  0.079353  -2.5e-05  0.110473  0.117185  -5e-06  0.99455  0.0
H  H34  1  0.05705501  0.82556856  0.16144938  1  0.090389  2.5e-05  0.110224  0.116563  5e-06  0.994391  0.0
H  H35  1  0.44271819  0.66286526  0.83821664  1  0.079709  2.5e-05  0.110482  0.117219  5e-06  0.994538  0.0
H  H36  1  0.92353800  0.42445409  0.72718083  1  0.128547  -0.000114  0.112949  0.127638  -0.000105  1.00998  0.0
H  H37  1  0.57776608  0.69832424  0.27316783  1  0.124535  -0.000117  0.112617  0.127468  -0.000107  1.010764  0.0
H  H38  1  0.07645018  0.57554887  0.27281692  1  0.128462  0.000114  0.112907  0.127635  0.000105  1.009907  0.0
H  H39  1  0.42220219  0.30167336  0.72683296  1  0.123982  0.000117  0.112683  0.12757  0.000107  1.010848  0.0
H  H40  1  0.73936160  0.29525489  0.61897944  1  0.122999  -4e-05  0.11923  0.093398  -2.1e-05  1.02333  0.0
H  H41  1  0.76170740  0.67688166  0.38136047  1  0.113342  -4.2e-05  0.119221  0.093143  -2.2e-05  1.024789  0.0
H  H42  1  0.26064626  0.70474085  0.38102699  1  0.1229  4e-05  0.119222  0.09342  2.1e-05  1.023199  0.0
H  H43  1  0.23825879  0.32310976  0.61864082  1  0.112944  4.1e-05  0.119203  0.093149  2.2e-05  1.02453  0.0
H  H44  1  0.93201416  0.51109803  0.87513558  1  0.515061  -1e-06  0.311916  0.287654  -0.0  0.970197  0.0
H  H45  1  0.56877102  0.63668720  0.12466678  1  0.521236  -1e-06  0.311716  0.287431  -0.0  0.971931  0.0
H  H46  1  0.06797961  0.48891354  0.12486327  1  0.515015  1e-06  0.311952  0.287675  0.0  0.970308  0.0
H  H47  1  0.43122786  0.36331513  0.87532947  1  0.521252  1e-06  0.311733  0.287476  0.0  0.971867  0.0
H  H48  1  0.25071879  0.45740672  0.00018316  1  0.131206  -2e-06  0.11226  0.141846  -1e-06  1.022409  0.0
H  H49  1  0.74926828  0.54259278  0.99981195  1  0.131084  2e-06  0.112188  0.141638  1e-06  1.022603  0.0
H  H50  1  0.24961732  0.84436727  0.99945179  1  0.066964  1e-06  0.103848  0.099893  0.0  0.988624  0.0
H  H51  1  0.75040664  0.15563749  0.00054940  1  0.067269  -1e-06  0.103886  0.099946  -0.0  0.988491  0.0
H  H52  1  0.06019528  0.69955890  0.90425123  1  0.070552  3e-06  0.110175  0.123078  2e-06  0.981782  0.0
H  H53  1  0.43943104  0.79584623  0.09508871  1  0.072869  3e-06  0.109817  0.123048  2e-06  0.982199  0.0
H  H54  1  0.93981266  0.30045780  0.09575109  1  0.061131  -3e-06  0.110221  0.123192  -2e-06  0.981644  0.0
H  H55  1  0.56059075  0.20415095  0.90490820  1  0.073216  -3e-06  0.109838  0.123089  -2e-06  0.982153  0.0
C  C56  1  0.50706971  0.84466678  0.56054035  1  1.544417  -0.000245  0.214073  0.682639  -0.000161  4.108914  0.0
C  C57  1  0.99172775  0.28407366  0.43951678  1  1.511393  -0.000253  0.213951  0.681385  -0.00016  4.110497  0.0
C  C58  1  0.49296235  0.15532789  0.43947592  1  1.545127  0.000243  0.214193  0.68231  0.000158  4.108943  0.0
C  C59  1  0.00826280  0.71592994  0.56048161  1  1.512095  0.000254  0.213976  0.68146  0.000161  4.110167  0.0
C  C60  1  0.51589757  0.75179890  0.59392307  1  -0.034825  0.00037  -0.240077  -0.505496  0.000268  3.849053  0.0
C  C61  1  0.98262634  0.15786218  0.40605728  1  -0.07083  0.000385  -0.240786  -0.506322  0.000274  3.848646  0.0
C  C62  1  0.48414174  0.24818508  0.40608070  1  -0.031934  -0.000373  -0.239956  -0.505106  -0.000269  3.848613  0.0
C  C63  1  0.01735852  0.84214378  0.59395277  1  -0.071002  -0.000377  -0.240806  -0.50633  -0.000269  3.848667  0.0
C  C64  1  0.24763158  0.07700981  0.57021765  1  1.53143  -0.000444  0.212871  0.67843  -0.000428  4.109848  -0.001
C  C65  1  0.25227451  0.50625424  0.42956259  1  1.519295  -0.000501  0.212771  0.679618  -0.000439  4.10866  -0.001
C  C66  1  0.75236549  0.92299052  0.42979342  1  1.532868  0.000445  0.213212  0.679081  0.000427  4.109413  0.001
C  C67  1  0.74769908  0.49374404  0.57041951  1  1.519479  0.000508  0.212863  0.679646  0.000439  4.108709  0.001
C  C68  1  0.09579982  0.12224260  0.60732470  1  -0.076854  0.000263  -0.25075  -0.527283  0.000184  3.869671  0.0
C  C69  1  0.40414597  0.51441647  0.39249369  1  -0.059259  0.000236  -0.251099  -0.5288  0.000197  3.868767  0.0
C  C70  1  0.90420077  0.87776230  0.39269100  1  -0.077027  -0.000259  -0.250854  -0.527795  -0.000183  3.869829  0.0
C  C71  1  0.59582666  0.48554450  0.60747853  1  -0.057282  -0.000235  -0.251059  -0.528643  -0.000192  3.869053  0.0
C  C72  1  0.78670888  0.14116232  0.73035145  1  0.472455  -0.000598  0.049217  0.092469  -0.000392  3.947016  0.0
C  C73  1  0.71369780  0.41165622  0.26991074  1  0.473876  -0.000603  0.049454  0.093171  -0.000396  3.945457  0.0
C  C74  1  0.21329575  0.85885364  0.26965771  1  0.473411  0.000598  0.049208  0.09242  0.000392  3.947425  0.0
C  C75  1  0.28629651  0.58833578  0.73007679  1  0.473739  0.000603  0.04946  0.093184  0.000397  3.944828  0.0
C  C76  1  0.89652208  0.20492085  0.79185129  1  -0.034658  0.000106  -0.07788  -0.150374  6.2e-05  3.967898  0.0
C  C77  1  0.60390459  0.41419501  0.20846274  1  0.023833  0.000106  -0.078206  -0.151714  6.1e-05  3.969534  0.0
C  C78  1  0.10349406  0.79510457  0.20815898  1  -0.035687  -0.000106  -0.077853  -0.150225  -6.2e-05  3.968572  0.0
C  C79  1  0.39610412  0.58579569  0.79152596  1  0.023525  -0.000106  -0.078302  -0.151868  -6.1e-05  3.96922  0.0
C  C80  1  0.94706230  0.30941497  0.79268544  1  -0.001765  -0.000782  0.004435  0.008084  -0.000521  3.984054  0.0
C  C81  1  0.55356018  0.51790926  0.20768647  1  -0.127098  -0.000791  0.00364  0.007761  -0.000523  3.983093  0.0
C  C82  1  0.05294035  0.69060659  0.20730747  1  -0.001929  0.000782  0.004381  0.00814  0.000521  3.984304  0.0
C  C83  1  0.44644401  0.48207745  0.79230410  1  -0.126615  0.000791  0.003771  0.007733  0.000524  3.983187  0.0
C  C84  1  0.88677178  0.34520727  0.73118434  1  -0.05764  -6.5e-05  -0.077809  -0.151323  -7.5e-05  3.928344  0.0
C  C85  1  0.61419931  0.61504549  0.26914943  1  -0.033387  -6.8e-05  -0.076992  -0.150091  -7.6e-05  3.926776  0.0
C  C86  1  0.11322189  0.65480130  0.26880728  1  -0.057484  6.5e-05  -0.077826  -0.151486  7.5e-05  3.928292  0.0
C  C87  1  0.38578216  0.38494596  0.73084513  1  -0.033117  6.7e-05  -0.07706  -0.1501  7.6e-05  3.927089  0.0
C  C88  1  0.78227928  0.27370791  0.67041704  1  0.491153  -0.000564  0.054422  0.108906  -0.000379  3.917713  0.0
C  C89  1  0.71856498  0.60407311  0.32990541  1  0.527089  -0.000568  0.053617  0.107076  -0.000384  3.918446  0.0
C  C90  1  0.21772317  0.72629886  0.32958537  1  0.491528  0.000565  0.054258  0.108644  0.00038  3.91754  0.0
C  C91  1  0.28141047  0.39592199  0.67009285  1  0.527444  0.000568  0.053547  0.107095  0.000384  3.917958  0.0
C  C92  1  0.07416134  0.37616092  0.85447572  1  1.418496  -3e-05  0.246974  0.484249  -1.6e-05  4.106138  0.0
C  C93  1  0.42630583  0.52304532  0.14602122  1  1.39561  -3e-05  0.24783  0.486957  -1.6e-05  4.103809  0.0
C  C94  1  0.92584363  0.62384616  0.14553121  1  1.419083  3.1e-05  0.247227  0.484743  1.6e-05  4.105974  0.0
C  C95  1  0.57369082  0.47695442  0.85397579  1  1.396136  3e-05  0.247679  0.48683  1.6e-05  4.104048  0.0
C  C96  1  0.14634476  0.56913552  0.94560390  1  0.326388  4e-06  0.093773  0.257298  1e-06  4.032656  0.0
C  C97  1  0.35415898  0.62396661  0.05430434  1  0.325343  4e-06  0.093682  0.257418  1e-06  4.031546  0.0
C  C98  1  0.85366410  0.43088350  0.05439319  1  0.325325  -4e-06  0.093667  0.257293  -1e-06  4.032448  0.0
C  C99  1  0.64585257  0.37604530  0.94569230  1  0.324843  -4e-06  0.093788  0.257524  -1e-06  4.031535  0.0
C  C100  1  0.25043265  0.54183259  0.00004956  1  0.019972  -1.9e-05  -0.09891  -0.27112  -1.1e-05  3.921  0.0
C  C101  1  0.74957073  0.45817970  0.99995253  1  0.020783  1.8e-05  -0.098846  -0.270892  1.1e-05  3.921045  0.0
C  C102  1  0.14306380  0.67891284  0.94640621  1  -0.040586  -1.5e-05  -0.098819  -0.196946  -1.1e-05  3.985628  0.0
C  C103  1  0.35681846  0.73273999  0.05310639  1  -0.061866  -1.5e-05  -0.09793  -0.196285  -1.1e-05  3.984005  0.0
C  C104  1  0.85694516  0.32110647  0.05359453  1  -0.030468  1.5e-05  -0.098814  -0.197076  1.1e-05  3.985592  0.0
C  C105  1  0.64319313  0.26727129  0.94689046  1  -0.061845  1.5e-05  -0.097963  -0.196361  1.1e-05  3.983953  0.0
C  C106  1  0.24982225  0.75939012  0.99963037  1  0.007625  6e-06  -0.094674  -0.06778  4e-06  4.085329  0.0
C  C107  1  0.75019400  0.24062322  0.00036602  1  0.007023  -6e-06  -0.094784  -0.06793  -4e-06  4.085492  0.0
N  N108  1  0.73172963  0.17414522  0.66992878  1  -1.217412  -0.001444  -0.327468  -0.234546  -0.00066  3.48198  0.0
N  N109  1  0.76882502  0.50493158  0.33033370  1  -1.204082  -0.001446  -0.328136  -0.233836  -0.000658  3.482537  0.0
N  N110  1  0.26828349  0.82586585  0.33007797  1  -1.217633  0.001445  -0.32735  -0.23444  0.00066  3.48182  0.0
N  N111  1  0.23115511  0.49505856  0.66965448  1  -1.204233  0.001445  -0.328112  -0.233928  0.000658  3.482217  0.0
N  N112  1  0.04337339  0.48684930  0.88895887  1  -1.288152  -5.6e-05  -0.391048  -0.38256  -3e-05  3.562941  0.0
N  N113  1  0.45725233  0.59885799  0.11117689  1  -1.260148  -5.5e-05  -0.391586  -0.384071  -3e-05  3.56344  0.0
N  N114  1  0.95663563  0.51316716  0.11103984  1  -1.288018  5.5e-05  -0.391122  -0.382705  3e-05  3.563358  0.0
N  N115  1  0.54275258  0.40114332  0.88882001  1  -1.259852  5.5e-05  -0.391511  -0.384007  3e-05  3.563577  0.0
O  O116  1  0.57758172  0.93719140  0.60317323  1  -1.127478  0.087606  -0.320791  -0.542157  0.05722  2.323088  0.079
O  O117  1  0.92146556  0.33419489  0.39692325  1  -1.123403  0.087687  -0.32055  -0.541188  0.05727  2.323438  0.079
O  O118  1  0.42249343  0.06278939  0.39682894  1  -1.127069  -0.08761  -0.320834  -0.542062  -0.057225  2.323063  -0.079
O  O119  1  0.07855951  0.66580581  0.60306963  1  -1.123354  -0.087689  -0.320534  -0.541155  -0.057272  2.323177  -0.079
O  O120  1  0.43240300  0.82255216  0.49149246  1  -1.125107  -0.08265  -0.31784  -0.541171  -0.054162  2.323349  -0.075
O  O121  1  0.06617057  0.33078418  0.50862625  1  -1.128757  -0.082649  -0.317334  -0.540289  -0.054344  2.323228  -0.075
O  O122  1  0.56754264  0.17747090  0.50854502  1  -1.125406  0.082647  -0.317921  -0.541035  0.054161  2.323396  0.075
O  O123  1  0.93381033  0.66922578  0.49137774  1  -1.129388  0.082635  -0.317321  -0.54036  0.054336  2.323356  0.075
O  O124  1  0.37830649  0.11699658  0.61143867  1  -1.116526  0.085563  -0.321194  -0.534711  0.055972  2.329978  0.078
O  O125  1  0.12164856  0.50518826  0.38835083  1  -1.114761  0.085771  -0.321077  -0.534449  0.056002  2.328961  0.078
O  O126  1  0.62168731  0.88296061  0.38859287  1  -1.117546  -0.085559  -0.321321  -0.534901  -0.055964  2.330068  -0.078
O  O127  1  0.87832368  0.49482538  0.61164847  1  -1.114561  -0.085783  -0.321219  -0.534588  -0.056011  2.328567  -0.078
O  O128  1  0.23335083  0.00334961  0.49932318  1  -1.13173  -0.081932  -0.315524  -0.539689  -0.053563  2.378799  -0.074
O  O129  1  0.26644546  0.50314275  0.50040183  1  -1.115497  -0.081884  -0.315895  -0.540947  -0.053533  2.378637  -0.074
O  O130  1  0.76664871  0.99668967  0.50067331  1  -1.131916  0.081942  -0.315663  -0.539877  0.053569  2.378688  0.074
O  O131  1  0.73353612  0.49683661  0.49957885  1  -1.115826  0.081863  -0.315928  -0.540972  0.053524  2.378948  0.074
O  O132  1  0.19739318  0.33052802  0.86876699  1  -1.153098  -7.8e-05  -0.298588  -0.498131  -5.1e-05  2.119764  0.0
O  O133  1  0.30277231  0.46353948  0.13213681  1  -1.147821  -7.8e-05  -0.298704  -0.49914  -5.1e-05  2.119013  0.0
O  O134  1  0.80262093  0.66948302  0.13123382  1  -1.15363  7.8e-05  -0.298659  -0.498325  5.1e-05  2.119508  0.0
O  O135  1  0.69721836  0.53645579  0.86785317  1  -1.148319  7.8e-05  -0.298696  -0.499083  5.1e-05  2.119202  0.0
