# generated using pymatgen
data_KVH13C9(NO)5
_symmetry_space_group_name_H-M   'P 1'
_cell_length_a   8.46709564
_cell_length_b   9.05620024
_cell_length_c   9.66780261
_cell_angle_alpha   95.70861174
_cell_angle_beta   94.97488434
_cell_angle_gamma   117.18830450
_symmetry_Int_Tables_number   1
_chemical_formula_structural   KVH13C9(NO)5
_chemical_formula_sum   'K2 V2 H26 C18 N10 O10'
_cell_volume   648.78818700
_cell_formula_units_Z   2
loop_
 _symmetry_equiv_pos_site_id
 _symmetry_equiv_pos_as_xyz
  1  'x, y, z'
loop_
 _atom_site_type_symbol
 _atom_site_label
 _atom_site_symmetry_multiplicity
 _atom_site_fract_x
 _atom_site_fract_y
 _atom_site_fract_z
 _atom_site_occupancy
 _atom_site_hle17_bader_spin_density
 _atom_site_hle17_ddec_charge
 _atom_site_hle17_ddec_spin_density
 _atom_site_hle17_ddec_sum_bond_order
 _atom_site_hle17_magmom
 _atom_site_hse06_10hf_bader_spin_density
 _atom_site_hse06_10hf_ddec_charge
 _atom_site_hse06_10hf_ddec_spin_density
 _atom_site_hse06_10hf_ddec_sum_bond_order
 _atom_site_hse06_10hf_magmom
 _atom_site_hse06_bader_spin_density
 _atom_site_hse06_ddec_charge
 _atom_site_hse06_ddec_spin_density
 _atom_site_hse06_ddec_sum_bond_order
 _atom_site_hse06_magmom
 _atom_site_pbe_bader_spin_density
 _atom_site_pbe_cm5_charge
 _atom_site_pbe_ddec_charge
 _atom_site_pbe_ddec_spin_density
 _atom_site_pbe_ddec_sum_bond_order
 _atom_site_pbe_magmom
K  K0  1  0.19716443  0.46845567  0.91586712  1  0  0.934284  0  0.449961  0  0  0.888867  0  0.636024  0  0  0.905246  0  0.612177  0  0  0.742103  0.876949  0  0.652202  0
K  K1  1  0.80283629  0.53154610  0.08413573  1  0  0.934297  0  0.449943  0  0  0.888866  0  0.636025  0  0  0.905255  0  0.612171  0  0  0.742112  0.876957  0  0.652189  0
V  V2  1  0.15114214  0.82715061  0.82864316  1  0  1.80383  0  3.067621  0  0  1.832975  0  3.473688  0  0  1.920574  0  3.460512  0  0  1.495875  1.768629  0  3.49296  0
V  V3  1  0.84885375  0.17284865  0.17135497  1  0  1.804195  0  3.067506  0  0  1.833128  0  3.473707  0  0  1.920758  0  3.46048  0  0  1.495994  1.76878  0  3.493  0
H  H4  1  0.00848399  0.06102528  0.72578897  1  0  0.384282  0  0.903507  0  0  0.366114  0  0.966564  0  0  0.377078  0  0.953529  0  0  0.291843  0.358351  0  0.97589  0
H  H5  1  0.99151963  0.93897521  0.27420984  1  0  0.384231  0  0.903569  0  0  0.36605  0  0.966651  0  0  0.377016  0  0.953612  0  0  0.291802  0.358287  0  0.975978  0
H  H6  1  0.10335632  0.92548732  0.08283175  1  0  0.324924  0  0.938062  0  0  0.316709  0  0.992983  0  0  0.32693  0  0.98441  0  0  0.294244  0.309395  0  0.999044  0
H  H7  1  0.89664430  0.07451193  0.91716673  1  0  0.324894  0  0.9381  0  0  0.316675  0  0.993029  0  0  0.326898  0  0.984455  0  0  0.294231  0.309366  0  0.999081  0
H  H8  1  0.39892551  0.36504088  0.15210466  1  0  0.34561  0  0.945307  0  0  0.326325  0  1.006668  0  0  0.335341  0  0.998786  0  0  0.294597  0.319754  0  1.012653  0
H  H9  1  0.60107222  0.63495964  0.84789786  1  0  0.345594  0  0.945325  0  0  0.326324  0  1.006659  0  0  0.335343  0  0.998766  0  0  0.294585  0.319753  0  1.012647  0
H  H10  1  0.19682027  0.20069982  0.18644298  1  0  0.336614  0  0.915015  0  0  0.319814  0  0.977702  0  0  0.327518  0  0.971689  0  0  0.301797  0.314205  0  0.982361  0
H  H11  1  0.80317853  0.79929818  0.81355524  1  0  0.336631  0  0.914985  0  0  0.319813  0  0.97769  0  0  0.327517  0  0.971674  0  0  0.301802  0.314204  0  0.98235  0
H  H12  1  0.78809223  0.90168355  0.42636387  1  0  0.081268  0  0.958369  0  0  0.088579  0  1.029407  0  0  0.092132  0  1.026409  0  0  0.112007  0.086064  0  1.031679  0
H  H13  1  0.21191205  0.09831820  0.57364028  1  0  0.08129  0  0.958329  0  0  0.088603  0  1.029365  0  0  0.092153  0  1.02637  0  0  0.112006  0.086088  0  1.031638  0
H  H14  1  0.66926203  0.20007386  0.80685237  1  0  0.078193  0  0.926809  0  0  0.091448  0  0.989207  0  0  0.095239  0  0.983109  0  0  0.130294  0.088908  0  0.992909  0
H  H15  1  0.33073859  0.79992539  0.19314611  1  0  0.078188  0  0.926723  0  0  0.09144  0  0.989151  0  0  0.095233  0  0.983051  0  0  0.130286  0.088902  0  0.992851  0
H  H16  1  0.93137306  0.17669342  0.53223725  1  0  0.066817  0  0.93752  0  0  0.079446  0  1.005227  0  0  0.080836  0  1.004159  0  0  0.103503  0.078398  0  1.006067  0
H  H17  1  0.06862766  0.82330835  0.46776457  1  0  0.066754  0  0.937529  0  0  0.07943  0  1.005191  0  0  0.080823  0  1.004123  0  0  0.103499  0.078383  0  1.006032  0
H  H18  1  0.84285812  0.26534244  0.65596077  1  0  0.058039  0  0.935338  0  0  0.074657  0  0.996255  0  0  0.074635  0  0.996169  0  0  0.108621  0.074617  0  0.996076  0
H  H19  1  0.15714379  0.73465932  0.34404217  1  0  0.058042  0  0.93533  0  0  0.074666  0  0.996243  0  0  0.074643  0  0.99616  0  0  0.108627  0.074625  0  0.996064  0
H  H20  1  0.11610837  0.51097565  0.47372917  1  0  0.111325  0  0.967533  0  0  0.130807  0  1.034388  0  0  0.132788  0  1.032724  0  0  0.097294  0.129164  0  1.035691  0
H  H21  1  0.88389234  0.48902611  0.52627058  1  0  0.111296  0  0.967507  0  0  0.130776  0  1.034367  0  0  0.132757  0  1.032703  0  0  0.097271  0.129133  0  1.035671  0
H  H22  1  0.23286071  0.42956980  0.57434425  1  0  0.121945  0  0.946713  0  0  0.143278  0  1.010112  0  0  0.14517  0  1.008888  0  0  0.102137  0.142196  0  1.010176  0
H  H23  1  0.76714301  0.57043322  0.42565687  1  0  0.121929  0  0.946733  0  0  0.143255  0  1.010144  0  0  0.145144  0  1.008925  0  0  0.102145  0.142172  0  1.010209  0
H  H24  1  0.25453913  0.43770112  0.39374741  1  0  0.128622  0  0.943162  0  0  0.151378  0  0.999557  0  0  0.153488  0  0.99857  0  0  0.101646  0.150072  0  0.99993  0
H  H25  1  0.74546512  0.56230063  0.60625053  1  0  0.128624  0  0.94317  0  0  0.151387  0  0.999548  0  0  0.153496  0  0.998565  0  0  0.101645  0.150082  0  0.999925  0
H  H26  1  0.46081132  0.34046595  0.85960423  1  0  0.364157  0  0.972916  0  0  0.326697  0  1.050511  0  0  0.336715  0  1.036348  0  0  0.273586  0.319548  0  1.0606  0
H  H27  1  0.53918622  0.65952953  0.14039573  1  0  0.364178  0  0.972891  0  0  0.326711  0  1.050495  0  0  0.33673  0  1.036331  0  0  0.273597  0.319563  0  1.060582  0
H  H28  1  0.46372542  0.38041255  0.70188053  1  0  0.382023  0  0.943429  0  0  0.340555  0  1.025336  0  0  0.351187  0  1.010363  0  0  0.27533  0.333054  0  1.035763  0
H  H29  1  0.53627458  0.61958545  0.29812089  1  0  0.382002  0  0.943458  0  0  0.340524  0  1.025378  0  0  0.351157  0  1.010405  0  0  0.275325  0.333024  0  1.035804  0
C  C30  1  0.30847077  0.12869904  0.03152894  1  0  0.68716  0  3.908563  0  0  0.639352  0  4.192693  0  0  0.671023  0  4.195689  0  0  0.33148  0.618612  0  4.189299  0
C  C31  1  0.69153286  0.87130146  0.96847090  1  0  0.687311  0  3.908336  0  0  0.639365  0  4.192634  0  0  0.671036  0  4.195631  0  0  0.3315  0.618627  0  4.189241  0
C  C32  1  0.40220738  0.78970902  0.64184192  1  0  0.238089  0  3.818055  0  0  0.229216  0  4.079083  0  0  0.242178  0  4.093577  0  0  0.093084  0.219884  0  4.068131  0
C  C33  1  0.59778860  0.21029277  0.35815852  1  0  0.238047  0  3.818134  0  0  0.229152  0  4.079195  0  0  0.242126  0  4.093688  0  0  0.093062  0.219824  0  4.068238  0
C  C34  1  0.39973726  0.67616606  0.52822603  1  0  0.206218  0  3.69482  0  0  0.206425  0  3.947221  0  0  0.211309  0  3.964402  0  0  0.116211  0.204123  0  3.934822  0
C  C35  1  0.60026526  0.32383696  0.47177294  1  0  0.206171  0  3.69478  0  0  0.206355  0  3.94724  0  0  0.211239  0  3.964417  0  0  0.116147  0.204053  0  3.934841  0
C  C36  1  0.68057323  0.87327059  0.49016602  1  0  0.054552  0  3.746321  0  0  0.007007  0  4.02505  0  0  0.01041  0  4.041758  0  0  0.024162  0.004102  0  4.013382  0
C  C37  1  0.31942802  0.12672991  0.50983366  1  0  0.054478  0  3.746415  0  0  0.006932  0  4.025168  0  0  0.010337  0  4.041877  0  0  0.024133  0.004024  0  4.013501  0
C  C38  1  0.69495481  0.99415612  0.59773215  1  0  -0.02575  0  3.744225  0  0  -0.011608  0  3.996384  0  0  -0.013736  0  4.020679  0  0  -0.017924  -0.009504  0  3.978464  0
C  C39  1  0.30504346  0.00584314  0.40227029  1  0  -0.025694  0  3.744121  0  0  -0.011564  0  3.996307  0  0  -0.013683  0  4.020606  0  0  -0.017868  -0.009457  0  3.978382  0
C  C40  1  0.54907116  0.95433484  0.67499344  1  0  -0.07067  0  3.793304  0  0  -0.067414  0  4.038583  0  0  -0.072612  0  4.060127  0  0  -0.011359  -0.064258  0  4.022586  0
C  C41  1  0.45092954  0.04566693  0.32500424  1  0  -0.070664  0  3.793195  0  0  -0.06737  0  4.038474  0  0  -0.072589  0  4.060039  0  0  -0.011367  -0.064213  0  4.022472  0
C  C42  1  0.55125117  0.07605069  0.78324188  1  0  0.103845  0  3.673052  0  0  0.061911  0  3.952357  0  0  0.076389  0  3.959098  0  0  0.058084  0.053067  0  3.947137  0
C  C43  1  0.44875009  0.92394982  0.21675780  1  0  0.103814  0  3.672969  0  0  0.06184  0  3.952319  0  0  0.076324  0  3.959066  0  0  0.05806  0.052982  0  3.947126  0
C  C44  1  0.86693173  0.15759376  0.62782228  1  0  0.099058  0  3.661198  0  0  0.034814  0  3.934452  0  0  0.042485  0  3.939123  0  0  -0.073611  0.029807  0  3.930334  0
C  C45  1  0.13306716  0.84240675  0.37217722  1  0  0.09912  0  3.661103  0  0  0.034848  0  3.934365  0  0  0.042511  0  3.939049  0  0  -0.073595  0.029841  0  3.930246  0
C  C46  1  0.24268996  0.50450983  0.48964137  1  0  -0.349728  0  3.702001  0  0  -0.437417  0  3.947287  0  0  -0.438547  0  3.952144  0  0  -0.235821  -0.43638  0  3.94283  0
C  C47  1  0.75731011  0.49549068  0.51035821  1  0  -0.349687  0  3.702008  0  0  -0.437365  0  3.947319  0  0  -0.438495  0  3.952178  0  0  -0.235808  -0.436329  0  3.942864  0
N  N48  1  0.18695879  0.96571112  0.00893598  1  0  -0.869437  0  3.041149  0  0  -0.857994  0  3.335577  0  0  -0.893564  0  3.340132  0  0  -0.66249  -0.833183  0  3.331614  0
N  N49  1  0.81304301  0.03428812  0.99106257  1  0  -0.869484  0  3.041117  0  0  -0.85799  0  3.335613  0  0  -0.893567  0  3.340168  0  0  -0.662501  -0.833182  0  3.331657  0
N  N50  1  0.44470245  0.18160537  0.95337440  1  0  -0.48199  0  3.004469  0  0  -0.44169  0  3.300444  0  0  -0.464869  0  3.315916  0  0  -0.289824  -0.427009  0  3.289184  0
N  N51  1  0.55530117  0.81839512  0.04662441  1  0  -0.482065  0  3.00436  0  0  -0.441725  0  3.300376  0  0  -0.464904  0  3.31585  0  0  -0.289841  -0.427042  0  3.289116  0
N  N52  1  0.41978460  0.04996290  0.85563674  1  0  -0.222724  0  3.356316  0  0  -0.199291  0  3.666333  0  0  -0.213591  0  3.693182  0  0  -0.26273  -0.188089  0  3.646608  0
N  N53  1  0.58021722  0.95003634  0.14436388  1  0  -0.222692  0  3.356239  0  0  -0.199226  0  3.666241  0  0  -0.213528  0  3.693089  0  0  -0.262724  -0.188024  0  3.646516  0
N  N54  1  0.30013876  0.24053096  0.12837920  1  0  -0.712522  0  3.078927  0  0  -0.665389  0  3.302474  0  0  -0.68957  0  3.297875  0  0  -0.584874  -0.649826  0  3.306397  0
N  N55  1  0.69985886  0.75946704  0.87161997  1  0  -0.712604  0  3.078923  0  0  -0.66538  0  3.302434  0  0  -0.689559  0  3.297834  0  0  -0.58486  -0.649819  0  3.30636  0
N  N56  1  0.53695009  0.72027908  0.45458579  1  0  -0.339128  0  3.197204  0  0  -0.279025  0  3.448135  0  0  -0.290987  0  3.46478  0  0  -0.311183  -0.270531  0  3.435437  0
N  N57  1  0.46304809  0.27971766  0.54541537  1  0  -0.339007  0  3.197007  0  0  -0.278907  0  3.447954  0  0  -0.29087  0  3.464601  0  0  -0.311099  -0.270415  0  3.43526  0
O  O58  1  0.26500712  0.73381907  0.71366993  1  0  -0.652703  0  2.175757  0  0  -0.625719  0  2.456254  0  0  -0.660329  0  2.463291  0  0  -0.407993  -0.600344  0  2.450639  0
O  O59  1  0.73498630  0.26617768  0.28632572  1  0  -0.652759  0  2.175737  0  0  -0.625739  0  2.45625  0  0  -0.660361  0  2.463283  0  0  -0.407978  -0.600367  0  2.450638  0
O  O60  1  0.98978657  0.16234321  0.74416591  1  0  -0.597199  0  2.036596  0  0  -0.539792  0  2.254008  0  0  -0.556792  0  2.240473  0  0  -0.464234  -0.527295  0  2.262902  0
O  O61  1  0.01021468  0.83765729  0.25583273  1  0  -0.597143  0  2.036549  0  0  -0.539732  0  2.253982  0  0  -0.556733  0  2.240447  0  0  -0.464206  -0.527236  0  2.262875  0
O  O62  1  0.02162877  0.65133702  0.88747501  1  0  -0.885268  0  1.353238  0  0  -0.888382  0  1.622414  0  0  -0.918937  0  1.614282  0  0  -0.756544  -0.866542  0  1.628541  0
O  O63  1  0.97837123  0.34866098  0.11252744  1  0  -0.885371  0  1.353249  0  0  -0.888401  0  1.622454  0  0  -0.918963  0  1.614314  0  0  -0.756565  -0.866562  0  1.628585  0
O  O64  1  0.02529428  0.88097802  0.72413543  1  0  -0.829059  0  1.436223  0  0  -0.825555  0  1.697395  0  0  -0.858954  0  1.692851  0  0  -0.603955  -0.802399  0  1.702223  0
O  O65  1  0.97470659  0.11902879  0.27586171  1  0  -0.82924  0  1.436215  0  0  -0.825662  0  1.697419  0  0  -0.859071  0  1.692869  0  0  -0.604058  -0.802506  0  1.702251  0
O  O66  1  0.45682677  0.42445045  0.80109043  1  0  -0.874694  0  1.901073  0  0  -0.817117  0  2.089728  0  0  -0.836204  0  2.059531  0  0  -0.665346  -0.803555  0  2.111062  0
O  O67  1  0.54316722  0.57554504  0.19891031  1  0  -0.874659  0  1.901024  0  0  -0.817061  0  2.089688  0  0  -0.83615  0  2.059487  0  0  -0.665366  -0.803501  0  2.111021  0
