# generated using pymatgen
data_CdH20C20(N7O)2
_symmetry_space_group_name_H-M   'P 1'
_cell_length_a   5.53526682
_cell_length_b   14.83885498
_cell_length_c   15.59900000
_cell_angle_alpha   116.77177971
_cell_angle_beta   90.00000000
_cell_angle_gamma   90.00000000
_symmetry_Int_Tables_number   1
_chemical_formula_structural   CdH20C20(N7O)2
_chemical_formula_sum   'Cd2 H40 C40 N28 O4'
_cell_volume   1143.91479429
_cell_formula_units_Z   2
loop_
 _symmetry_equiv_pos_site_id
 _symmetry_equiv_pos_as_xyz
  1  'x, y, z'
loop_
 _atom_site_type_symbol
 _atom_site_label
 _atom_site_symmetry_multiplicity
 _atom_site_fract_x
 _atom_site_fract_y
 _atom_site_fract_z
 _atom_site_occupancy
 _atom_site_hle17_bader_spin_density
 _atom_site_hle17_ddec_charge
 _atom_site_hle17_ddec_spin_density
 _atom_site_hle17_ddec_sum_bond_order
 _atom_site_hle17_magmom
 _atom_site_hse06_10hf_bader_spin_density
 _atom_site_hse06_10hf_ddec_charge
 _atom_site_hse06_10hf_ddec_spin_density
 _atom_site_hse06_10hf_ddec_sum_bond_order
 _atom_site_hse06_10hf_magmom
 _atom_site_hse06_bader_spin_density
 _atom_site_hse06_ddec_charge
 _atom_site_hse06_ddec_spin_density
 _atom_site_hse06_ddec_sum_bond_order
 _atom_site_hse06_magmom
 _atom_site_pbe_bader_charge
 _atom_site_pbe_bader_spin_density
 _atom_site_pbe_cm5_charge
 _atom_site_pbe_ddec_charge
 _atom_site_pbe_ddec_spin_density
 _atom_site_pbe_ddec_sum_bond_order
 _atom_site_pbe_magmom
Cd  Cd0  1  0.00001265  0.00000302  0.99999873  1  0  1.067283  0  1.758416  0  0  0.864915  0  2.212797  0  0  0.91469  0  2.167851  0  1.278742  0  0.790383  0.829676  0  2.243508  0
Cd  Cd1  1  0.49999758  0.50000131  0.50000383  1  0  1.067222  0  1.758408  0  0  0.864847  0  2.212791  0  0  0.914626  0  2.167845  0  1.278796  0  0.790383  0.829604  0  2.243507  0
H  H2  1  0.61420707  0.08046424  0.86339839  1  0  0.110871  0  0.949433  0  0  0.11269  0  1.025733  0  0  0.11559  0  1.021858  0  0.205586  0  0.143478  0.110562  0  1.028435  0
H  H3  1  0.11420949  0.41953858  0.63659839  1  0  0.110855  0  0.94936  0  0  0.112672  0  1.025686  0  0  0.11556  0  1.021847  0  0.204265  0  0.143453  0.110551  0  1.028366  0
H  H4  1  0.38581699  0.91953536  0.13659772  1  0  0.110797  0  0.949425  0  0  0.112576  0  1.025772  0  0  0.115474  0  1.021902  0  0.205573  0  0.143399  0.110445  0  1.028485  0
H  H5  1  0.88579831  0.58046480  0.36340447  1  0  0.110871  0  0.949311  0  0  0.112682  0  1.025642  0  0  0.115582  0  1.021765  0  0.204069  0  0.143477  0.11056  0  1.028328  0
H  H6  1  0.81570052  0.78200092  0.79192449  1  0  0.086673  0  0.981443  0  0  0.090151  0  1.053527  0  0  0.092537  0  1.051166  0  0.195243  0  0.130428  0.088343  0  1.055328  0
H  H7  1  0.31570294  0.71800150  0.70807867  1  0  0.086707  0  0.981523  0  0  0.09019  0  1.053572  0  0  0.092578  0  1.05121  0  0.195171  0  0.130453  0.088383  0  1.055374  0
H  H8  1  0.18431451  0.21799566  0.20806969  1  0  0.086719  0  0.981406  0  0  0.090189  0  1.053476  0  0  0.09258  0  1.051105  0  0.19534  0  0.130423  0.088382  0  1.055278  0
H  H9  1  0.68429402  0.28200263  0.29193093  1  0  0.086713  0  0.981517  0  0  0.090187  0  1.053586  0  0  0.092576  0  1.051222  0  0.195201  0  0.130438  0.088379  0  1.055387  0
H  H10  1  0.17067109  0.99386294  0.74309969  1  0  0.096078  0  0.919758  0  0  0.107051  0  0.986614  0  0  0.10782  0  0.986376  0  0.095859  0  0.114748  0.106462  0  0.986817  0
H  H11  1  0.67068492  0.50613722  0.75690378  1  0  0.096171  0  0.919716  0  0  0.107087  0  0.986612  0  0  0.107852  0  0.98638  0  0.095965  0  0.114777  0.106499  0  0.986816  0
H  H12  1  0.82933852  0.00613591  0.25690508  1  0  0.096093  0  0.919788  0  0  0.107051  0  0.986631  0  0  0.10782  0  0.986396  0  0.095669  0  0.11475  0.106461  0  0.986834  0
H  H13  1  0.32931385  0.49386314  0.24309778  1  0  0.096108  0  0.919751  0  0  0.107031  0  0.986649  0  0  0.1078  0  0.986411  0  0.09595  0  0.114745  0.106444  0  0.986852  0
H  H14  1  0.27447096  0.89243895  0.63452695  1  0  0.106221  0  0.949498  0  0  0.113542  0  1.021904  0  0  0.115623  0  1.019865  0  0.132615  0  0.118658  0.112047  0  1.023314  0
H  H15  1  0.77448118  0.60755291  0.86547360  1  0  0.106268  0  0.949523  0  0  0.113572  0  1.021909  0  0  0.115645  0  1.019881  0  0.132668  0  0.1187  0.112083  0  1.02331  0
H  H16  1  0.72552961  0.10755538  0.36547331  1  0  0.106246  0  0.949551  0  0  0.113526  0  1.021972  0  0  0.115604  0  1.019941  0  0.132689  0  0.118657  0.112039  0  1.023373  0
H  H17  1  0.22550313  0.39244594  0.13452860  1  0  0.106202  0  0.949597  0  0  0.11354  0  1.02195  0  0  0.115613  0  1.019928  0  0.132673  0  0.118681  0.112053  0  1.023349  0
H  H18  1  0.11282383  0.13664376  0.72046570  1  0  0.091915  0  0.97926  0  0  0.099711  0  1.047273  0  0  0.102026  0  1.047292  0  0.085218  0  0.097634  0.09804  0  1.047376  0
H  H19  1  0.61284309  0.36334774  0.77953008  1  0  0.091982  0  0.97932  0  0  0.099712  0  1.047363  0  0  0.102029  0  1.047377  0  0.085407  0  0.097634  0.098042  0  1.047467  0
H  H20  1  0.88716591  0.86335056  0.27953456  1  0  0.091959  0  0.97933  0  0  0.099683  0  1.047411  0  0  0.101998  0  1.047429  0  0.085268  0  0.097622  0.098014  0  1.047514  0
H  H21  1  0.38715930  0.63664507  0.22046376  1  0  0.09204  0  0.979368  0  0  0.099777  0  1.047411  0  0  0.102094  0  1.047426  0  0.085303  0  0.097641  0.098107  0  1.047515  0
H  H22  1  0.24756169  0.25876031  0.66253858  1  0  0.098503  0  0.947003  0  0  0.106959  0  1.012454  0  0  0.109703  0  1.011446  0  0.067705  0  0.101828  0.104867  0  1.013411  0
H  H23  1  0.74759359  0.24123648  0.83746011  1  0  0.098495  0  0.946929  0  0  0.106943  0  1.012403  0  0  0.109702  0  1.011379  0  0.067824  0  0.101839  0.104851  0  1.01336  0
H  H24  1  0.75241901  0.74123628  0.33745945  1  0  0.098508  0  0.947032  0  0  0.10693  0  1.012544  0  0  0.109698  0  1.011508  0  0.067793  0  0.101802  0.104838  0  1.013501  0
H  H25  1  0.25241963  0.75875634  0.16253630  1  0  0.0986  0  0.946982  0  0  0.107043  0  1.012447  0  0  0.109806  0  1.011417  0  0.067932  0  0.101872  0.104951  0  1.013403  0
H  H26  1  0.88833477  0.08140248  0.54418634  1  0  0.095241  0  0.957028  0  0  0.10592  0  1.01942  0  0  0.108518  0  1.018437  0  0.086379  0  0.102693  0.104062  0  1.020189  0
H  H27  1  0.38834984  0.41860034  0.95581942  1  0  0.095187  0  0.956935  0  0  0.105866  0  1.019351  0  0  0.108464  0  1.018367  0  0.086397  0  0.102677  0.104011  0  1.020113  0
H  H28  1  0.11166038  0.91859939  0.45582036  1  0  0.095177  0  0.956932  0  0  0.105882  0  1.019305  0  0  0.108481  0  1.018321  0  0.086258  0  0.102672  0.104026  0  1.020068  0
H  H29  1  0.61163989  0.58140002  0.04417701  1  0  0.095036  0  0.95681  0  0  0.105766  0  1.01919  0  0  0.108365  0  1.018208  0  0.086388  0  0.102647  0.103915  0  1.019943  0
H  H30  1  0.74922676  0.95676897  0.59878881  1  0  0.099675  0  0.9397  0  0  0.110217  0  1.000225  0  0  0.113434  0  0.998668  0  0.066827  0  0.102657  0.107932  0  1.001377  0
H  H31  1  0.24922737  0.54322817  0.90121144  1  0  0.099732  0  0.939682  0  0  0.110236  0  1.000233  0  0  0.113452  0  0.998674  0  0.066998  0  0.102676  0.107955  0  1.001389  0
H  H32  1  0.25077382  0.04323139  0.40121532  1  0  0.099676  0  0.939714  0  0  0.110213  0  1.000247  0  0  0.113429  0  0.998689  0  0.066829  0  0.102649  0.107926  0  1.001399  0
H  H33  1  0.75076778  0.45677295  0.09878275  1  0  0.099726  0  0.939692  0  0  0.110218  0  1.000253  0  0  0.113437  0  0.99869  0  0.066813  0  0.102679  0.107938  0  1.001409  0
H  H34  1  0.60055822  0.15349052  0.06005243  1  0  0.376532  0  0.950666  0  0  0.332717  0  1.035832  0  0  0.343987  0  1.019931  0  0.644774  0  0.276812  0.32477  0  1.047011  0
H  H35  1  0.10053174  0.34650551  0.43995491  1  0  0.376534  0  0.950645  0  0  0.332719  0  1.035807  0  0  0.34399  0  1.019905  0  0.644783  0  0.276815  0.324774  0  1.046981  0
H  H36  1  0.39946584  0.84651211  0.93994818  1  0  0.376597  0  0.950585  0  0  0.332784  0  1.03573  0  0  0.344055  0  1.019827  0  0.644382  0  0.276841  0.324838  0  1.046908  0
H  H37  1  0.89946161  0.65349409  0.56004826  1  0  0.376569  0  0.95061  0  0  0.332753  0  1.035779  0  0  0.344023  0  1.019878  0  0.644841  0  0.276814  0.324806  0  1.046956  0
H  H38  1  0.83589286  0.20367603  0.11870677  1  0  0.395766  0  0.896562  0  0  0.362065  0  0.979917  0  0  0.372044  0  0.965505  0  0.609562  0  0.288911  0.355006  0  0.990105  0
H  H39  1  0.33586457  0.29632906  0.38130060  1  0  0.39561  0  0.896859  0  0  0.362029  0  0.97994  0  0  0.372009  0  0.965529  0  0.609753  0  0.288874  0.35497  0  0.990128  0
H  H40  1  0.16412398  0.79633112  0.88129963  1  0  0.395649  0  0.896813  0  0  0.362051  0  0.979917  0  0  0.372031  0  0.965507  0  0.609755  0  0.288908  0.354992  0  0.990105  0
H  H41  1  0.66412697  0.70367357  0.61870257  1  0  0.395544  0  0.896915  0  0  0.361938  0  0.980065  0  0  0.371917  0  0.965655  0  0.609716  0  0.288833  0.354877  0  0.990256  0
C  C42  1  0.62748556  0.99897683  0.82927003  1  0  0.186612  0  3.63137  0  0  0.103245  0  3.908122  0  0  0.118728  0  3.918356  0  0.979145  0  0.166871  0.093391  0  3.900883  0
C  C43  1  0.12748437  0.50102635  0.67073025  1  0  0.186688  0  3.631072  0  0  0.103283  0  3.907817  0  0  0.11876  0  3.918044  0  0.980673  0  0.166895  0.093429  0  3.900582  0
C  C44  1  0.37254753  0.00102278  0.17073122  1  0  0.186699  0  3.63113  0  0  0.10341  0  3.907892  0  0  0.118898  0  3.91812  0  0.979271  0  0.166971  0.093552  0  3.900653  0
C  C45  1  0.87251079  0.49897778  0.32927934  1  0  0.186795  0  3.630972  0  0  0.103403  0  3.907726  0  0  0.118893  0  3.917948  0  0.980727  0  0.166879  0.093549  0  3.900495  0
C  C46  1  0.73065132  0.84741789  0.79090428  1  0  0.211973  0  3.710985  0  0  0.157435  0  3.994343  0  0  0.169602  0  4.00727  0  0.94628  0  0.144756  0.149567  0  3.985326  0
C  C47  1  0.23064290  0.65259284  0.70909730  1  0  0.211986  0  3.71081  0  0  0.157462  0  3.994163  0  0  0.169631  0  4.007089  0  0.945508  0  0.14477  0.149589  0  3.985149  0
C  C48  1  0.26936913  0.15258021  0.20909246  1  0  0.21217  0  3.711207  0  0  0.157666  0  3.99454  0  0  0.169834  0  4.00747  0  0.945873  0  0.144919  0.149795  0  3.985522  0
C  C49  1  0.76934864  0.34741658  0.29091199  1  0  0.212006  0  3.710979  0  0  0.157476  0  3.994295  0  0  0.16964  0  4.007219  0  0.945711  0  0.144773  0.149608  0  3.98528  0
C  C50  1  0.32866889  0.96339778  0.69600381  1  0  -0.061233  0  3.62914  0  0  -0.136187  0  3.873106  0  0  -0.132331  0  3.882389  0  0.275709  0  -0.043715  -0.138535  0  3.866715  0
C  C51  1  0.82868092  0.53659786  0.80399644  1  0  -0.061354  0  3.629333  0  0  -0.136279  0  3.873331  0  0  -0.132409  0  3.882612  0  0.275465  0  -0.043797  -0.138641  0  3.866935  0
C  C52  1  0.67134433  0.03659881  0.30399550  1  0  -0.061244  0  3.629181  0  0  -0.136121  0  3.87319  0  0  -0.13227  0  3.882481  0  0.275664  0  -0.04368  -0.138472  0  3.866803  0
C  C53  1  0.17132688  0.46339797  0.19600319  1  0  -0.061156  0  3.629298  0  0  -0.136077  0  3.873174  0  0  -0.132218  0  3.882437  0  0.275479  0  -0.043758  -0.138431  0  3.866789  0
C  C54  1  0.42102577  0.03883986  0.66385056  1  0  0.065122  0  3.762  0  0  0.084035  0  4.003855  0  0  0.082944  0  4.029461  0  -0.049412  0  -0.015825  0.084876  0  3.986345  0
C  C55  1  0.92104142  0.46115541  0.83614235  1  0  0.065033  0  3.762094  0  0  0.08397  0  4.003892  0  0  0.082842  0  4.029546  0  -0.049016  0  -0.015794  0.084847  0  3.986336  0
C  C56  1  0.57896396  0.96115823  0.33614426  1  0  0.065047  0  3.761949  0  0  0.083945  0  4.00381  0  0  0.082853  0  4.029418  0  -0.049119  0  -0.015879  0.084786  0  3.986302  0
C  C57  1  0.07893386  0.53884268  0.16385825  1  0  0.064885  0  3.761901  0  0  0.083896  0  4.003583  0  0  0.082825  0  4.029158  0  -0.04898  0  -0.015744  0.084738  0  3.986075  0
C  C58  1  0.28268375  0.12424060  0.68147458  1  0  -0.122654  0  3.762827  0  0  -0.140916  0  4.008518  0  0  -0.1443  0  4.031809  0  -0.062342  0  -0.093439  -0.138592  0  3.992663  0
C  C59  1  0.78269578  0.37574712  0.81851702  1  0  -0.122575  0  3.762805  0  0  -0.140769  0  4.008507  0  0  -0.144141  0  4.031811  0  -0.062668  0  -0.093358  -0.138454  0  3.992634  0
C  C60  1  0.71730056  0.87574768  0.31851604  1  0  -0.122585  0  3.762864  0  0  -0.140778  0  4.008582  0  0  -0.144161  0  4.03188  0  -0.062638  0  -0.093354  -0.138452  0  3.992718  0
C  C61  1  0.21730660  0.62425173  0.18148262  1  0  -0.122771  0  3.76286  0  0  -0.141011  0  4.008539  0  0  -0.144405  0  4.031832  0  -0.062481  0  -0.09348  -0.138688  0  3.992685  0
C  C62  1  0.35887520  0.19320898  0.64930222  1  0  -0.079399  0  3.722256  0  0  -0.101324  0  3.970084  0  0  -0.1026  0  3.990023  0  0.031949  0  -0.083886  -0.10025  0  3.956571  0
C  C63  1  0.85891614  0.30678855  0.85070127  1  0  -0.079414  0  3.72255  0  0  -0.101365  0  3.970357  0  0  -0.102655  0  3.990292  0  0.032199  0  -0.083899  -0.10029  0  3.956845  0
C  C64  1  0.64110550  0.80678458  0.35069323  1  0  -0.07946  0  3.722367  0  0  -0.10139  0  3.970184  0  0  -0.102687  0  3.990117  0  0.031966  0  -0.083871  -0.100314  0  3.956672  0
C  C65  1  0.14109166  0.69321256  0.14930382  1  0  -0.07943  0  3.722335  0  0  -0.101386  0  3.970111  0  0  -0.10268  0  3.99005  0  0.031953  0  -0.083935  -0.100309  0  3.956596  0
C  C66  1  0.57825035  0.17835041  0.59966286  1  0  0.003265  0  3.801423  0  0  0.022385  0  4.028503  0  0  0.020576  0  4.051779  0  -0.03434  0  -0.00524  0.023515  0  4.012731  0
C  C67  1  0.07825639  0.32165241  0.90033905  1  0  0.0033  0  3.801691  0  0  0.022457  0  4.02871  0  0  0.020648  0  4.05199  0  -0.034638  0  -0.005332  0.023588  0  4.012939  0
C  C68  1  0.42173035  0.82163938  0.40033225  1  0  0.003361  0  3.801441  0  0  0.022541  0  4.028536  0  0  0.020732  0  4.051817  0  -0.034242  0  -0.005251  0.023669  0  4.012766  0
C  C69  1  0.92172612  0.67835625  0.09966350  1  0  0.003212  0  3.801802  0  0  0.02246  0  4.028759  0  0  0.020649  0  4.052044  0  -0.034482  0  -0.005207  0.02359  0  4.012986  0
C  C70  1  0.71817496  0.09283871  0.58269583  1  0  -0.083557  0  3.738778  0  0  -0.104506  0  3.985531  0  0  -0.106229  0  4.007157  0  -0.02182  0  -0.084176  -0.103224  0  3.970848  0
C  C71  1  0.21817557  0.40716336  0.91730832  1  0  -0.083614  0  3.738724  0  0  -0.104565  0  3.985458  0  0  -0.106285  0  4.007075  0  -0.02198  0  -0.08413  -0.103288  0  3.970785  0
C  C72  1  0.28183104  0.90716240  0.41730542  1  0  -0.083646  0  3.738755  0  0  -0.104619  0  3.985521  0  0  -0.106343  0  4.007145  0  -0.02175  0  -0.084179  -0.103336  0  3.970836  0
C  C73  1  0.78182681  0.59284455  0.08269840  1  0  -0.083357  0  3.738657  0  0  -0.104379  0  3.985406  0  0  -0.106101  0  4.007033  0  -0.021777  0  -0.084098  -0.103098  0  3.970727  0
C  C74  1  0.64016065  0.02362803  0.61402265  1  0  -0.117228  0  3.74916  0  0  -0.139116  0  4.002388  0  0  -0.142137  0  4.024483  0  -0.052666  0  -0.092701  -0.136989  0  3.98728  0
C  C75  1  0.14017391  0.47638007  0.88598281  1  0  -0.117215  0  3.748977  0  0  -0.139085  0  4.00222  0  0  -0.142094  0  4.024326  0  -0.053032  0  -0.092753  -0.13698  0  3.987114  0
C  C76  1  0.35983089  0.97637006  0.38597538  1  0  -0.117168  0  3.749269  0  0  -0.139044  0  4.002501  0  0  -0.142062  0  4.024598  0  -0.052735  0  -0.092664  -0.136916  0  3.987391  0
C  C77  1  0.85980498  0.52362255  0.11402101  1  0  -0.117071  0  3.748883  0  0  -0.138957  0  4.002133  0  0  -0.141982  0  4.024219  0  -0.053114  0  -0.09271  -0.136843  0  3.987038  0
C  C78  1  0.66010729  0.25030409  0.56569127  1  0  0.245306  0  3.813308  0  0  0.22849  0  4.086192  0  0  0.236277  0  4.102877  0  0.890046  0  0.203716  0.223286  0  4.074892  0
C  C79  1  0.16012417  0.24969194  0.93431158  1  0  0.245309  0  3.813415  0  0  0.228494  0  4.08626  0  0  0.236281  0  4.102945  0  0.890299  0  0.20379  0.22329  0  4.07496  0
C  C80  1  0.33988425  0.74969325  0.43430644  1  0  0.245272  0  3.813219  0  0  0.228338  0  4.086245  0  0  0.236123  0  4.102932  0  0.890123  0  0.203649  0.223136  0  4.074944  0
C  C81  1  0.83988544  0.75031069  0.06569287  1  0  0.245231  0  3.813233  0  0  0.228356  0  4.086124  0  0  0.236142  0  4.102812  0  0.890156  0  0.203658  0.223155  0  4.074823  0
N  N82  1  0.76708678  0.94442847  0.85828854  1  0  -0.403733  0  3.162313  0  0  -0.328159  0  3.452235  0  0  -0.3507  0  3.465536  0  -1.218145  0  -0.345483  -0.31286  0  3.442621  0
N  N83  1  0.26708920  0.55557999  0.64171144  1  0  -0.403826  0  3.161908  0  0  -0.32826  0  3.451861  0  0  -0.350805  0  3.465159  0  -1.218413  0  -0.345544  -0.31297  0  3.442278  0
N  N84  1  0.23292283  0.05557038  0.14170276  1  0  -0.403875  0  3.161958  0  0  -0.328327  0  3.451897  0  0  -0.350874  0  3.465192  0  -1.217789  0  -0.345498  -0.313033  0  3.44231  0
N  N85  1  0.73292041  0.44443093  0.35829722  1  0  -0.403885  0  3.162268  0  0  -0.328301  0  3.452191  0  0  -0.35084  0  3.465495  0  -1.218089  0  -0.345559  -0.313003  0  3.442582  0
N  N86  1  0.51178743  0.93694824  0.74842587  1  0  0.059757  0  3.538123  0  0  0.176762  0  3.726274  0  0  0.166766  0  3.748333  0  -0.806744  0  -0.12634  0.182434  0  3.712758  0
N  N87  1  0.01178805  0.56305193  0.75157183  1  0  0.059744  0  3.538158  0  0  0.176856  0  3.726172  0  0  0.166882  0  3.748191  0  -0.806689  0  -0.12626  0.182526  0  3.712661  0
N  N88  1  0.48823121  0.06305137  0.25156832  1  0  0.059894  0  3.538168  0  0  0.176826  0  3.726398  0  0  0.166833  0  3.748453  0  -0.806852  0  -0.126307  0.182497  0  3.712885  0
N  N89  1  0.98821072  0.43694617  0.24842556  1  0  0.059625  0  3.537992  0  0  0.176665  0  3.726073  0  0  0.166644  0  3.748175  0  -0.80661  0  -0.12632  0.182337  0  3.712562  0
N  N90  1  0.57791252  0.83949005  0.72219221  1  0  -0.296878  0  2.924693  0  0  -0.278785  0  3.181403  0  0  -0.289046  0  3.193525  0  -0.719542  0  -0.219831  -0.271737  0  3.173314  0
N  N91  1  0.07790230  0.66051314  0.77781062  1  0  -0.296886  0  2.924495  0  0  -0.278835  0  3.181193  0  0  -0.2891  0  3.193313  0  -0.718663  0  -0.219897  -0.271785  0  3.173106  0
N  N92  1  0.42209528  0.16051031  0.27780230  1  0  -0.29715  0  2.924923  0  0  -0.279053  0  3.181677  0  0  -0.289316  0  3.193799  0  -0.719553  0  -0.22003  -0.272002  0  3.173591  0
N  N93  1  0.92207841  0.33948949  0.22219319  1  0  -0.296935  0  2.924799  0  0  -0.278808  0  3.18148  0  0  -0.289063  0  3.193604  0  -0.719138  0  -0.219821  -0.271759  0  3.173389  0
N  N94  1  0.54887688  0.33866296  0.58598482  1  0  -0.304883  0  2.961614  0  0  -0.288426  0  3.241969  0  0  -0.296207  0  3.256312  0  -0.648552  0  -0.225257  -0.283083  0  3.232159  0
N  N95  1  0.04890099  0.16133759  0.91401933  1  0  -0.304788  0  2.961761  0  0  -0.288342  0  3.242126  0  0  -0.296119  0  3.256457  0  -0.648155  0  -0.22526  -0.282998  0  3.232316  0
N  N96  1  0.45111105  0.66133287  0.41401673  1  0  -0.304847  0  2.961406  0  0  -0.288344  0  3.241772  0  0  -0.296125  0  3.256113  0  -0.648566  0  -0.225243  -0.283003  0  3.231964  0
N  N97  1  0.95111043  0.83866805  0.08598065  1  0  -0.304792  0  2.961547  0  0  -0.288318  0  3.24189  0  0  -0.296093  0  3.25622  0  -0.64863  0  -0.225263  -0.282975  0  3.232079  0
N  N98  1  0.85445384  0.23614977  0.50798838  1  0  -0.302069  0  2.934789  0  0  -0.286852  0  3.214431  0  0  -0.293931  0  3.224544  0  -0.647314  0  -0.226  -0.28195  0  3.207507  0
N  N99  1  0.35446168  0.26385381  0.99201321  1  0  -0.301973  0  2.93463  0  0  -0.286765  0  3.214277  0  0  -0.293846  0  3.224392  0  -0.647558  0  -0.225963  -0.281862  0  3.207351  0
N  N100  1  0.14553770  0.76385059  0.49201382  1  0  -0.301967  0  2.934436  0  0  -0.286714  0  3.214108  0  0  -0.293796  0  3.224224  0  -0.647278  0  -0.22592  -0.28181  0  3.20718  0
N  N101  1  0.64554070  0.73615636  0.00798486  1  0  -0.302036  0  2.934689  0  0  -0.286828  0  3.214353  0  0  -0.293909  0  3.22447  0  -0.647077  0  -0.226051  -0.281925  0  3.207428  0
N  N102  1  0.67821844  0.37865769  0.53920580  1  0  -0.159571  0  3.223854  0  0  -0.106759  0  3.519194  0  0  -0.116752  0  3.53609  0  -0.222261  0  -0.131372  -0.099557  0  3.50729  0
N  N103  1  0.17824073  0.12133984  0.96079450  1  0  -0.159694  0  3.223711  0  0  -0.106904  0  3.519086  0  0  -0.116899  0  3.535984  0  -0.222414  0  -0.131439  -0.099703  0  3.507182  0
N  N104  1  0.32176769  0.62133738  0.46079671  1  0  -0.159631  0  3.223536  0  0  -0.106832  0  3.518879  0  0  -0.116826  0  3.535776  0  -0.222165  0  -0.131368  -0.099631  0  3.506978  0
N  N105  1  0.82177430  0.87866278  0.03919906  1  0  -0.159682  0  3.223847  0  0  -0.106895  0  3.519213  0  0  -0.11689  0  3.536111  0  -0.222075  0  -0.131373  -0.099691  0  3.507305  0
N  N106  1  0.85989170  0.31733410  0.49225049  1  0  -0.116754  0  3.131442  0  0  -0.080795  0  3.407996  0  0  -0.083706  0  3.421025  0  -0.209371  0  -0.100331  -0.078536  0  3.398969  0
N  N107  1  0.35991761  0.18266721  0.00775270  1  0  -0.116803  0  3.130976  0  0  -0.08085  0  3.407564  0  0  -0.083764  0  3.420595  0  -0.209576  0  -0.100352  -0.078588  0  3.398534  0
N  N108  1  0.14008900  0.68266475  0.50775363  1  0  -0.116774  0  3.131167  0  0  -0.080816  0  3.407737  0  0  -0.08373  0  3.420769  0  -0.209556  0  -0.100378  -0.078557  0  3.39871  0
N  N109  1  0.64009922  0.81733768  0.99224247  1  0  -0.116689  0  3.131592  0  0  -0.080723  0  3.408119  0  0  -0.083636  0  3.421153  0  -0.20975  0  -0.10028  -0.078463  0  3.399087  0
O  O110  1  0.74570931  0.13967359  0.09163509  1  0  -0.815197  0  1.92297  0  0  -0.75401  0  2.142992  0  0  -0.775575  0  2.111863  0  -1.259768  0  -0.59483  -0.738692  0  2.16456  0
O  O111  1  0.24567199  0.36032470  0.40837129  1  0  -0.815018  0  1.923411  0  0  -0.753948  0  2.143318  0  0  -0.775516  0  2.112184  0  -1.260014  0  -0.594754  -0.738628  0  2.164881  0
O  O112  1  0.25431656  0.86032828  0.90836071  1  0  -0.81514  0  1.923297  0  0  -0.754036  0  2.143251  0  0  -0.775608  0  2.112117  0  -1.259591  0  -0.594797  -0.738719  0  2.164811  0
O  O113  1  0.75431594  0.63967415  0.59163155  1  0  -0.815036  0  1.923398  0  0  -0.753933  0  2.143342  0  0  -0.775502  0  2.112215  0  -1.260042  0  -0.594735  -0.738608  0  2.164909  0
