# generated using pymatgen
data_ZnH16C18(N7O)2
_symmetry_space_group_name_H-M   'P 1'
_cell_length_a   7.39019307
_cell_length_b   7.59983188
_cell_length_c   9.39629993
_cell_angle_alpha   99.28203270
_cell_angle_beta   97.15176082
_cell_angle_gamma   110.42707082
_symmetry_Int_Tables_number   1
_chemical_formula_structural   ZnH16C18(N7O)2
_chemical_formula_sum   'Zn1 H16 C18 N14 O2'
_cell_volume   478.65851252
_cell_formula_units_Z   1
loop_
 _symmetry_equiv_pos_site_id
 _symmetry_equiv_pos_as_xyz
  1  'x, y, z'
loop_
 _atom_site_type_symbol
 _atom_site_label
 _atom_site_symmetry_multiplicity
 _atom_site_fract_x
 _atom_site_fract_y
 _atom_site_fract_z
 _atom_site_occupancy
 _atom_site_hle17_bader_spin_density
 _atom_site_hle17_ddec_charge
 _atom_site_hle17_ddec_spin_density
 _atom_site_hle17_ddec_sum_bond_order
 _atom_site_hle17_magmom
 _atom_site_hse06_10hf_bader_spin_density
 _atom_site_hse06_10hf_ddec_charge
 _atom_site_hse06_10hf_ddec_spin_density
 _atom_site_hse06_10hf_ddec_sum_bond_order
 _atom_site_hse06_10hf_magmom
 _atom_site_hse06_bader_spin_density
 _atom_site_hse06_ddec_charge
 _atom_site_hse06_ddec_spin_density
 _atom_site_hse06_ddec_sum_bond_order
 _atom_site_hse06_magmom
 _atom_site_pbe_bader_spin_density
 _atom_site_pbe_cm5_charge
 _atom_site_pbe_ddec_charge
 _atom_site_pbe_ddec_spin_density
 _atom_site_pbe_ddec_sum_bond_order
 _atom_site_pbe_magmom
Zn  Zn0  1  0.49999838  0.49999805  0.50000034  1  0  1.013289  0  1.824991  0  0  0.826654  0  2.26376  0  0  0.870524  0  2.217709  0  0  0.700845  0.795241  0  2.296013  0
H  H1  1  0.73259973  0.88134030  0.47002656  1  0  0.381902  0  0.939062  0  0  0.33659  0  1.029066  0  0  0.347652  0  1.013165  0  0  0.281052  0.328703  0  1.040386  0
H  H2  1  0.26739761  0.11865726  0.52997224  1  0  0.381893  0  0.939082  0  0  0.336577  0  1.029085  0  0  0.347641  0  1.013181  0  0  0.281041  0.328694  0  1.040396  0
H  H3  1  0.81487848  0.73386225  0.38611981  1  0  0.393062  0  0.909781  0  0  0.355767  0  0.994454  0  0  0.366478  0  0.979109  0  0  0.284392  0.348097  0  1.005461  0
H  H4  1  0.18512133  0.26613819  0.61387963  1  0  0.393044  0  0.909788  0  0  0.355764  0  0.994457  0  0  0.366477  0  0.979109  0  0  0.2844  0.348087  0  1.005477  0
H  H5  1  0.38128492  0.04794580  0.28073006  1  0  0.109536  0  0.957951  0  0  0.108383  0  1.038154  0  0  0.111454  0  1.032962  0  0  0.143299  0.105987  0  1.041181  0
H  H6  1  0.61871296  0.95205319  0.71927006  1  0  0.10952  0  0.957942  0  0  0.108381  0  1.038128  0  0  0.111452  0  1.032936  0  0  0.1433  0.105988  0  1.041156  0
H  H7  1  0.46745643  0.58259629  0.17487644  1  0  0.098062  0  0.944747  0  0  0.103279  0  1.012653  0  0  0.105939  0  1.009091  0  0  0.134688  0.101059  0  1.015706  0
H  H8  1  0.53254390  0.41740556  0.82512644  1  0  0.098068  0  0.944747  0  0  0.103284  0  1.012654  0  0  0.105942  0  1.009096  0  0  0.134691  0.101064  0  1.015702  0
H  H9  1  0.10235744  0.08876235  0.81672257  1  0  0.11289  0  0.970402  0  0  0.112834  0  1.049659  0  0  0.117274  0  1.045953  0  0  0.106524  0.10949  0  1.052676  0
H  H10  1  0.89764101  0.91123808  0.18327674  1  0  0.112897  0  0.970392  0  0  0.112836  0  1.049665  0  0  0.117273  0  1.045966  0  0  0.106531  0.109492  0  1.052675  0
H  H11  1  0.92242483  0.78186975  0.63367295  1  0  0.094795  0  0.986526  0  0  0.103922  0  1.052498  0  0  0.106655  0  1.050891  0  0  0.10451  0.102026  0  1.053456  0
H  H12  1  0.07757552  0.21813211  0.36632780  1  0  0.09481  0  0.986515  0  0  0.103935  0  1.052491  0  0  0.106676  0  1.050868  0  0  0.104505  0.102043  0  1.053442  0
H  H13  1  0.15566988  0.48118172  0.91127617  1  0  0.101431  0  0.969034  0  0  0.105547  0  1.041762  0  0  0.108783  0  1.040133  0  0  0.103154  0.103164  0  1.043111  0
H  H14  1  0.84432857  0.51881872  0.08872313  1  0  0.101473  0  0.969074  0  0  0.105566  0  1.041821  0  0  0.108811  0  1.040169  0  0  0.103147  0.103185  0  1.043167  0
H  H15  1  0.33717713  0.78770153  0.09415375  1  0  0.105919  0  0.94522  0  0  0.118949  0  1.00357  0  0  0.121593  0  1.002548  0  0  0.107999  0.11725  0  1.003973  0
H  H16  1  0.66282517  0.21230180  0.90584527  1  0  0.106052  0  0.945185  0  0  0.119081  0  1.003528  0  0  0.121725  0  1.002506  0  0  0.108059  0.117381  0  1.003935  0
C  C17  1  0.38456554  0.15894358  0.22072487  1  0  0.194641  0  3.610834  0  0  0.115357  0  3.882729  0  0  0.142444  0  3.895154  0  0  0.171679  0.10491  0  3.876531  0
C  C18  1  0.61543425  0.84105684  0.77927669  1  0  0.194611  0  3.610952  0  0  0.115337  0  3.882844  0  0  0.142413  0  3.895267  0  0  0.171661  0.104883  0  3.876655  0
C  C19  1  0.42305603  0.42871455  0.16390228  1  0  0.211449  0  3.700166  0  0  0.156916  0  3.990467  0  0  0.169529  0  3.999586  0  0  0.152536  0.149265  0  3.981878  0
C  C20  1  0.57694568  0.57128731  0.83609967  1  0  0.211473  0  3.700133  0  0  0.156951  0  3.990416  0  0  0.169562  0  3.999538  0  0  0.152583  0.149303  0  3.981819  0
C  C21  1  0.22690885  0.95553715  0.96735262  1  0  0.164113  0  3.782013  0  0  0.142845  0  4.033719  0  0  0.159773  0  4.056207  0  0  0.095322  0.139231  0  4.019067  0
C  C22  1  0.77309150  0.04446470  0.03264919  1  0  0.164032  0  3.782048  0  0  0.142856  0  4.033678  0  0  0.159772  0  4.056163  0  0  0.095308  0.139246  0  4.019025  0
C  C23  1  0.11349226  0.95541388  0.83675091  1  0  -0.132954  0  3.714923  0  0  -0.156135  0  3.978788  0  0  -0.159859  0  3.994408  0  0  -0.091219  -0.154066  0  3.966736  0
C  C24  1  0.88650618  0.04458656  0.16324839  1  0  -0.132875  0  3.714917  0  0  -0.156095  0  3.978766  0  0  -0.159819  0  3.99439  0  0  -0.091219  -0.154023  0  3.9667  0
C  C25  1  0.01237021  0.78293614  0.73480900  1  0  -0.06586  0  3.72788  0  0  -0.090831  0  3.976169  0  0  -0.091713  0  3.998347  0  0  -0.087277  -0.090157  0  3.961532  0
C  C26  1  0.98763071  0.21706718  0.26519094  1  0  -0.065915  0  3.727801  0  0  -0.090859  0  3.976044  0  0  -0.09174  0  3.998223  0  0  -0.087243  -0.090184  0  3.961402  0
C  C27  1  0.02247164  0.60978893  0.76099528  1  0  0.003831  0  3.773152  0  0  0.023517  0  4.006959  0  0  0.020358  0  4.030168  0  0  -0.005307  0.025257  0  3.991754  0
C  C28  1  0.97752955  0.39021152  0.23900324  1  0  0.003845  0  3.7732  0  0  0.023537  0  4.006997  0  0  0.020376  0  4.030209  0  0  -0.005334  0.025274  0  3.991798  0
C  C29  1  0.14324413  0.61389943  0.89060167  1  0  -0.066967  0  3.71116  0  0  -0.087641  0  3.959373  0  0  -0.088331  0  3.980393  0  0  -0.082914  -0.087334  0  3.945801  0
C  C30  1  0.85675815  0.38610388  0.10939840  1  0  -0.067103  0  3.71122  0  0  -0.087751  0  3.959433  0  0  -0.088439  0  3.980454  0  0  -0.082895  -0.08744  0  3.945858  0
C  C31  1  0.24468188  0.78576082  0.99371608  1  0  -0.146125  0  3.740422  0  0  -0.172472  0  4.006537  0  0  -0.176494  0  4.024173  0  0  -0.094132  -0.169753  0  3.991794  0
C  C32  1  0.75531659  0.21423963  0.00628110  1  0  -0.146204  0  3.740312  0  0  -0.172562  0  4.006373  0  0  -0.176584  0  4.024007  0  0  -0.094191  -0.169847  0  3.991635  0
C  C33  1  0.90481961  0.42674303  0.65819915  1  0  0.277588  0  3.78049  0  0  0.246937  0  4.054193  0  0  0.258163  0  4.071281  0  0  0.210851  0.240035  0  4.0414  0
C  C34  1  0.09518157  0.57325741  0.34180043  1  0  0.2777  0  3.780472  0  0  0.24702  0  4.054214  0  0  0.258244  0  4.071306  0  0  0.210877  0.240109  0  4.04143  0
N  N35  1  0.44931568  0.34680310  0.28000556  1  0  -0.398213  0  3.23173  0  0  -0.321162  0  3.521029  0  0  -0.342383  0  3.529324  0  0  -0.337249  -0.306408  0  3.512118  0
N  N36  1  0.55068467  0.65319876  0.71999625  1  0  -0.398281  0  3.231807  0  0  -0.321246  0  3.521102  0  0  -0.342467  0  3.529401  0  0  -0.33728  -0.306482  0  3.512186  0
N  N37  1  0.34465001  0.30272199  0.03686249  1  0  -0.264056  0  2.871967  0  0  -0.258052  0  3.142585  0  0  -0.256453  0  3.162751  0  0  -0.213497  -0.251917  0  3.133021  0
N  N38  1  0.65535034  0.69727988  0.96313826  1  0  -0.264089  0  2.871972  0  0  -0.258059  0  3.142579  0  0  -0.256472  0  3.162737  0  0  -0.213518  -0.251918  0  3.133009  0
N  N39  1  0.32053346  0.13052902  0.07451288  1  0  0.001191  0  3.607316  0  0  0.118923  0  3.78267  0  0  0.074602  0  3.847846  0  0  -0.11801  0.126306  0  3.766554  0
N  N40  1  0.67946553  0.86947285  0.92548774  1  0  0.001293  0  3.607229  0  0  0.118959  0  3.782608  0  0  0.074672  0  3.847749  0  0  -0.117992  0.126331  0  3.76651  0
N  N41  1  0.73307268  0.38744050  0.56467246  1  0  -0.340966  0  3.109127  0  0  -0.280175  0  3.396845  0  0  -0.29766  0  3.412751  0  0  -0.22297  -0.268468  0  3.385598  0
N  N42  1  0.26692712  0.61255993  0.43532804  1  0  -0.340976  0  3.109126  0  0  -0.280173  0  3.396848  0  0  -0.297659  0  3.412757  0  0  -0.222955  -0.268469  0  3.385613  0
N  N43  1  0.67059258  0.20043357  0.49821318  1  0  -0.071061  0  2.9918  0  0  -0.067045  0  3.283927  0  0  -0.066554  0  3.298746  0  0  -0.096071  -0.066866  0  3.273562  0
N  N44  1  0.32940802  0.79956541  0.50178828  1  0  -0.071065  0  2.991709  0  0  -0.067053  0  3.283833  0  0  -0.06656  0  3.298652  0  0  -0.096072  -0.066874  0  3.27347  0
N  N45  1  0.79808917  0.12949697  0.54779673  1  0  -0.115721  0  3.10111  0  0  -0.077647  0  3.383358  0  0  -0.08208  0  3.396539  0  0  -0.093617  -0.074368  0  3.373724  0
N  N46  1  0.20191006  0.87050201  0.45220458  1  0  -0.115677  0  3.10103  0  0  -0.077593  0  3.383257  0  0  -0.082027  0  3.396437  0  0  -0.093614  -0.074307  0  3.37361  0
N  N47  1  0.94791217  0.26723016  0.64837753  1  0  -0.334982  0  2.995575  0  0  -0.294729  0  3.264098  0  0  -0.307482  0  3.277463  0  0  -0.223392  -0.285785  0  3.2537  0
N  N48  1  0.05208845  0.73276884  0.35162180  1  0  -0.335107  0  2.995622  0  0  -0.29484  0  3.264143  0  0  -0.307593  0  3.277508  0  0  -0.223444  -0.285892  0  3.253736  0
O  O49  1  0.69678752  0.74237415  0.42292769  1  0  -0.820125  0  1.986793  0  0  -0.757205  0  2.219246  0  0  -0.776955  0  2.184559  0  0  -0.580776  -0.743285  0  2.243993  0
O  O50  1  0.30321173  0.25762484  0.57707256  1  0  -0.820088  0  1.986784  0  0  -0.757178  0  2.219233  0  0  -0.776933  0  2.184541  0  0  -0.580765  -0.743255  0  2.24398  0
