# generated using pymatgen
data_CuH6C4(N3O)4
_symmetry_space_group_name_H-M   'P 1'
_cell_length_a   6.97665258
_cell_length_b   8.78971556
_cell_length_c   9.49089516
_cell_angle_alpha   101.73529664
_cell_angle_beta   90.00072721
_cell_angle_gamma   90.00064477
_symmetry_Int_Tables_number   1
_chemical_formula_structural   CuH6C4(N3O)4
_chemical_formula_sum   'Cu2 H12 C8 N24 O8'
_cell_volume   569.84287677
_cell_formula_units_Z   2
loop_
 _symmetry_equiv_pos_site_id
 _symmetry_equiv_pos_as_xyz
  1  'x, y, z'
loop_
 _atom_site_type_symbol
 _atom_site_label
 _atom_site_symmetry_multiplicity
 _atom_site_fract_x
 _atom_site_fract_y
 _atom_site_fract_z
 _atom_site_occupancy
 _atom_site_hle17_ddec_charge
 _atom_site_hle17_ddec_spin_density
 _atom_site_hle17_ddec_sum_bond_order
 _atom_site_hle17_magmom
 _atom_site_hse06_10hf_ddec_charge
 _atom_site_hse06_10hf_ddec_spin_density
 _atom_site_hse06_10hf_ddec_sum_bond_order
 _atom_site_hse06_10hf_magmom
 _atom_site_hse06_ddec_charge
 _atom_site_hse06_ddec_spin_density
 _atom_site_hse06_ddec_sum_bond_order
 _atom_site_hse06_magmom
 _atom_site_pbe_cm5_charge
 _atom_site_pbe_ddec_charge
 _atom_site_pbe_ddec_spin_density
 _atom_site_pbe_ddec_sum_bond_order
 _atom_site_pbe_magmom
Cu  Cu0  1  0.00000159  0.00000028  0.99999908  1  0.866571  0.704974  1.853753  0.499  0.84188  0.793888  2.25709  0.616  0.941836  0.87544  2.176227  0.713  0.781076  0.776044  0.724218  2.317327  0.544
Cu  Cu1  1  0.49999618  0.00000158  0.49999962  1  0.866659  -0.704964  1.853536  -0.499  0.842044  -0.793875  2.256879  -0.616  0.941964  -0.875437  2.175945  -0.713  0.781109  0.776185  -0.724206  2.31708  -0.544
H  H2  1  0.09956976  0.33276691  0.78307525  1  0.129696  -1.3e-05  0.967125  0.0  0.137783  -1.4e-05  1.04866  0.0  0.14029  -2.2e-05  1.044755  0.0  0.112464  0.135809  1.4e-05  1.050827  0.0
H  H3  1  0.59957079  0.66724283  0.71693755  1  0.129716  2.4e-05  0.967064  0.0  0.137781  1.5e-05  1.048635  0.0  0.140284  2.2e-05  1.04473  0.0  0.112523  0.135807  -1.4e-05  1.050801  0.0
H  H4  1  0.90042859  0.66722964  0.21692458  1  0.129729  -2e-05  0.967107  0.0  0.137805  -1.5e-05  1.048649  0.0  0.140312  -2.2e-05  1.044743  0.0  0.112495  0.135833  1.4e-05  1.050815  0.0
H  H5  1  0.40043474  0.33275486  0.28306357  1  0.129736  9e-06  0.967043  0.0  0.137795  1.4e-05  1.048603  0.0  0.140297  2.1e-05  1.044701  0.0  0.112517  0.135821  -1.4e-05  1.05077  0.0
H  H6  1  0.20112597  0.37211293  0.61962323  1  0.127987  -1.9e-05  0.932431  0.0  0.142839  -3.2e-05  1.002109  0.0  0.144035  -1.2e-05  0.999702  0.0  0.112147  0.141471  -8.7e-05  1.003639  0.0
H  H7  1  0.70112918  0.62789783  0.88039705  1  0.128053  2.6e-05  0.9325  0.0  0.142914  3.2e-05  1.002182  0.0  0.144111  1.2e-05  0.999767  0.0  0.112226  0.141547  8.7e-05  1.00371  0.0
H  H8  1  0.79887239  0.62788244  0.38037742  1  0.128031  -2.4e-05  0.932467  0.0  0.142884  -3.2e-05  1.00214  0.0  0.14408  -1.2e-05  0.99973  0.0  0.112185  0.141515  -8.7e-05  1.003672  0.0
H  H9  1  0.29887347  0.37210217  0.11960559  1  0.12808  1.9e-05  0.93254  0.0  0.142943  3.2e-05  1.002214  0.0  0.14414  1.2e-05  0.999799  0.0  0.112238  0.141575  8.7e-05  1.003743  0.0
H  H10  1  0.04728051  0.51244519  0.72804321  1  0.124066  -0.000224  0.925401  0.0  0.142614  -0.00019  0.988275  0.0  0.142908  -0.000135  0.987781  0.0  0.117233  0.142895  -0.000207  0.986794  0.0
H  H11  1  0.54727693  0.48756624  0.77197260  1  0.124075  0.000233  0.925352  0.0  0.142602  0.00019  0.988279  0.0  0.142897  0.000134  0.987781  0.0  0.11729  0.142883  0.000207  0.986797  0.0
H  H12  1  0.95272071  0.48755365  0.27195919  1  0.124039  -0.000228  0.925453  0.0  0.142588  -0.00019  0.988326  0.0  0.14288  -0.000135  0.987833  0.0  0.117237  0.14287  -0.000207  0.986844  0.0
H  H13  1  0.45272429  0.51243376  0.22803003  1  0.124098  0.000222  0.925331  0.0  0.142647  0.00019  0.98822  0.0  0.142942  0.000135  0.987727  0.0  0.117296  0.142927  0.000207  0.986738  0.0
C  C14  1  0.07678054  0.38853269  0.69154228  1  -0.19423  -0.00055  3.609201  0.0  -0.316689  -0.000419  3.865893  0.0  -0.30111  -0.000308  3.877141  0.0  -0.129291  -0.31904  -0.000554  3.862078  0.0
C  C15  1  0.57678372  0.61147909  0.80847282  1  -0.194371  0.000502  3.609077  0.0  -0.316855  0.000419  3.865849  0.0  -0.301235  0.000309  3.877099  0.0  -0.129539  -0.319205  0.000554  3.862034  0.0
C  C16  1  0.92321639  0.61146499  0.30845988  1  -0.194321  -0.000526  3.609345  0.0  -0.316757  -0.000419  3.866009  0.0  -0.301162  -0.000309  3.877258  0.0  -0.129381  -0.319112  -0.000554  3.862197  0.0
C  C17  1  0.42321894  0.38852095  0.19152771  1  -0.194458  0.000558  3.609076  0.0  -0.316943  0.00042  3.865844  0.0  -0.301328  0.000309  3.877099  0.0  -0.129537  -0.319289  0.000554  3.862028  0.0
C  C18  1  0.83643763  0.17419885  0.60260634  1  0.41881  0.001381  3.820556  0.0  0.364317  -0.000109  4.113236  -0.001  0.398662  0.000568  4.12272  0.0  0.340175  0.349683  -0.00081  4.105769  -0.002
C  C19  1  0.33644014  0.82580317  0.89739974  1  0.418794  -0.001375  3.820598  0.0  0.364318  0.000107  4.113246  0.001  0.398694  -0.000565  4.122729  0.0  0.340123  0.349682  0.00081  4.105782  0.002
C  C20  1  0.16355643  0.82580117  0.39739525  1  0.41878  0.001365  3.820585  0.0  0.364262  -0.00011  4.113315  -0.001  0.398622  0.000563  4.122798  0.0  0.340119  0.349612  -0.00081  4.105869  -0.002
C  C21  1  0.66356251  0.17419690  0.10259869  1  0.418755  -0.00137  3.820711  0.0  0.364209  0.000108  4.113416  0.001  0.398586  -0.000565  4.1229  0.0  0.340076  0.349562  0.00081  4.105969  0.002
N  N22  1  0.65998906  0.30683831  0.47982760  1  -0.005098  -0.001099  2.918719  -0.001  -0.003892  -0.002172  3.22937  -0.002  0.002206  -0.001214  3.235917  -0.001  -0.061135  -0.008042  -0.003151  3.223555  -0.003
N  N23  1  0.15999466  0.69316540  0.02017587  1  -0.005187  0.001094  2.918727  0.001  -0.003994  0.002173  3.229396  0.002  0.002109  0.001211  3.235935  0.001  -0.061146  -0.00814  0.003151  3.223577  0.003
N  N24  1  0.34001217  0.69316407  0.52017235  1  -0.005112  -0.001138  2.918709  -0.001  -0.003906  -0.00217  3.229373  -0.002  0.00219  -0.001207  3.235918  -0.001  -0.061136  -0.008056  -0.003151  3.223558  -0.003
N  N25  1  0.84000513  0.30683241  0.97981790  1  -0.00508  0.001103  2.918545  0.001  -0.003886  0.002173  3.229164  0.002  0.002216  0.001212  3.235701  0.001  -0.061115  -0.00803  0.00315  3.223345  0.003
N  N26  1  0.92050070  0.07223214  0.67225302  1  -0.378539  0.001075  2.899169  0.001  -0.40698  0.000789  3.209548  0.001  -0.423424  0.001113  3.211807  0.001  -0.219781  -0.395989  -5.5e-05  3.205286  0.0
N  N27  1  0.42050355  0.92777428  0.82775579  1  -0.378701  -0.001057  2.899368  -0.001  -0.407195  -0.00079  3.209633  -0.001  -0.423638  -0.001122  3.211877  -0.001  -0.219847  -0.396201  5.5e-05  3.205367  0.0
N  N28  1  0.07949336  0.92777019  0.32775008  1  -0.378652  0.001089  2.899145  0.001  -0.407071  0.000791  3.209521  0.001  -0.423516  0.001114  3.211775  0.001  -0.219801  -0.396073  -5.6e-05  3.205261  0.0
N  N29  1  0.57950054  0.07222694  0.17224393  1  -0.378705  -0.001075  2.899441  -0.001  -0.407162  -0.000792  3.209694  -0.001  -0.423604  -0.00112  3.211939  -0.001  -0.219836  -0.396161  5.4e-05  3.20543  0.0
N  N30  1  0.85182642  0.93075101  0.65401330  1  0.597751  0.002609  4.012922  0.005  0.656269  -0.000879  4.282551  0.001  0.685246  -0.000846  4.294097  0.0  0.122171  0.636158  -0.00106  4.275155  0.001
N  N31  1  0.35182685  0.06925824  0.84598806  1  0.597758  -0.002581  4.013274  -0.005  0.656489  0.000878  4.282606  -0.001  0.68547  0.000849  4.294144  0.0  0.122393  0.636374  0.001061  4.275208  -0.001
N  N32  1  0.14816763  0.06925369  0.34598712  1  0.59779  0.002599  4.012844  0.005  0.65627  -0.000881  4.282523  0.001  0.685246  -0.000851  4.294066  0.0  0.12224  0.636158  -0.00106  4.275125  0.001
N  N33  1  0.64817580  0.93074415  0.15401084  1  0.597659  -0.002587  4.013249  -0.005  0.656406  0.00088  4.282572  -0.001  0.685386  0.00085  4.294112  0.0  0.122371  0.636295  0.001061  4.27517  -0.001
N  N34  1  0.79777405  0.39820269  0.53568751  1  -0.067585  -0.006094  2.844564  -0.008  -0.082657  -0.003668  3.124885  -0.005  -0.069025  -0.002113  3.139058  -0.003  -0.052049  -0.084069  -0.00474  3.119474  -0.006
N  N35  1  0.29777581  0.60180350  0.96432221  1  -0.06759  0.006102  2.844942  0.008  -0.082655  0.003667  3.125273  0.005  -0.068991  0.00211  3.139459  0.003  -0.052057  -0.084064  0.00474  3.119853  0.006
N  N36  1  0.20222717  0.60179617  0.46431384  1  -0.067582  -0.006079  2.844432  -0.008  -0.082657  -0.003669  3.124759  -0.005  -0.069011  -0.002111  3.138936  -0.003  -0.052038  -0.084068  -0.004741  3.119346  -0.006
N  N37  1  0.70222398  0.39819659  0.03567517  1  -0.067651  0.006109  2.844677  0.008  -0.08272  0.003667  3.125004  0.005  -0.069056  0.002111  3.139189  0.003  -0.052048  -0.084127  0.00474  3.119584  0.006
N  N38  1  0.90907248  0.31929006  0.61315706  1  0.018361  -0.001594  3.472729  -0.002  0.14293  -0.00125  3.653102  -0.002  0.095179  -0.001166  3.717219  -0.002  -0.110605  0.150833  -0.001199  3.639341  -0.001
N  N39  1  0.40907553  0.68071617  0.88685477  1  0.01845  0.001594  3.472802  0.002  0.143023  0.001249  3.653175  0.002  0.095176  0.001166  3.717384  0.002  -0.110547  0.150926  0.001199  3.639414  0.001
N  N40  1  0.09092587  0.68070881  0.38684324  1  0.018367  -0.001573  3.47266  -0.002  0.142947  -0.001247  3.653019  -0.002  0.095156  -0.001164  3.717178  -0.002  -0.1106  0.150858  -0.001199  3.639261  -0.001
N  N41  1  0.59092713  0.31928502  0.11314600  1  0.018518  0.001581  3.472677  0.002  0.143095  0.001248  3.653062  0.002  0.095249  0.001163  3.717277  0.002  -0.110542  0.151001  0.001199  3.639306  0.001
N  N42  1  0.67958370  0.16736692  0.51848406  1  -0.364929  -0.060341  3.280739  -0.073  -0.340864  -0.043313  3.629913  -0.055  -0.373989  -0.036801  3.63988  -0.049  -0.278541  -0.321025  -0.045523  3.623521  -0.056
N  N43  1  0.17958918  0.83263806  0.98151800  1  -0.364738  0.060336  3.280414  0.073  -0.340638  0.043316  3.629516  0.055  -0.373781  0.036807  3.639526  0.049  -0.278462  -0.320804  0.045525  3.623141  0.056
N  N44  1  0.32041179  0.83263200  0.48151309  1  -0.364847  -0.060322  3.280768  -0.073  -0.340773  -0.043317  3.629936  -0.055  -0.373899  -0.036809  3.639905  -0.049  -0.278531  -0.32093  -0.045524  3.623549  -0.056
N  N45  1  0.82041204  0.16736203  0.01847939  1  -0.364826  0.060314  3.280621  0.073  -0.340672  0.043314  3.629693  0.055  -0.373814  0.036807  3.639702  0.049  -0.278481  -0.320834  0.045524  3.623323  0.056
O  O46  1  0.92946957  0.83921119  0.72195705  1  -0.39708  -0.023025  1.742784  -0.029  -0.409491  -0.013245  1.965496  -0.018  -0.428022  -0.007073  1.961142  -0.01  -0.156643  -0.394282  -0.021179  1.966796  -0.027
O  O47  1  0.42946591  0.16078729  0.77804392  1  -0.397096  0.023033  1.743111  0.029  -0.409587  0.013235  1.965785  0.018  -0.428111  0.007065  1.961415  0.01  -0.156744  -0.394378  0.021168  1.967084  0.027
O  O48  1  0.07052448  0.16078770  0.27804220  1  -0.397091  -0.022999  1.742837  -0.029  -0.409477  -0.013242  1.96555  -0.018  -0.428006  -0.007071  1.961192  -0.01  -0.156676  -0.394271  -0.021175  1.966853  -0.027
O  O49  1  0.57053675  0.83921047  0.22195300  1  -0.397009  0.023028  1.743052  0.029  -0.409517  0.013239  1.965709  0.018  -0.428041  0.007068  1.961341  0.01  -0.15674  -0.394309  0.021171  1.967008  0.027
O  O50  1  0.71137827  0.87637463  0.56743895  1  -0.442513  -0.09349  1.888473  -0.122  -0.447164  -0.062342  2.159595  -0.089  -0.483907  -0.045213  2.153359  -0.069  -0.186695  -0.422454  -0.073352  2.165067  -0.1
O  O51  1  0.21137095  0.12363072  0.93256242  1  -0.442453  0.09343  1.888464  0.122  -0.44718  0.062347  2.159526  0.089  -0.483936  0.045224  2.153313  0.069  -0.186752  -0.422493  0.073352  2.165059  0.1
O  O52  1  0.28861865  0.12363007  0.43256147  1  -0.442445  -0.093522  1.888401  -0.122  -0.4471  -0.062344  2.159551  -0.089  -0.483843  -0.045211  2.153318  -0.069  -0.186672  -0.422399  -0.073352  2.165043  -0.1
O  O53  1  0.78863027  0.87637050  0.06743730  1  -0.442439  0.093474  1.888403  0.122  -0.447169  0.062345  2.159439  0.089  -0.483925  0.04522  2.153229  0.069  -0.186738  -0.42248  0.073355  2.164965  0.1
