# generated using pymatgen
data_Zn6H41C43N3O31
_symmetry_space_group_name_H-M   'P 1'
_cell_length_a   18.63809976
_cell_length_b   18.40639974
_cell_length_c   19.22455846
_cell_angle_alpha   109.42767830
_cell_angle_beta   109.12313655
_cell_angle_gamma   108.30842644
_symmetry_Int_Tables_number   1
_chemical_formula_structural   Zn6H41C43N3O31
_chemical_formula_sum   'Zn6 H41 C43 N3 O31'
_cell_volume   5171.67869986
_cell_formula_units_Z   1
loop_
 _symmetry_equiv_pos_site_id
 _symmetry_equiv_pos_as_xyz
  1  'x, y, z'
loop_
 _atom_site_type_symbol
 _atom_site_label
 _atom_site_symmetry_multiplicity
 _atom_site_fract_x
 _atom_site_fract_y
 _atom_site_fract_z
 _atom_site_occupancy
 _atom_site_pbe_bader_charge
 _atom_site_pbe_bader_spin_density
 _atom_site_pbe_cm5_charge
 _atom_site_pbe_ddec_charge
 _atom_site_pbe_ddec_spin_density
 _atom_site_pbe_ddec_sum_bond_order
 _atom_site_pbe_magmom
Zn  Zn0  1  0.43867454  0.50246997  0.43736005  1  1.304715  0  0.719025  0.947798  0  2.154727  0
Zn  Zn1  1  0.54795121  0.49594878  0.56408307  1  1.303861  0  0.719023  0.948308  0  2.164705  0
Zn  Zn2  1  0.99085566  0.92064930  0.43171549  1  1.301352  0  0.711698  0.937768  0  2.159368  0
Zn  Zn3  1  0.98854089  0.04520561  0.55267161  1  1.308904  0  0.720186  0.955225  0  2.159066  0
Zn  Zn4  1  0.56662479  0.08214748  0.00087931  1  1.310457  0  0.719949  0.953885  0  2.157533  0
Zn  Zn5  1  0.45703212  0.95295951  0.00948748  1  1.318238  0  0.716663  0.963325  0  2.158388  0
H  H6  1  0.81695986  0.91299943  0.63479199  1  0.091995  0  0.116615  0.079881  0  0.944715  0
H  H7  1  0.52458906  0.78246766  0.88194333  1  0.116266  0  0.113564  0.115439  0  0.97334  0
H  H8  1  0.58311163  0.88590997  0.79611208  1  0.087635  0  0.113961  0.134582  0  0.979646  0
H  H9  1  0.57190504  0.68254571  0.80261044  1  0.100743  0  0.114899  0.113163  0  0.968493  0
H  H10  1  0.47831058  0.72247035  0.66677525  1  0.085254  0  0.11241  0.133054  0  0.980258  0
H  H11  1  0.61141278  0.83735305  0.10961378  1  0.120637  0  0.102073  0.119402  0  1.011508  0
H  H12  1  0.73761599  0.81953984  0.19072949  1  0.098286  0  0.107696  0.103213  0  0.970967  0
H  H13  1  0.79056074  0.00701430  0.31641910  1  0.05737  0  0.106596  0.13081  0  0.987195  0
H  H14  1  0.85771855  0.73844643  0.50252549  1  0.048015  0  0.09605  0.103879  0  1.008359  0
H  H15  1  0.23027414  0.07279270  0.71494625  1  0.072475  0  0.099514  0.118935  0  1.032543  0
H  H16  1  0.77583183  0.71545470  0.40794134  1  0.05226  0  0.10224  0.114884  0  0.985785  0
H  H17  1  0.56930923  0.31762559  0.17740723  1  0.096283  0  0.10655  0.10235  0  0.976419  0
H  H18  1  0.61550414  0.68539315  0.37154578  1  0.04242  0  0.107258  0.06251  0  0.964172  0
H  H19  1  0.68094638  0.81323200  0.60039635  1  0.062786  0  0.100079  0.114149  0  0.977152  0
H  H20  1  0.73270084  0.75643060  0.63488779  1  0.042905  0  0.099179  0.112015  0  0.989185  0
H  H21  1  0.67212791  0.58918757  0.35823901  1  0.586418  0  0.318135  0.345808  0  0.912199  0
H  H22  1  0.52263734  0.70245798  0.42456817  1  0.630824  0  0.309984  0.363761  0  0.933609  0
H  H23  1  0.64757722  0.87550500  0.48335413  1  0.63246  0  0.317926  0.372952  0  0.910966  0
H  H24  1  0.64257475  0.34666621  0.46652486  1  0.477457  0  0.313615  0.258658  0  0.960209  0
H  H25  1  0.74446962  0.32135664  0.43935553  1  0.067978  0  0.10952  0.113636  0  0.975607  0
H  H26  1  0.72340407  0.36298698  0.36672592  1  0.052073  0  0.104024  0.110486  0  0.979071  0
H  H27  1  0.66533019  0.24979469  0.33050039  1  0.07034  0  0.095504  0.098521  0  1.021812  0
H  H28  1  0.52512044  0.18575264  0.24123802  1  0.10139  0  0.107185  0.131241  0  0.986944  0
H  H29  1  0.75501822  0.08749387  0.16874910  1  0.468638  0  0.311636  0.260763  0  0.961922  0
H  H30  1  0.88831261  0.10143329  0.20417018  1  0.043036  0  0.109708  0.114238  0  0.97407  0
H  H31  1  0.84115460  0.98504444  0.16369491  1  0.070105  0  0.104375  0.111364  0  0.979425  0
H  H32  1  0.87949264  0.05465165  0.27110093  1  0.05983  0  0.097181  0.103504  0  1.017812  0
H  H33  1  0.36567999  0.12193627  0.78305818  1  0.615277  0  0.330846  0.354829  0  0.88796  0
H  H34  1  0.23013907  0.88182340  0.83958838  1  0.626407  0  0.320475  0.361462  0  0.911952  0
H  H35  1  0.16858618  0.85132067  0.68464177  1  0.47555  0  0.301362  0.252269  0  1.004978  0
H  H36  1  0.05671999  0.71962503  0.56914599  1  0.030881  0  0.105993  0.112129  0  0.981444  0
H  H37  1  0.03130655  0.77191429  0.50867084  1  0.098786  0  0.104315  0.124834  0  1.006304  0
H  H38  1  0.00337378  0.78289992  0.59064851  1  0.043482  0  0.092363  0.096224  0  1.003501  0
H  H39  1  0.53235575  0.39841624  0.28116573  1  0.091836  0  0.102903  0.120718  0  1.007381  0
H  H40  1  0.74265890  0.86907654  0.38937330  1  0.603535  0  0.313273  0.362147  0  0.912104  0
H  H41  1  0.86778670  0.78484355  0.64050092  1  0.572074  0  0.308084  0.330794  0  0.937317  0
H  H42  1  0.21364049  0.11953841  0.45720618  1  0.108111  0  0.114316  0.115904  0  0.97019  0
H  H43  1  0.16319870  0.25862022  0.53275851  1  0.102969  0  0.112315  0.132592  0  0.981493  0
H  H44  1  0.34733613  0.25642471  0.50354641  1  0.08591  0  0.11374  0.113645  0  0.970214  0
H  H45  1  0.75727161  0.65556597  0.53275396  1  0.047603  0  0.10663  0.053339  0  0.952234  0
H  H46  1  0.21109818  0.30534803  0.42194253  1  0.12024  0  0.113436  0.135644  0  0.979834  0
C  C47  1  0.55010571  0.40740297  0.42398306  1  1.544458  0  0.224438  0.578482  0  4.129541  0
C  C48  1  0.16017535  0.19480918  0.50494585  1  -0.033566  0  -0.088669  -0.229156  0  3.883821  0
C  C49  1  0.28334615  0.25227667  0.47988302  1  -0.039979  0  -0.062186  -0.010128  0  3.977264  0
C  C50  1  0.59263979  0.62904463  0.49096484  1  1.539189  0  0.226691  0.618983  0  4.059085  0
C  C51  1  0.27384753  0.30929316  0.45299924  1  -0.070461  0  -0.090512  -0.238914  0  3.885642  0
C  C52  1  0.54192815  0.79143347  0.83509471  1  -0.072275  0  -0.067209  -0.026082  0  3.981694  0
C  C53  1  0.55795222  0.86824576  0.83524188  1  -0.018253  0  -0.086781  -0.226241  0  3.871284  0
C  C54  1  0.54557859  0.71942399  0.77794863  1  -0.069957  0  -0.060519  -0.009908  0  3.970008  0
C  C55  1  0.51124824  0.69165674  0.69458434  1  0.02624  0  -0.091254  -0.233509  0  3.894129  0
C  C56  1  0.86665326  0.94704073  0.35300428  1  1.469693  0  0.1929  0.615109  0  4.208512  0
C  C57  1  0.87648776  0.89476400  0.52270715  1  1.537253  0  0.220555  0.611297  0  4.075895  0
C  C58  1  0.80004014  0.82524637  0.51621834  1  0.032914  0  -0.022719  -0.141432  0  3.755001  0
C  C59  1  0.10043388  0.95107471  0.58084802  1  1.563074  0  0.22541  0.583518  0  4.115751  0
C  C60  1  0.09744329  0.12288193  0.50647859  1  1.529435  0  0.212282  0.642302  0  4.152632  0
C  C61  1  0.61242507  0.97850102  0.10148805  1  1.539575  0  0.216237  0.561432  0  4.158659  0
C  C62  1  0.50870818  0.61552403  0.63368680  1  1.514504  0  0.209325  0.64039  0  4.154758  0
C  C63  1  0.54036329  0.15105396  0.13030558  1  1.471577  0  0.204293  0.639356  0  4.165621  0
C  C64  1  0.36657236  0.98596523  0.89572493  1  1.487978  0  0.192488  0.543507  0  4.223832  0
C  C65  1  0.54568018  0.93351950  0.89342592  1  1.52467  0  0.211135  0.64202  0  4.151828  0
C  C66  1  0.67540419  0.89325034  0.15425334  1  0.00954  0  -0.119969  -0.228388  0  4.027648  0
C  C67  1  0.68766283  0.97001944  0.15168710  1  0.403949  0  0.096458  0.086969  0  4.030199  0
C  C68  1  0.73871482  0.88306512  0.21100822  1  -0.071166  0  -0.072692  0.014507  0  4.016125  0
C  C69  1  0.71390450  0.81990438  0.45832162  1  0.985595  0  0.153268  0.442208  0  3.827639  0
C  C70  1  0.79688498  0.94813071  0.29158882  1  -0.037457  0  -0.118007  -0.285159  0  3.95977  0
C  C71  1  0.29502990  0.02564940  0.78838162  1  0.536376  0  0.07341  0.263849  0  4.084739  0
C  C72  1  0.29290868  0.97454948  0.82725829  1  0.485108  0  0.028413  -0.022757  0  3.995576  0
C  C73  1  0.22497932  0.01279458  0.71695172  1  -0.004914  0  -0.14078  -0.355645  0  4.048535  0
C  C74  1  0.34845915  0.37743950  0.46030873  1  1.519632  0  0.214927  0.646297  0  4.144561  0
C  C75  1  0.15568631  0.93714269  0.64706803  1  0.420366  0  0.106033  0.138082  0  4.004472  0
C  C76  1  0.72705532  0.66658731  0.48022812  1  0.470845  0  5.3e-05  0.199399  0  3.850202  0
C  C77  1  0.79425165  0.73471955  0.47439481  1  -0.042412  0  -0.171059  -0.27155  0  3.927156  0
C  C78  1  0.63652346  0.73492429  0.43571330  1  0.49221  0  -0.00667  0.078709  0  3.833438  0
C  C79  1  0.71934678  0.78046728  0.58941742  1  -0.044965  0  -0.163716  -0.264406  0  3.875289  0
C  C80  1  0.80543237  0.84569133  0.60317883  1  0.470375  0  -0.002149  0.205295  0  3.818223  0
C  C81  1  0.66624720  0.70262013  0.49865036  1  0.014591  0  -0.028342  -0.102697  0  3.813444  0
C  C82  1  0.69423215  0.31526653  0.38482409  1  0.267504  0  -0.128858  -0.208499  0  3.98031  0
C  C83  1  0.84732540  0.04628895  0.20734427  1  0.294245  0  -0.128319  -0.209676  0  3.978751  0
C  C84  1  0.05234447  0.77834484  0.57162476  1  0.248608  0  -0.138997  -0.226166  0  3.96354  0
C  C85  1  0.56144824  0.29696177  0.22279737  1  -0.138488  0  -0.076335  0.000925  0  4.03417  0
C  C86  1  0.54582407  0.21369634  0.20497606  1  0.000614  0  -0.113013  -0.275663  0  3.937007  0
C  C87  1  0.55788531  0.35493988  0.29138209  1  0.01856  0  -0.113664  -0.204607  0  4.00691  0
C  C88  1  0.57999372  0.36034777  0.36939860  1  0.429149  0  0.096554  0.084371  0  4.027921  0
C  C89  1  0.21585445  0.18366099  0.47760717  1  -0.0394  0  -0.066445  -0.024226  0  3.981968  0
N  N90  1  0.63170157  0.33120555  0.40690518  1  -1.2172  0  -0.428222  -0.234021  0  3.620468  0
N  N91  1  0.76410499  0.04279400  0.18546155  1  -1.220192  0  -0.427664  -0.231258  0  3.618837  0
N  N92  1  0.13745421  0.85388529  0.63136204  1  -1.151284  0  -0.430854  -0.242309  0  3.549211  0
O  O93  1  0.49154057  0.42527092  0.39176060  1  -1.164621  0  -0.30407  -0.549642  0  2.331825  0
O  O94  1  0.53568085  0.92360800  0.07895823  1  -1.126436  0  -0.313773  -0.514658  0  2.233014  0
O  O95  1  0.58294574  0.17960269  0.09526160  1  -1.134018  0  -0.33183  -0.548652  0  2.229098  0
O  O96  1  0.58630101  0.42505658  0.50204197  1  -1.140583  0  -0.32413  -0.542679  0  2.269365  0
O  O97  1  0.49274343  0.07004271  0.10436862  1  -1.165388  0  -0.329693  -0.583498  0  2.298173  0
O  O98  1  0.44246191  0.04476186  0.92390014  1  -1.176967  0  -0.317442  -0.547995  0  2.404227  0
O  O99  1  0.34794195  0.93093844  0.92450663  1  -1.15082  0  -0.340039  -0.572911  0  2.244116  0
O  O100  1  0.58992593  0.01510282  0.91629660  1  -1.118973  0  -0.32542  -0.536963  0  2.188594  0
O  O101  1  0.49266659  0.90492489  0.91767671  1  -1.176278  0  -0.314018  -0.577628  0  2.331352  0
O  O102  1  0.51459098  0.60060687  0.43376459  1  -1.147898  0  -0.313126  -0.54278  0  2.277322  0
O  O103  1  0.61153125  0.59873307  0.54018914  1  -1.179822  0  -0.302346  -0.557032  0  2.31785  0
O  O104  1  0.89773407  0.00313680  0.43028724  1  -1.190524  0  -0.334235  -0.604896  0  2.319112  0
O  O105  1  0.46012081  0.58784524  0.55617240  1  -1.167446  0  -0.318107  -0.575414  0  2.278089  0
O  O106  1  0.55510518  0.58151512  0.66116600  1  -1.136174  0  -0.325805  -0.54113  0  2.217923  0
O  O107  1  0.33142357  0.41245296  0.41298262  1  -1.112837  0  -0.321725  -0.529529  0  2.203241  0
O  O108  1  0.42417444  0.39776481  0.51211994  1  -1.179276  0  -0.317326  -0.580838  0  2.310964  0
O  O109  1  0.89598773  0.89330492  0.32929332  1  -1.129903  0  -0.333359  -0.541126  0  2.205542  0
O  O110  1  0.68162674  0.58173136  0.40775508  1  -1.110158  0  -0.4069  -0.501996  0  2.202411  0
O  O111  1  0.56903124  0.75578785  0.43569478  1  -1.141496  0  -0.410494  -0.514493  0  2.233949  0
O  O112  1  0.70934051  0.89487656  0.50234177  1  -1.127406  0  -0.39265  -0.536051  0  2.190185  0
O  O113  1  0.37149534  0.10019672  0.82335223  1  -1.104083  0  -0.35117  -0.422872  0  2.275887  0
O  O114  1  0.21429080  0.90639054  0.80214940  1  -1.134672  0  -0.361703  -0.428603  0  2.320303  0
O  O115  1  0.90785424  0.86854128  0.47623568  1  -1.175595  0  -0.309359  -0.567846  0  2.35327  0
O  O116  1  0.70781571  0.81091558  0.37976184  1  -1.11484  0  -0.407117  -0.55947  0  2.176189  0
O  O117  1  0.87941400  0.84518003  0.65767188  1  -1.092091  0  -0.41523  -0.498801  0  2.147034  0
O  O118  1  0.90304235  0.97565309  0.57264817  1  -1.119474  0  -0.309846  -0.511082  0  2.239717  0
O  O119  1  0.07563302  0.90030602  0.50318030  1  -1.127168  0  -0.314265  -0.522105  0  2.259264  0
O  O120  1  0.08306877  0.01288727  0.60633745  1  -1.16858  0  -0.307083  -0.554704  0  2.323114  0
O  O121  1  0.07793400  0.04442196  0.45999064  1  -1.173128  0  -0.314963  -0.573174  0  2.2889  0
O  O122  1  0.06785582  0.14702833  0.55724264  1  -1.115315  0  -0.323882  -0.533813  0  2.210624  0
O  O123  1  0.63145314  0.04168267  0.08560278  1  -1.179954  0  -0.312232  -0.578271  0  2.340968  0
