# generated using pymatgen
data_MnH10C12S2(NO3)2
_symmetry_space_group_name_H-M   'P 1'
_cell_length_a   4.73040924
_cell_length_b   10.67686893
_cell_length_c   14.61177713
_cell_angle_alpha   82.77333074
_cell_angle_beta   80.68885590
_cell_angle_gamma   77.25064962
_symmetry_Int_Tables_number   1
_chemical_formula_structural   MnH10C12S2(NO3)2
_chemical_formula_sum   'Mn2 H20 C24 S4 N4 O12'
_cell_volume   707.18475527
_cell_formula_units_Z   2
loop_
 _symmetry_equiv_pos_site_id
 _symmetry_equiv_pos_as_xyz
  1  'x, y, z'
loop_
 _atom_site_type_symbol
 _atom_site_label
 _atom_site_symmetry_multiplicity
 _atom_site_fract_x
 _atom_site_fract_y
 _atom_site_fract_z
 _atom_site_occupancy
 _atom_site_hle17_ddec_charge
 _atom_site_hle17_ddec_spin_density
 _atom_site_hle17_ddec_sum_bond_order
 _atom_site_hle17_magmom
 _atom_site_hse06_10hf_ddec_charge
 _atom_site_hse06_10hf_ddec_spin_density
 _atom_site_hse06_10hf_ddec_sum_bond_order
 _atom_site_hse06_10hf_magmom
 _atom_site_hse06_ddec_charge
 _atom_site_hse06_ddec_spin_density
 _atom_site_hse06_ddec_sum_bond_order
 _atom_site_hse06_magmom
 _atom_site_pbe_cm5_charge
 _atom_site_pbe_ddec_charge
 _atom_site_pbe_ddec_spin_density
 _atom_site_pbe_ddec_sum_bond_order
 _atom_site_pbe_magmom
Mn  Mn0  1  0.99999837  0.00000902  0.49999697  1  1.325507  4.801161  1.60356  4.696  1.176193  4.725256  2.086902  4.558  1.229154  4.7678  2.015479  4.618  0.612205  1.135258  4.679884  2.13966  4.496
Mn  Mn1  1  0.49998321  0.50000010  0.00001341  1  1.325609  4.801348  1.603032  4.696  1.176269  4.725099  2.0869  4.557  1.2293  4.767816  2.015322  4.618  0.61222  1.135409  4.679366  2.139455  4.495
H  H2  1  0.09496619  0.19838439  0.26731208  1  0.098942  -0.000375  0.941679  0.0  0.109038  -0.00029  1.00602  0.0  0.111236  -0.00032  1.0045  0.0  0.109661  0.10749  -0.000249  1.006888  0.0
H  H3  1  0.43753371  0.69932776  0.76748819  1  0.098765  -0.000364  0.942069  0.0  0.108596  -0.00029  1.006787  0.0  0.110805  -0.00032  1.005237  0.0  0.109636  0.107514  -0.000247  1.006863  0.0
H  H4  1  0.90506544  0.80161613  0.73266504  1  0.099145  -0.000375  0.941704  0.0  0.109178  -0.00029  1.006066  0.0  0.111373  -0.00032  1.004553  0.0  0.109701  0.107631  -0.000249  1.006938  0.0
H  H5  1  0.56245960  0.30066911  0.23253961  1  0.098794  -0.000369  0.942179  0.0  0.108601  -0.00029  1.006877  0.0  0.110789  -0.00032  1.005391  0.0  0.109684  0.107519  -0.000247  1.006949  0.0
H  H6  1  0.28621754  0.94057785  0.05022762  1  0.077276  -0.000159  0.920115  0.0  0.088902  -3.1e-05  0.977839  0.0  0.091631  -6.5e-05  0.975209  0.0  0.11383  0.086815  1.1e-05  0.979947  0.0
H  H7  1  0.72215975  0.44217112  0.55023042  1  0.077873  -0.000158  0.920065  0.0  0.088841  7e-06  0.978478  0.0  0.091541  -4.2e-05  0.975863  0.0  0.113822  0.086778  6.3e-05  0.980592  0.0
H  H8  1  0.71382404  0.05940344  0.94976593  1  0.077263  -0.00017  0.920177  0.0  0.088823  -3e-05  0.977956  0.0  0.091551  -6.5e-05  0.975327  0.0  0.113875  0.086742  1.1e-05  0.980057  0.0
H  H9  1  0.27775935  0.55786516  0.44976268  1  0.077869  -0.000146  0.919859  0.0  0.088923  7e-06  0.978188  0.0  0.091627  -4.2e-05  0.975565  0.0  0.113833  0.086861  6.3e-05  0.980307  0.0
H  H10  1  0.56980346  0.23409183  0.58866383  1  0.402826  0.000961  0.900178  0.002  0.362351  0.001645  0.989516  0.003  0.372862  0.001287  0.974379  0.003  0.280693  0.354809  0.001973  1.00036  0.004
H  H11  1  0.60782209  0.73319268  0.08938757  1  0.402228  0.000985  0.902524  0.002  0.361417  0.001671  0.991812  0.003  0.371948  0.001307  0.976648  0.003  0.280477  0.353917  0.001978  1.002554  0.004
H  H12  1  0.43020635  0.76591356  0.41132493  1  0.402772  0.000966  0.900272  0.002  0.362284  0.001644  0.98963  0.003  0.372794  0.001287  0.974496  0.003  0.280656  0.354745  0.001973  1.000471  0.004
H  H13  1  0.39218736  0.26680893  0.91061998  1  0.402213  0.000983  0.902665  0.002  0.361413  0.001671  0.991846  0.003  0.371942  0.001308  0.976685  0.003  0.280506  0.353913  0.001979  1.002589  0.004
H  H14  1  0.99584094  0.14671435  0.11259131  1  0.118296  -0.000229  0.946319  0.0  0.129615  -0.000257  1.000405  0.0  0.133242  -0.000282  0.999391  0.0  0.107838  0.126948  -0.000235  1.001341  0.0
H  H15  1  0.74381608  0.64811141  0.61286367  1  0.119292  -0.00023  0.945219  0.0  0.130304  -0.000267  0.999823  0.0  0.133997  -0.000291  0.998717  0.0  0.108242  0.127534  -0.000238  1.000963  0.0
H  H16  1  0.00420736  0.85327942  0.88738547  1  0.118198  -0.000229  0.946572  0.0  0.129603  -0.000257  1.000543  0.0  0.133225  -0.000282  0.999535  0.0  0.107881  0.126917  -0.000235  1.001501  0.0
H  H17  1  0.25613567  0.35190760  0.38715255  1  0.119234  -0.000229  0.945382  0.0  0.130242  -0.000267  0.999994  0.0  0.133934  -0.000291  0.998893  0.0  0.108248  0.127477  -0.000238  1.001117  0.0
H  H18  1  0.50072341  0.17223762  0.50363063  1  0.411858  -0.000614  0.892276  0.0  0.380881  -6e-06  0.962496  0.001  0.391874  -0.000266  0.946435  0.001  0.291756  0.373064  0.000251  0.973892  0.001
H  H19  1  0.82318581  0.67213280  0.00382808  1  0.410862  -0.000604  0.89195  0.0  0.380163  1.6e-05  0.962981  0.001  0.391171  -0.000247  0.946914  0.001  0.291758  0.372342  0.000262  0.974363  0.001
H  H20  1  0.49929447  0.82776393  0.49636084  1  0.41172  -0.000612  0.892403  0.0  0.380745  -6e-06  0.962665  0.001  0.39174  -0.000266  0.946601  0.001  0.291696  0.372929  0.000251  0.97406  0.001
H  H21  1  0.17681434  0.32786204  0.99617721  1  0.410803  -0.000604  0.892043  0.0  0.380077  1.7e-05  0.963119  0.001  0.391083  -0.000247  0.947055  0.001  0.291725  0.372258  0.000262  0.974497  0.001
C  C22  1  0.51389498  0.06343599  0.36775397  1  0.679532  0.012383  3.86899  0.012  0.619365  0.020334  4.16343  0.018  0.656804  0.015495  4.154958  0.014  0.226065  0.593016  0.025674  4.168642  0.022
C  C23  1  0.05373152  0.56382021  0.86776660  1  0.677796  0.012364  3.873905  0.012  0.61772  0.020327  4.169019  0.018  0.655203  0.015474  4.160522  0.014  0.225535  0.591159  0.025681  4.174692  0.022
C  C24  1  0.48611501  0.93656458  0.63223504  1  0.679448  0.0124  3.868518  0.012  0.619262  0.020336  4.163  0.018  0.656725  0.015498  4.154508  0.014  0.225836  0.59289  0.025678  4.168243  0.022
C  C25  1  0.94625489  0.43616889  0.13224765  1  0.677838  0.012359  3.873781  0.012  0.617631  0.02033  4.16902  0.018  0.65513  0.015475  4.16049  0.014  0.225584  0.591051  0.025685  4.174721  0.022
C  C26  1  0.44984744  0.03559426  0.27686866  1  -0.168648  -0.002109  3.744499  -0.001  -0.148326  -0.001497  3.988453  -0.001  -0.161941  -0.001961  4.00979  -0.001  -0.018702  -0.140245  -0.001228  3.974195  -0.001
C  C27  1  0.23648452  0.53619535  0.77691507  1  -0.165353  -0.002281  3.743684  -0.002  -0.147053  -0.001647  3.989535  -0.001  -0.160451  -0.002103  4.010599  -0.001  -0.018609  -0.138587  -0.001371  3.975785  -0.001
C  C28  1  0.55016985  0.96440824  0.72312059  1  -0.168848  -0.002116  3.744407  -0.001  -0.148433  -0.001497  3.988248  -0.001  -0.162085  -0.001962  4.009634  -0.001  -0.018724  -0.140351  -0.001228  3.974003  -0.001
C  C29  1  0.76351602  0.46379857  0.22309960  1  -0.165436  -0.002267  3.743704  -0.001  -0.14695  -0.001649  3.989383  -0.001  -0.160346  -0.002098  4.010426  -0.001  -0.018561  -0.138478  -0.001371  3.975634  -0.001
C  C30  1  0.22399128  0.11489605  0.23332781  1  0.018964  0.002291  3.690924  0.002  -0.014244  0.002611  3.950407  0.003  -0.006449  0.002039  3.965325  0.002  -0.061394  -0.019231  0.003717  3.939858  0.003
C  C31  1  0.42621268  0.61580463  0.73344460  1  0.017661  0.002344  3.692135  0.002  -0.014528  0.002696  3.951611  0.003  -0.006816  0.002102  3.966593  0.002  -0.061679  -0.01971  0.003834  3.94132  0.003
C  C32  1  0.77603218  0.88509583  0.76666080  1  0.018743  0.002285  3.691096  0.002  -0.014416  0.002611  3.950608  0.003  -0.006623  0.002038  3.965551  0.002  -0.06148  -0.019404  0.003717  3.940057  0.003
C  C33  1  0.57375366  0.38420089  0.26657509  1  0.017655  0.002343  3.691854  0.002  -0.01452  0.002699  3.951275  0.003  -0.006809  0.0021  3.96623  0.002  -0.061619  -0.019704  0.003836  3.940981  0.003
C  C34  1  0.16675095  0.08520787  0.14899255  1  -0.133258  -0.002326  3.724771  -0.001  -0.150739  -0.001341  3.98878  -0.001  -0.158237  -0.001711  4.008108  -0.001  -0.095019  -0.145619  -0.001282  3.97595  -0.001
C  C35  1  0.59815921  0.58629494  0.64918333  1  -0.132494  -0.002412  3.724636  -0.002  -0.149798  -0.001348  3.988465  -0.001  -0.157364  -0.001738  4.007782  -0.001  -0.094558  -0.145162  -0.001277  3.976093  -0.001
C  C36  1  0.83331387  0.91478590  0.85098714  1  -0.133163  -0.002339  3.724757  -0.002  -0.150724  -0.001342  3.988742  -0.001  -0.158217  -0.00171  4.008064  -0.001  -0.094998  -0.14559  -0.001282  3.975925  -0.001
C  C37  1  0.40178301  0.41372697  0.35083230  1  -0.132417  -0.002407  3.724849  -0.002  -0.149736  -0.00135  3.988723  -0.001  -0.157296  -0.001733  4.008034  -0.001  -0.094655  -0.145101  -0.001278  3.976333  -0.001
C  C38  1  0.32997747  0.97166204  0.11409260  1  0.143744  0.002622  3.731945  0.002  0.112566  0.003141  3.997951  0.002  0.121169  0.002541  4.012697  0.002  0.046528  0.106473  0.004366  3.988147  0.003
C  C39  1  0.58341728  0.47283696  0.61412283  1  0.141948  0.002718  3.734842  0.002  0.111297  0.00321  4.000977  0.002  0.119904  0.002582  4.015676  0.002  0.045458  0.105472  0.004455  3.991315  0.003
C  C40  1  0.67005426  0.02832696  0.88589797  1  0.143928  0.002665  3.732029  0.002  0.112805  0.003142  3.998033  0.002  0.121411  0.002543  4.012775  0.002  0.046538  0.106709  0.004368  3.988228  0.003
C  C41  1  0.41654639  0.52717815  0.38588267  1  0.141966  0.002702  3.735036  0.002  0.111243  0.003212  4.001205  0.002  0.119851  0.002579  4.015903  0.002  0.045454  0.105412  0.004456  3.99155  0.003
C  C42  1  0.61152082  0.92531350  0.23365226  1  0.19274  0.002287  3.749079  0.002  0.184908  0.002629  4.019755  0.002  0.196297  0.002207  4.037925  0.002  0.123864  0.177677  0.003433  4.006856  0.003
C  C43  1  0.22894561  0.42590312  0.73355291  1  0.192646  0.00229  3.751015  0.002  0.186138  0.002605  4.020911  0.002  0.197423  0.002199  4.039066  0.002  0.124687  0.178722  0.003376  4.008144  0.003
C  C44  1  0.38849993  0.07468322  0.76633886  1  0.192844  0.002293  3.748962  0.002  0.184966  0.00263  4.019645  0.002  0.196363  0.002208  4.037815  0.002  0.123857  0.177738  0.003434  4.006739  0.003
C  C45  1  0.77105059  0.57409752  0.26645336  1  0.19263  0.002291  3.751056  0.002  0.186058  0.002606  4.020934  0.002  0.197341  0.002196  4.039095  0.002  0.124625  0.178642  0.003375  4.008163  0.003
S  S46  1  0.90526702  0.82688130  0.28823530  1  0.038367  -0.00019  2.575749  0.0  0.026847  0.000729  2.960986  0.001  0.025785  1.9e-05  2.959917  0.0  0.054556  0.026725  0.001634  2.961293  0.001
S  S47  1  0.97938903  0.32706359  0.78800684  1  0.036959  -0.000179  2.576878  0.0  0.025288  0.000747  2.96145  0.001  0.024416  2.6e-05  2.960294  0.0  0.053468  0.025987  0.001617  2.961753  0.001
S  S48  1  0.09475148  0.17311545  0.71176288  1  0.038324  -0.00019  2.575638  0.0  0.026824  0.00073  2.960921  0.001  0.025767  1.9e-05  2.959833  0.0  0.054527  0.026702  0.001635  2.961216  0.001
S  S49  1  0.02062847  0.67293124  0.21199353  1  0.036903  -0.000183  2.576852  0.0  0.025301  0.000748  2.961383  0.001  0.024428  2.5e-05  2.960227  0.0  0.053497  0.026001  0.001618  2.961689  0.001
N  N50  1  0.54515029  0.89231031  0.15535986  1  -0.383917  -0.00112  3.191936  -0.001  -0.334312  -1.1e-05  3.453854  0.0  -0.350043  -0.000606  3.470109  0.0  -0.31938  -0.323115  0.000421  3.442217  0.0
N  N51  1  0.40636506  0.39326983  0.65519909  1  -0.384485  -0.001125  3.193907  -0.001  -0.335135  3.1e-05  3.45526  0.0  -0.350829  -0.000593  3.471497  0.0  -0.319533  -0.324449  0.000446  3.44427  0.0
N  N52  1  0.45488140  0.10767773  0.84463362  1  -0.384059  -0.001146  3.192212  -0.001  -0.334441  -1.1e-05  3.454097  0.0  -0.350172  -0.000607  3.470343  0.0  -0.31941  -0.323247  0.000421  3.442462  0.0
N  N53  1  0.59360819  0.60674235  0.34479768  1  -0.384445  -0.001132  3.193958  -0.001  -0.335084  2.9e-05  3.455343  0.0  -0.350782  -0.000591  3.471585  0.0  -0.319515  -0.324401  0.000445  3.444359  0.0
O  O54  1  0.30585631  0.12059096  0.42532160  1  -0.668516  0.024523  2.032233  0.012  -0.595943  0.031766  2.281814  0.016  -0.625158  0.028221  2.266709  0.013  -0.301839  -0.574504  0.035178  2.292104  0.019
O  O55  1  0.14677513  0.62086066  0.92550539  1  -0.667182  0.024265  2.03163  0.012  -0.594507  0.03147  2.280805  0.016  -0.623702  0.027991  2.265684  0.013  -0.301376  -0.573213  0.034838  2.29104  0.018
O  O56  1  0.69415320  0.87940962  0.57467025  1  -0.668419  0.024511  2.032272  0.012  -0.595885  0.031765  2.281907  0.016  -0.625077  0.02822  2.266731  0.013  -0.301669  -0.574424  0.035175  2.292201  0.019
O  O57  1  0.85321191  0.37913422  0.07450717  1  -0.667312  0.024274  2.031653  0.012  -0.594543  0.031474  2.280899  0.016  -0.623729  0.027996  2.265745  0.013  -0.301475  -0.573253  0.034843  2.291161  0.018
O  O58  1  0.77811522  0.02627807  0.38317064  1  -0.636829  0.035025  2.12633  0.021  -0.559024  0.041517  2.394434  0.024  -0.591983  0.037026  2.384546  0.02  -0.289135  -0.5347  0.046204  2.400711  0.029
O  O59  1  0.81126404  0.52652489  0.88302007  1  -0.636949  0.03508  2.130489  0.021  -0.559217  0.041588  2.399262  0.024  -0.592374  0.037111  2.389289  0.02  -0.28908  -0.535028  0.046333  2.405666  0.028
O  O60  1  0.22187371  0.97371866  0.61682259  1  -0.636717  0.035018  2.125812  0.021  -0.558933  0.041514  2.393969  0.024  -0.591904  0.037022  2.384076  0.02  -0.289039  -0.534597  0.0462  2.400253  0.029
O  O61  1  0.18871213  0.47346420  0.11699371  1  -0.636784  0.035083  2.130424  0.021  -0.559203  0.041599  2.399484  0.024  -0.592365  0.037121  2.389489  0.02  -0.289099  -0.534994  0.046344  2.405878  0.028
O  O62  1  0.66151614  0.17819590  0.53802945  1  -0.853507  0.02648  1.901626  0.015  -0.799122  0.036473  2.122508  0.022  -0.820835  0.032496  2.08732  0.019  -0.574704  -0.782398  0.040281  2.147228  0.025
O  O63  1  0.62230994  0.67772879  0.03845199  1  -0.852981  0.026615  1.903099  0.015  -0.798505  0.036593  2.124374  0.022  -0.820336  0.032609  2.089169  0.019  -0.575077  -0.781804  0.040472  2.149052  0.026
O  O64  1  0.33848730  0.82180758  0.46196269  1  -0.85341  0.026462  1.901784  0.015  -0.79901  0.036465  2.122692  0.022  -0.820729  0.032489  2.087514  0.019  -0.574662  -0.782282  0.040271  2.147406  0.025
O  O65  1  0.37768891  0.32226511  0.96155759  1  -0.85285  0.026609  1.903262  0.015  -0.798351  0.03658  2.124344  0.022  -0.820182  0.032598  2.089143  0.019  -0.575031  -0.781652  0.040459  2.149019  0.026
