# generated using pymatgen
data_DyH8(C3O5)2
_symmetry_space_group_name_H-M   'P 1'
_cell_length_a   10.42487034
_cell_length_b   10.75324032
_cell_length_c   10.75324276
_cell_angle_alpha   70.63730714
_cell_angle_beta   61.00501017
_cell_angle_gamma   61.00503461
_symmetry_Int_Tables_number   1
_chemical_formula_structural   DyH8(C3O5)2
_chemical_formula_sum   'Dy4 H32 C24 O40'
_cell_volume   914.83235887
_cell_formula_units_Z   4
loop_
 _symmetry_equiv_pos_site_id
 _symmetry_equiv_pos_as_xyz
  1  'x, y, z'
loop_
 _atom_site_type_symbol
 _atom_site_label
 _atom_site_symmetry_multiplicity
 _atom_site_fract_x
 _atom_site_fract_y
 _atom_site_fract_z
 _atom_site_occupancy
 _atom_site_hle17_bader_spin_density
 _atom_site_hle17_ddec_charge
 _atom_site_hle17_ddec_spin_density
 _atom_site_hle17_ddec_sum_bond_order
 _atom_site_hle17_magmom
 _atom_site_hse06_10hf_bader_spin_density
 _atom_site_hse06_10hf_ddec_charge
 _atom_site_hse06_10hf_ddec_spin_density
 _atom_site_hse06_10hf_ddec_sum_bond_order
 _atom_site_hse06_10hf_magmom
 _atom_site_hse06_bader_spin_density
 _atom_site_hse06_ddec_charge
 _atom_site_hse06_ddec_spin_density
 _atom_site_hse06_ddec_sum_bond_order
 _atom_site_hse06_magmom
 _atom_site_pbe_bader_spin_density
 _atom_site_pbe_cm5_charge
 _atom_site_pbe_ddec_charge
 _atom_site_pbe_ddec_spin_density
 _atom_site_pbe_ddec_sum_bond_order
 _atom_site_pbe_magmom
Dy  Dy0  1  0.85173567  0.12009874  0.38155519  1  0  2.24513  0  1.684337  0  0  2.087409  0  2.175515  0  0  2.216131  0  1.977485  0  0  1.538333  2.055251  0  2.2039  0
Dy  Dy1  1  0.35338974  0.87990121  0.61844382  1  0  2.245112  0  1.684366  0  0  2.087373  0  2.175559  0  0  2.216103  0  1.977521  0  0  1.538342  2.055212  0  2.203948  0
Dy  Dy2  1  0.35173608  0.38155521  0.12009844  1  0  2.24511  0  1.684382  0  0  2.087361  0  2.175603  0  0  2.216104  0  1.977535  0  0  1.538322  2.055203  0  2.203988  0
Dy  Dy3  1  0.85338886  0.61844461  0.87990165  1  0  2.245102  0  1.684384  0  0  2.087351  0  2.175593  0  0  2.21609  0  1.977537  0  0  1.538327  2.05519  0  2.203981  0
H  H4  1  0.79383913  0.76541472  0.11516609  1  0  0.403111  0  0.874517  0  0  0.373024  0  0.952873  0  0  0.38443  0  0.940578  0  0  0.309556  0.364968  0  0.962156  0
H  H5  1  0.67441994  0.23458561  0.88483399  1  0  0.403094  0  0.874608  0  0  0.37301  0  0.952959  0  0  0.384417  0  0.940666  0  0  0.309551  0.364955  0  0.962239  0
H  H6  1  0.29383949  0.11516543  0.76541362  1  0  0.403109  0  0.874544  0  0  0.373026  0  0.952893  0  0  0.384433  0  0.940597  0  0  0.309561  0.364971  0  0.962177  0
H  H7  1  0.17441909  0.88483371  0.23458541  1  0  0.403093  0  0.874599  0  0  0.373016  0  0.952943  0  0  0.384423  0  0.940649  0  0  0.309546  0.36496  0  0.962228  0
H  H8  1  0.08178190  0.31473702  0.16961862  1  0  0.398806  0  0.883438  0  0  0.371534  0  0.956419  0  0  0.382959  0  0.944498  0  0  0.314023  0.36335  0  0.965827  0
H  H9  1  0.56613591  0.68526438  0.83038147  1  0  0.398819  0  0.883455  0  0  0.371546  0  0.956431  0  0  0.382971  0  0.944514  0  0  0.31403  0.363363  0  0.965837  0
H  H10  1  0.58178220  0.16961850  0.31473621  1  0  0.398806  0  0.883444  0  0  0.371536  0  0.956419  0  0  0.38296  0  0.944501  0  0  0.314018  0.363352  0  0.965828  0
H  H11  1  0.06613643  0.83038158  0.68526281  1  0  0.398784  0  0.883514  0  0  0.371536  0  0.956451  0  0  0.382961  0  0.944535  0  0  0.314037  0.363353  0  0.965857  0
H  H12  1  0.82759832  0.00274195  0.17024330  1  0  0.405119  0  0.866944  0  0  0.375344  0  0.943606  0  0  0.387324  0  0.930911  0  0  0.311523  0.366706  0  0.953153  0
H  H13  1  0.00058310  0.99725831  0.82975679  1  0  0.405136  0  0.86693  0  0  0.375366  0  0.943581  0  0  0.387343  0  0.930887  0  0  0.311526  0.366726  0  0.953131  0
H  H14  1  0.32759888  0.17024342  0.00274261  1  0  0.405137  0  0.866943  0  0  0.375367  0  0.943594  0  0  0.387344  0  0.930901  0  0  0.311531  0.366728  0  0.953147  0
H  H15  1  0.50058405  0.82975643  0.99725748  1  0  0.405117  0  0.866968  0  0  0.375356  0  0.943609  0  0  0.387334  0  0.930916  0  0  0.311511  0.366716  0  0.953163  0
H  H16  1  0.93899725  0.21772150  0.55310987  1  0  0.459883  0  0.833161  0  0  0.427029  0  0.89971  0  0  0.439121  0  0.882143  0  0  0.306979  0.418691  0  0.911909  0
H  H17  1  0.70982884  0.78227723  0.44689020  1  0  0.459906  0  0.833183  0  0  0.427048  0  0.899734  0  0  0.439142  0  0.882165  0  0  0.306983  0.418712  0  0.911926  0
H  H18  1  0.43899727  0.55310970  0.21772144  1  0  0.45987  0  0.833182  0  0  0.427012  0  0.899737  0  0  0.439105  0  0.882169  0  0  0.30697  0.418674  0  0.911936  0
H  H19  1  0.20982914  0.44689033  0.78227758  1  0  0.459864  0  0.833223  0  0  0.427008  0  0.899772  0  0  0.439101  0  0.882205  0  0  0.306965  0.418669  0  0.911971  0
H  H20  1  0.09777298  0.11949462  0.44607401  1  0  0.455684  0  0.829483  0  0  0.426227  0  0.889783  0  0  0.437433  0  0.873521  0  0  0.315193  0.418768  0  0.900808  0
H  H21  1  0.66334196  0.88050513  0.55392501  1  0  0.455685  0  0.829438  0  0  0.42623  0  0.889739  0  0  0.437435  0  0.873476  0  0  0.315189  0.418771  0  0.900763  0
H  H22  1  0.59777310  0.44607347  0.11949534  1  0  0.455679  0  0.829489  0  0  0.426227  0  0.889781  0  0  0.437431  0  0.873521  0  0  0.315196  0.418767  0  0.900805  0
H  H23  1  0.16334241  0.55392559  0.88050582  1  0  0.455695  0  0.829422  0  0  0.426238  0  0.889726  0  0  0.437444  0  0.873463  0  0  0.315196  0.418778  0  0.900752  0
H  H24  1  0.71114365  0.62974259  0.30952537  1  0  0.104142  0  0.921443  0  0  0.10901  0  0.983812  0  0  0.112771  0  0.97999  0  0  0.128837  0.106517  0  0.985792  0
H  H25  1  0.65041194  0.37025933  0.69047364  1  0  0.104139  0  0.921443  0  0  0.109008  0  0.983815  0  0  0.112768  0  0.979994  0  0  0.128854  0.106515  0  0.985796  0
H  H26  1  0.21114463  0.30952610  0.62974087  1  0  0.104138  0  0.92141  0  0  0.109006  0  0.983785  0  0  0.112767  0  0.979964  0  0  0.128822  0.106512  0  0.985766  0
H  H27  1  0.15041199  0.69047302  0.37025923  1  0  0.104179  0  0.921405  0  0  0.109042  0  0.983762  0  0  0.112803  0  0.97994  0  0  0.128861  0.106547  0  0.985743  0
H  H28  1  0.92770387  0.43401784  0.37013095  1  0  0.083929  0  0.914041  0  0  0.090573  0  0.978418  0  0  0.093506  0  0.975661  0  0  0.123987  0.088552  0  0.980307  0
H  H29  1  0.73185370  0.56598189  0.62986913  1  0  0.083946  0  0.914013  0  0  0.090584  0  0.978389  0  0  0.093515  0  0.975634  0  0  0.123999  0.088564  0  0.980279  0
H  H30  1  0.42770368  0.37013048  0.43401774  1  0  0.083932  0  0.914038  0  0  0.090575  0  0.978417  0  0  0.093506  0  0.975662  0  0  0.123987  0.088555  0  0.980307  0
H  H31  1  0.23185305  0.62986951  0.56598128  1  0  0.083928  0  0.914036  0  0  0.090562  0  0.978421  0  0  0.093494  0  0.975665  0  0  0.123992  0.088543  0  0.98031  0
H  H32  1  0.94552077  0.15073432  0.96310029  1  0  0.104096  0  0.884343  0  0  0.113937  0  0.938991  0  0  0.116953  0  0.93632  0  0  0.132117  0.112004  0  0.940357  0
H  H33  1  0.05935422  0.84926819  0.03689872  1  0  0.104092  0  0.884382  0  0  0.113944  0  0.939032  0  0  0.116958  0  0.936361  0  0  0.132171  0.112008  0  0.940397  0
H  H34  1  0.44552149  0.96310048  0.15073316  1  0  0.104131  0  0.884348  0  0  0.113958  0  0.938978  0  0  0.116969  0  0.936306  0  0  0.132134  0.112024  0  0.940345  0
H  H35  1  0.55935442  0.03689991  0.84926799  1  0  0.104067  0  0.884399  0  0  0.113919  0  0.939051  0  0  0.116932  0  0.936381  0  0  0.13216  0.111983  0  0.940417  0
C  C36  1  0.77554428  0.45854027  0.20605269  1  0  0.716774  0  3.821909  0  0  0.66466  0  4.123583  0  0  0.700081  0  4.117036  0  0  0.232744  0.640771  0  4.131669  0
C  C37  1  0.44013698  0.54146069  0.79394632  1  0  0.71676  0  3.821888  0  0  0.664679  0  4.123519  0  0  0.700095  0  4.116981  0  0  0.232722  0.640791  0  4.131605  0
C  C38  1  0.27554425  0.20605370  0.45853993  1  0  0.716773  0  3.82186  0  0  0.664694  0  4.12348  0  0  0.700109  0  4.116945  0  0  0.232746  0.640806  0  4.131566  0
C  C39  1  0.94013665  0.79394751  0.54146123  1  0  0.716807  0  3.821715  0  0  0.664669  0  4.123423  0  0  0.700083  0  4.116887  0  0  0.232749  0.640781  0  4.131509  0
C  C40  1  0.81529295  0.56972252  0.22219181  1  0  0.056205  0  3.624617  0  0  0.031543  0  3.872716  0  0  0.033473  0  3.878717  0  0  0.001222  0.030471  0  3.869565  0
C  C41  1  0.60720753  0.43027681  0.77780827  1  0  0.056202  0  3.624582  0  0  0.031527  0  3.872663  0  0  0.033458  0  3.878664  0  0  0.001272  0.030456  0  3.869511  0
C  C42  1  0.31529296  0.22219218  0.56972227  1  0  0.056211  0  3.624567  0  0  0.031536  0  3.872677  0  0  0.033466  0  3.878682  0  0  0.001236  0.030466  0  3.869522  0
C  C43  1  0.10720703  0.77780975  0.43027783  1  0  0.056145  0  3.624644  0  0  0.031536  0  3.87267  0  0  0.033466  0  3.878674  0  0  0.001274  0.030467  0  3.869513  0
C  C44  1  0.95969600  0.49646196  0.26330985  1  0  0.068402  0  3.612821  0  0  0.039715  0  3.866211  0  0  0.041973  0  3.873823  0  0  0.001403  0.038249  0  3.862596  0
C  C45  1  0.71946841  0.50353922  0.73669129  1  0  0.068395  0  3.612773  0  0  0.039746  0  3.86613  0  0  0.042006  0  3.873744  0  0  0.001405  0.038275  0  3.862522  0
C  C46  1  0.45969758  0.26330903  0.49646102  1  0  0.068409  0  3.612805  0  0  0.039714  0  3.866197  0  0  0.041972  0  3.87381  0  0  0.001403  0.038245  0  3.862585  0
C  C47  1  0.21946787  0.73669054  0.50353908  1  0  0.068419  0  3.61275  0  0  0.039758  0  3.866121  0  0  0.04202  0  3.873734  0  0  0.001412  0.038287  0  3.862512  0
C  C48  1  0.00394526  0.60953850  0.27187646  1  0  0.673467  0  3.847294  0  0  0.621371  0  4.155766  0  0  0.654824  0  4.149246  0  0  0.218414  0.598602  0  4.161466  0
C  C49  1  0.88535947  0.39046016  0.72812578  1  0  0.673435  0  3.847366  0  0  0.621277  0  4.155922  0  0  0.654725  0  4.149415  0  0  0.218385  0.598509  0  4.161622  0
C  C50  1  0.50394608  0.27187512  0.60953890  1  0  0.673427  0  3.847392  0  0  0.621354  0  4.155832  0  0  0.654807  0  4.149311  0  0  0.218399  0.598585  0  4.161533  0
C  C51  1  0.38536074  0.72812604  0.39045904  1  0  0.673441  0  3.847285  0  0  0.621253  0  4.155902  0  0  0.654698  0  4.149396  0  0  0.218376  0.598484  0  4.161602  0
C  C52  1  0.10008829  0.13641627  0.04594960  1  0  0.676216  0  3.805285  0  0  0.61274  0  4.121101  0  0  0.647082  0  4.114562  0  0  0.231652  0.589628  0  4.126282  0
C  C53  1  0.28245411  0.86358347  0.95405050  1  0  0.676144  0  3.805354  0  0  0.612707  0  4.121143  0  0  0.647052  0  4.114605  0  0  0.231595  0.589589  0  4.126328  0
C  C54  1  0.60008834  0.04594953  0.13641584  1  0  0.676238  0  3.805284  0  0  0.612732  0  4.121087  0  0  0.647072  0  4.11455  0  0  0.231642  0.589616  0  4.126273  0
C  C55  1  0.78245489  0.95405115  0.86358317  1  0  0.67614  0  3.805366  0  0  0.612673  0  4.121189  0  0  0.647015  0  4.114653  0  0  0.231571  0.589555  0  4.126375  0
C  C56  1  0.00491621  0.07076504  0.03462683  1  0  0.078736  0  3.566088  0  0  0.052545  0  3.821967  0  0  0.054936  0  3.828486  0  0  0.012166  0.050878  0  3.819119  0
C  C57  1  0.11030869  0.92923504  0.96537434  1  0  0.078711  0  3.566143  0  0  0.052457  0  3.822076  0  0  0.05485  0  3.828592  0  0  0.012176  0.050806  0  3.819219  0
C  C58  1  0.50491647  0.03462458  0.07076658  1  0  0.078618  0  3.566114  0  0  0.052521  0  3.821843  0  0  0.054921  0  3.828352  0  0  0.012156  0.050858  0  3.819003  0
C  C59  1  0.61030765  0.96537527  0.92923458  1  0  0.078753  0  3.566071  0  0  0.052467  0  3.822009  0  0  0.05486  0  3.828521  0  0  0.012163  0.050815  0  3.819151  0
O  O60  1  0.74950372  0.36520541  0.31200662  1  0  -0.718706  0  2.0585  0  0  -0.670827  0  2.322919  0  0  -0.708053  0  2.307578  0  0  -0.396443  -0.653546  0  2.32963  0
O  O61  1  0.42671478  0.63479345  0.68799454  1  0  -0.71866  0  2.058469  0  0  -0.670795  0  2.322884  0  0  -0.708024  0  2.307556  0  0  -0.396422  -0.653513  0  2.329593  0
O  O62  1  0.24950406  0.31200567  0.36520523  1  0  -0.718684  0  2.058482  0  0  -0.67082  0  2.322895  0  0  -0.708044  0  2.307552  0  0  -0.396443  -0.65354  0  2.329608  0
O  O63  1  0.92671479  0.68799294  0.63479378  1  0  -0.718731  0  2.05843  0  0  -0.670852  0  2.322875  0  0  -0.708079  0  2.30754  0  0  -0.396467  -0.653571  0  2.329586  0
O  O64  1  0.77435796  0.46425950  0.08588737  1  0  -0.721769  0  2.037439  0  0  -0.66584  0  2.28978  0  0  -0.702248  0  2.274215  0  0  -0.385062  -0.649273  0  2.298268  0
O  O65  1  0.32450409  0.53574087  0.91411271  1  0  -0.721788  0  2.037432  0  0  -0.665867  0  2.289761  0  0  -0.702276  0  2.274196  0  0  -0.385065  -0.649301  0  2.29825  0
O  O66  1  0.27435774  0.08588733  0.46425906  1  0  -0.721782  0  2.037414  0  0  -0.665855  0  2.289726  0  0  -0.702261  0  2.274165  0  0  -0.385059  -0.64929  0  2.298214  0
O  O67  1  0.82450292  0.91411383  0.53574209  1  0  -0.721768  0  2.037321  0  0  -0.665849  0  2.2897  0  0  -0.702253  0  2.274135  0  0  -0.385059  -0.649284  0  2.298187  0
O  O68  1  0.84365232  0.66535867  0.09172317  1  0  -0.643465  0  2.192819  0  0  -0.592397  0  2.441169  0  0  -0.618812  0  2.427111  0  0  -0.445779  -0.580846  0  2.449767  0
O  O69  1  0.60073383  0.33464094  0.90827584  1  0  -0.643439  0  2.192904  0  0  -0.592383  0  2.441268  0  0  -0.618798  0  2.427208  0  0  -0.445782  -0.580833  0  2.449864  0
O  O70  1  0.34365177  0.09172299  0.66535867  1  0  -0.643469  0  2.192824  0  0  -0.592404  0  2.441176  0  0  -0.618816  0  2.427117  0  0  -0.44579  -0.580853  0  2.449773  0
O  O71  1  0.10073261  0.90827661  0.33464143  1  0  -0.643445  0  2.192914  0  0  -0.592392  0  2.441239  0  0  -0.618806  0  2.427182  0  0  -0.445781  -0.580841  0  2.449835  0
O  O72  1  0.09641232  0.40307265  0.16161906  1  0  -0.646807  0  2.197652  0  0  -0.593631  0  2.447075  0  0  -0.620344  0  2.431926  0  0  -0.453343  -0.582405  0  2.456674  0
O  O73  1  0.66110319  0.59692744  0.83837996  1  0  -0.646854  0  2.197741  0  0  -0.593677  0  2.447139  0  0  -0.620388  0  2.43199  0  0  -0.453362  -0.582448  0  2.456738  0
O  O74  1  0.59641164  0.16161974  0.40307180  1  0  -0.646826  0  2.197668  0  0  -0.593651  0  2.447086  0  0  -0.62036  0  2.431937  0  0  -0.453354  -0.582425  0  2.456686  0
O  O75  1  0.16110340  0.83838021  0.59692830  1  0  -0.646838  0  2.197781  0  0  -0.593664  0  2.447135  0  0  -0.620375  0  2.431985  0  0  -0.453367  -0.582437  0  2.456735  0
O  O76  1  0.15114622  0.59027541  0.20989981  1  0  -0.706136  0  2.007472  0  0  -0.655277  0  2.267008  0  0  -0.691331  0  2.252924  0  0  -0.41246  -0.637417  0  2.273425  0
O  O77  1  0.95132095  0.40972440  0.79010027  1  0  -0.706153  0  2.00753  0  0  -0.655264  0  2.267074  0  0  -0.691316  0  2.252998  0  0  -0.412456  -0.637405  0  2.273492  0
O  O78  1  0.65114491  0.20990029  0.59027531  1  0  -0.706115  0  2.007563  0  0  -0.65528  0  2.267095  0  0  -0.69133  0  2.253013  0  0  -0.412443  -0.637419  0  2.273512  0
O  O79  1  0.45132075  0.79009994  0.40972477  1  0  -0.706106  0  2.007486  0  0  -0.655226  0  2.267054  0  0  -0.691274  0  2.252977  0  0  -0.412447  -0.637366  0  2.273471  0
O  O80  1  0.89454537  0.71384367  0.33820653  1  0  -0.606918  0  1.984283  0  0  -0.555085  0  2.216779  0  0  -0.578576  0  2.205941  0  0  -0.305367  -0.537729  0  2.223269  0
O  O81  1  0.94659688  0.28615708  0.66179247  1  0  -0.60687  0  1.984321  0  0  -0.555012  0  2.21684  0  0  -0.578498  0  2.206006  0  0  -0.305282  -0.537652  0  2.223329  0
O  O82  1  0.39454684  0.33820602  0.71384318  1  0  -0.606887  0  1.984281  0  0  -0.555048  0  2.216764  0  0  -0.578536  0  2.205924  0  0  -0.305363  -0.537688  0  2.223254  0
O  O83  1  0.44659608  0.66179338  0.28615691  1  0  -0.606917  0  1.984295  0  0  -0.555029  0  2.216829  0  0  -0.578515  0  2.205993  0  0  -0.305299  -0.537669  0  2.223319  0
O  O84  1  0.88861752  0.05043292  0.17384884  1  0  -0.656194  0  2.206529  0  0  -0.608034  0  2.464216  0  0  -0.634967  0  2.447479  0  0  -0.454346  -0.596682  0  2.474205  0
O  O85  1  0.11290000  0.94956776  0.82615124  1  0  -0.656196  0  2.206507  0  0  -0.608035  0  2.464228  0  0  -0.634971  0  2.447494  0  0  -0.454347  -0.596688  0  2.474217  0
O  O86  1  0.38861649  0.17384911  0.05043355  1  0  -0.656166  0  2.206527  0  0  -0.608019  0  2.464153  0  0  -0.634949  0  2.447402  0  0  -0.454332  -0.596665  0  2.474139  0
O  O87  1  0.61289905  0.82615185  0.94956761  1  0  -0.656202  0  2.206537  0  0  -0.608023  0  2.464224  0  0  -0.634962  0  2.447494  0  0  -0.454324  -0.596678  0  2.474216  0
O  O88  1  0.05158651  0.17510096  0.16652150  1  0  -0.701067  0  2.11572  0  0  -0.634559  0  2.362265  0  0  -0.670575  0  2.350902  0  0  -0.370002  -0.616195  0  2.367857  0
O  O89  1  0.39321036  0.82489837  0.83347753  1  0  -0.701031  0  2.115697  0  0  -0.63452  0  2.362221  0  0  -0.670536  0  2.350861  0  0  -0.36997  -0.616154  0  2.367817  0
O  O90  1  0.55158711  0.16652036  0.17510076  1  0  -0.701037  0  2.115706  0  0  -0.63453  0  2.362255  0  0  -0.670544  0  2.350892  0  0  -0.369985  -0.616164  0  2.367851  0
O  O91  1  0.89320862  0.83348019  0.82489824  1  0  -0.700979  0  2.115708  0  0  -0.634472  0  2.362234  0  0  -0.670488  0  2.350874  0  0  -0.369962  -0.616107  0  2.36783  0
O  O92  1  0.22014520  0.15003521  0.93750964  1  0  -0.590917  0  2.000427  0  0  -0.529679  0  2.223594  0  0  -0.554968  0  2.214145  0  0  -0.282584  -0.51133  0  2.228599  0
O  O93  1  0.30769096  0.84996491  0.06248939  1  0  -0.590823  0  2.000405  0  0  -0.529657  0  2.223637  0  0  -0.554934  0  2.214162  0  0  -0.282668  -0.511304  0  2.228643  0
O  O94  1  0.72014505  0.93750967  0.15003547  1  0  -0.59092  0  2.000409  0  0  -0.529667  0  2.223574  0  0  -0.554957  0  2.214126  0  0  -0.28258  -0.511317  0  2.228579  0
O  O95  1  0.80768985  0.06249009  0.84996460  1  0  -0.590867  0  2.000433  0  0  -0.529636  0  2.223617  0  0  -0.554921  0  2.21416  0  0  -0.282658  -0.511287  0  2.228625  0
O  O96  1  0.98111847  0.16327355  0.47235253  1  0  -0.937719  0  1.855702  0  0  -0.891312  0  2.072831  0  0  -0.923118  0  2.029794  0  0  -0.672796  -0.877965  0  2.096883  0
O  O97  1  0.61674567  0.83672654  0.52764647  1  0  -0.937744  0  1.855696  0  0  -0.891325  0  2.072831  0  0  -0.923132  0  2.029792  0  0  -0.6728  -0.877979  0  2.096884  0
O  O98  1  0.48111967  0.47235267  0.16327338  1  0  -0.937694  0  1.855715  0  0  -0.891283  0  2.072843  0  0  -0.923091  0  2.029803  0  0  -0.672782  -0.877936  0  2.096895  0
O  O99  1  0.11674469  0.52764712  0.83672564  1  0  -0.937709  0  1.855692  0  0  -0.891295  0  2.07282  0  0  -0.923102  0  2.029783  0  0  -0.672787  -0.877947  0  2.096874  0
