# generated using pymatgen
data_LiH5C5N2O5
_symmetry_space_group_name_H-M   'P 1'
_cell_length_a   4.98086422
_cell_length_b   5.26880671
_cell_length_c   6.78109326
_cell_angle_alpha   90.21819738
_cell_angle_beta   77.06183077
_cell_angle_gamma   80.42385402
_symmetry_Int_Tables_number   1
_chemical_formula_structural   LiH5C5N2O5
_chemical_formula_sum   'Li1 H5 C5 N2 O5'
_cell_volume   170.86676659
_cell_formula_units_Z   1
loop_
 _symmetry_equiv_pos_site_id
 _symmetry_equiv_pos_as_xyz
  1  'x, y, z'
loop_
 _atom_site_type_symbol
 _atom_site_label
 _atom_site_symmetry_multiplicity
 _atom_site_fract_x
 _atom_site_fract_y
 _atom_site_fract_z
 _atom_site_occupancy
 _atom_site_pbe_bader_spin_density
 _atom_site_pbe_cm5_charge
 _atom_site_pbe_ddec_charge
 _atom_site_pbe_ddec_spin_density
 _atom_site_pbe_ddec_sum_bond_order
 _atom_site_pbe_magmom
Li  Li0  1  0.97752454  0.97410780  0.22143390  1  0  0.512337  0.800268  0  0.53246  0
H  H1  1  0.66502837  0.94203687  0.68104501  1  0  0.314756  0.299647  0  0.973131  0
H  H2  1  0.47631078  0.38640635  0.33215591  1  0  0.326636  0.314616  0  0.949316  0
H  H3  1  0.00776529  0.53599920  0.93496511  1  0  0.133064  0.164678  0  0.998592  0
H  H4  1  0.75308233  0.22269974  0.96898906  1  0  0.293883  0.385433  0  0.957846  0
H  H5  1  0.53621328  0.07068574  0.09141787  1  0  0.305405  0.394378  0  0.939633  0
C  C6  1  0.05764008  0.24336305  0.57640788  1  0  0.221441  0.55655  0  4.260036  0
C  C7  1  0.22223394  0.44476032  0.62483409  1  0  0.130722  0.173704  0  3.966179  0
C  C8  1  0.17151438  0.57257843  0.80829462  1  0  -0.093144  -0.347095  0  3.896084  0
C  C9  1  0.33834022  0.76161862  0.83627574  1  0  0.250547  0.577372  0  4.098843  0
C  C10  1  0.59745502  0.67086525  0.48382044  1  0  0.364058  0.677685  0  4.121064  0
N  N11  1  0.54162476  0.80227077  0.66913378  1  0  -0.368652  -0.444021  0  3.458121  0
N  N12  1  0.42977737  0.49398602  0.46837559  1  0  -0.360216  -0.356695  0  3.557004  0
O  O13  1  0.13879132  0.14011965  0.40112261  1  0  -0.383465  -0.610267  0  2.218324  0
O  O14  1  0.85259019  0.19882570  0.71333956  1  0  -0.301507  -0.563695  0  2.26255  0
O  O15  1  0.30760194  0.88846015  0.99971578  1  0  -0.346928  -0.570839  0  2.176909  0
O  O16  1  0.78874138  0.70788091  0.34044725  1  0  -0.363297  -0.611913  0  2.164942  0
O  O17  1  0.67715728  0.17524721  0.11013237  1  0  -0.635642  -0.839807  0  2.024308  0
