# generated using pymatgen
data_HgH22C32I2(N2O)2
_symmetry_space_group_name_H-M   'P 1'
_cell_length_a   14.85755835
_cell_length_b   15.49534825
_cell_length_c   16.24216352
_cell_angle_alpha   89.99988375
_cell_angle_beta   89.99998367
_cell_angle_gamma   90.00009193
_symmetry_Int_Tables_number   1
_chemical_formula_structural   HgH22C32I2(N2O)2
_chemical_formula_sum   'Hg4 H88 C128 I8 N16 O8'
_cell_volume   3739.32027312
_cell_formula_units_Z   4
loop_
 _symmetry_equiv_pos_site_id
 _symmetry_equiv_pos_as_xyz
  1  'x, y, z'
loop_
 _atom_site_type_symbol
 _atom_site_label
 _atom_site_symmetry_multiplicity
 _atom_site_fract_x
 _atom_site_fract_y
 _atom_site_fract_z
 _atom_site_occupancy
 _atom_site_pbe_bader_charge
 _atom_site_pbe_bader_spin_density
 _atom_site_pbe_cm5_charge
 _atom_site_pbe_ddec_charge
 _atom_site_pbe_ddec_spin_density
 _atom_site_pbe_ddec_sum_bond_order
 _atom_site_pbe_magmom
Hg  Hg0  1  0.28831517  0.04637235  0.47127088  1  0.483597  0  0.370035  0.320552  0  2.767258  0
Hg  Hg1  1  0.21168280  0.95362984  0.97126928  1  0.483555  0  0.370054  0.320574  0  2.767256  0
Hg  Hg2  1  0.71168468  0.54636901  0.02873570  1  0.483577  0  0.370055  0.320536  0  2.767478  0
Hg  Hg3  1  0.78831556  0.45362973  0.52873013  1  0.483595  0  0.370032  0.320537  0  2.767278  0
H  H4  1  0.11596995  0.93716656  0.55821966  1  0.110915  0  0.11016  0.081358  0  1.000511  0
H  H5  1  0.38402613  0.06282877  0.05821935  1  0.111242  0  0.110166  0.081357  0  1.00049  0
H  H6  1  0.88403040  0.43717088  0.94178102  1  0.110661  0  0.110159  0.081349  0  1.00051  0
H  H7  1  0.61597039  0.56283150  0.44177919  1  0.111504  0  0.110155  0.081354  0  1.000512  0
H  H8  1  0.94922730  0.91090901  0.54343460  1  0.098324  0  0.115257  0.124188  0  0.989483  0
H  H9  1  0.55076755  0.08909486  0.04343433  1  0.098277  0  0.115283  0.124199  0  0.989451  0
H  H10  1  0.05077166  0.41090879  0.95656489  1  0.098436  0  0.115247  0.12418  0  0.989457  0
H  H11  1  0.44922901  0.58909020  0.45656416  1  0.098419  0  0.115241  0.124154  0  0.98947  0
H  H12  1  0.94910416  0.10334944  0.35040691  1  0.113269  0  0.114526  0.125455  0  1.036459  0
H  H13  1  0.55089867  0.89665572  0.85040547  1  0.113337  0  0.11452  0.125393  0  1.036489  0
H  H14  1  0.05090185  0.60334676  0.14959524  1  0.113159  0  0.114502  0.125422  0  1.036487  0
H  H15  1  0.44910161  0.39665095  0.64959282  1  0.113212  0  0.114509  0.125413  0  1.03653  0
H  H16  1  0.11303678  0.12050295  0.37271746  1  0.116416  0  0.09914  0.070541  0  1.056273  0
H  H17  1  0.38696525  0.87949945  0.87271104  1  0.116383  0  0.099113  0.070566  0  1.056261  0
H  H18  1  0.88696791  0.62050032  0.12729021  1  0.116396  0  0.099107  0.070552  0  1.056249  0
H  H19  1  0.61303500  0.37949563  0.62728298  1  0.116415  0  0.099131  0.070586  0  1.056304  0
H  H20  1  0.83402398  0.05665214  0.32669523  1  0.508207  0  0.301098  0.267854  0  1.027296  0
H  H21  1  0.66597684  0.94335178  0.82669552  1  0.508207  0  0.301129  0.267818  0  1.027348  0
H  H22  1  0.16597993  0.55664958  0.17330332  1  0.508227  0  0.30113  0.267836  0  1.027372  0
H  H23  1  0.33402150  0.44334679  0.67330207  1  0.508195  0  0.30113  0.267872  0  1.027283  0
H  H24  1  0.64121031  0.04773176  0.44736330  1  0.082983  0  0.102264  0.115859  0  1.010887  0
H  H25  1  0.85879182  0.95226867  0.94736106  1  0.083037  0  0.102267  0.115884  0  1.010901  0
H  H26  1  0.35879224  0.54772976  0.05263712  1  0.083027  0  0.102241  0.115835  0  1.0109  0
H  H27  1  0.14120653  0.45227009  0.55263713  1  0.082668  0  0.102258  0.115841  0  1.010918  0
H  H28  1  0.48881916  0.01139822  0.39315137  1  0.065058  0  0.088197  0.090352  0  1.042315  0
H  H29  1  0.01118287  0.98859769  0.89314914  1  0.06503  0  0.08818  0.090311  0  1.042338  0
H  H30  1  0.51118400  0.51140150  0.10684912  1  0.064971  0  0.088183  0.090361  0  1.042355  0
H  H31  1  0.98881622  0.48860030  0.60684959  1  0.06502  0  0.088173  0.090299  0  1.042311  0
H  H32  1  0.39393425  0.95082213  0.28408557  1  0.076687  0  0.086464  0.088893  0  1.062352  0
H  H33  1  0.10606647  0.04917401  0.78408267  1  0.076714  0  0.086438  0.088867  0  1.062324  0
H  H34  1  0.60606964  0.45082521  0.21591346  1  0.076582  0  0.086405  0.088783  0  1.062444  0
H  H35  1  0.89393256  0.54917636  0.71591568  1  0.076682  0  0.086447  0.088862  0  1.062361  0
H  H36  1  0.37818196  0.87363716  0.15111567  1  0.042901  0  0.090067  0.089758  0  1.023155  0
H  H37  1  0.12182083  0.12636313  0.65111324  1  0.042912  0  0.090047  0.089714  0  1.023126  0
H  H38  1  0.62181912  0.37363547  0.34888042  1  0.042925  0  0.09004  0.089729  0  1.023226  0
H  H39  1  0.87818102  0.62636259  0.84888619  1  0.042851  0  0.090046  0.089711  0  1.023183  0
H  H40  1  0.51537877  0.83385251  0.07038507  1  0.032178  0  0.09592  0.094613  0  1.001035  0
H  H41  1  0.98462145  0.16614550  0.57038309  1  0.031871  0  0.095912  0.094574  0  1.001093  0
H  H42  1  0.48462627  0.33385108  0.42961295  1  0.032005  0  0.095918  0.094605  0  1.001081  0
H  H43  1  0.01537979  0.66614604  0.92961627  1  0.031898  0  0.095923  0.094595  0  1.001042  0
H  H44  1  0.66638006  0.87585485  0.11970664  1  0.074895  0  0.093572  0.096997  0  1.02283  0
H  H45  1  0.83362083  0.12414434  0.61970662  1  0.074907  0  0.093588  0.097034  0  1.022807  0
H  H46  1  0.33362237  0.37585523  0.38029499  1  0.074982  0  0.093573  0.097018  0  1.022798  0
H  H47  1  0.16638169  0.62414199  0.88029405  1  0.074876  0  0.093564  0.096994  0  1.022823  0
H  H48  1  0.74315235  0.81828902  0.33243512  1  0.072297  0  0.100697  0.107252  0  1.004167  0
H  H49  1  0.75684982  0.18171294  0.83243501  1  0.072289  0  0.100702  0.107285  0  1.004126  0
H  H50  1  0.25684998  0.31828845  0.16756601  1  0.072251  0  0.100709  0.107302  0  1.004143  0
H  H51  1  0.24314607  0.68170794  0.66756431  1  0.072304  0  0.100727  0.107325  0  1.004057  0
H  H52  1  0.82924444  0.68682186  0.36652491  1  0.065552  0  0.07949  0.078768  0  1.077691  0
H  H53  1  0.67075569  0.31317746  0.86652580  1  0.065542  0  0.079473  0.078719  0  1.077697  0
H  H54  1  0.17075767  0.18682057  0.13347463  1  0.065526  0  0.079483  0.078756  0  1.077649  0
H  H55  1  0.32923570  0.81317911  0.63347327  1  0.065511  0  0.079486  0.07874  0  1.077633  0
H  H56  1  0.97363962  0.65400574  0.29562304  1  0.088393  0  0.094023  0.096273  0  1.017456  0
H  H57  1  0.52635852  0.34599308  0.79562575  1  0.088553  0  0.094027  0.096271  0  1.01744  0
H  H58  1  0.02636042  0.15400538  0.20437656  1  0.08839  0  0.094023  0.09627  0  1.017435  0
H  H59  1  0.47363427  0.84599351  0.70437388  1  0.088424  0  0.094033  0.09628  0  1.017415  0
H  H60  1  0.02896700  0.75083677  0.18490013  1  0.062506  0  0.099151  0.101633  0  1.018981  0
H  H61  1  0.47103375  0.24916409  0.68490107  1  0.062531  0  0.099153  0.101644  0  1.018944  0
H  H62  1  0.97103320  0.25083634  0.31509866  1  0.062538  0  0.099143  0.101638  0  1.018956  0
H  H63  1  0.52896291  0.74916373  0.81509505  1  0.062159  0  0.099161  0.101702  0  1.01889  0
H  H64  1  0.01171193  0.88137538  0.10036447  1  0.066323  0  0.090481  0.093763  0  1.036068  0
H  H65  1  0.48828885  0.11862566  0.60036381  1  0.066286  0  0.090493  0.093776  0  1.036053  0
H  H66  1  0.98828848  0.38137350  0.39963530  1  0.066328  0  0.090477  0.093775  0  1.036068  0
H  H67  1  0.51171097  0.61862639  0.89963379  1  0.066314  0  0.090455  0.093731  0  1.036145  0
H  H68  1  0.93009630  0.01776533  0.07013769  1  0.080946  0  0.104595  0.116476  0  0.997125  0
H  H69  1  0.56990325  0.98223526  0.57014162  1  0.080322  0  0.104554  0.116392  0  0.997167  0
H  H70  1  0.06990216  0.51776466  0.42986033  1  0.080386  0  0.104592  0.116439  0  0.997116  0
H  H71  1  0.43009784  0.48223504  0.92986082  1  0.08101  0  0.104583  0.116459  0  0.99711  0
H  H72  1  0.75100367  0.07834077  0.08368265  1  0.528536  0  0.305721  0.286519  0  1.013851  0
H  H73  1  0.74899521  0.92165914  0.58368234  1  0.528546  0  0.305735  0.286588  0  1.013778  0
H  H74  1  0.24899220  0.57834235  0.41631956  1  0.52853  0  0.305721  0.286525  0  1.013821  0
H  H75  1  0.25100511  0.42165867  0.91631837  1  0.528527  0  0.305724  0.286545  0  1.013834  0
H  H76  1  0.82996296  0.30025112  0.25324727  1  0.146448  0  0.108001  0.115146  0  1.028617  0
H  H77  1  0.67003721  0.69974843  0.75324741  1  0.146476  0  0.107998  0.11512  0  1.0286  0
H  H78  1  0.17004068  0.80025229  0.24675328  1  0.146311  0  0.107984  0.11513  0  1.02862  0
H  H79  1  0.32996140  0.19974844  0.74675558  1  0.146533  0  0.108003  0.115147  0  1.028617  0
H  H80  1  0.78819243  0.44510301  0.19598013  1  0.092351  0  0.098206  0.076993  0  1.035559  0
H  H81  1  0.71180775  0.55489602  0.69597870  1  0.092401  0  0.09823  0.077005  0  1.035537  0
H  H82  1  0.21180876  0.94510348  0.30402198  1  0.092893  0  0.098215  0.076975  0  1.035544  0
H  H83  1  0.28819263  0.05489584  0.80402395  1  0.092917  0  0.098218  0.076993  0  1.035502  0
H  H84  1  0.66402242  0.33443273  0.99402911  1  0.093684  0  0.105582  0.073842  0  1.032236  0
H  H85  1  0.83597633  0.66556761  0.49402703  1  0.093633  0  0.105544  0.073811  0  1.032254  0
H  H86  1  0.33597911  0.83443273  0.50597177  1  0.093626  0  0.105573  0.073864  0  1.032203  0
H  H87  1  0.16401969  0.16556852  0.00597316  1  0.093347  0  0.1056  0.073917  0  1.032137  0
H  H88  1  0.70217744  0.18630996  0.03961329  1  0.130186  0  0.111642  0.12528  0  1.053895  0
H  H89  1  0.79782213  0.81368876  0.53961380  1  0.130184  0  0.111611  0.125214  0  1.053974  0
H  H90  1  0.29782467  0.68630958  0.46038747  1  0.130176  0  0.111613  0.125238  0  1.053875  0
H  H91  1  0.20217532  0.31369005  0.96038589  1  0.130175  0  0.111598  0.12522  0  1.05395  0
C  C92  1  0.07584967  0.97167629  0.51245664  1  0.476732  0  0.049305  0.092742  0  3.949768  0
C  C93  1  0.42414643  0.02832430  0.01245392  1  0.476358  0  0.049232  0.092725  0  3.949723  0
C  C94  1  0.92415007  0.47167735  0.98754582  1  0.477039  0  0.049263  0.092746  0  3.949808  0
C  C95  1  0.57584936  0.52832300  0.48754345  1  0.476155  0  0.049266  0.092733  0  3.949832  0
C  C96  1  0.98381648  0.95731010  0.50430245  1  -0.015053  0  -0.069972  -0.128164  0  3.928846  0
C  C97  1  0.51617973  0.04269256  0.00429920  1  -0.015403  0  -0.069926  -0.128137  0  3.928844  0
C  C98  1  0.01618121  0.45730781  0.99569942  1  -0.015609  0  -0.069909  -0.128055  0  3.928777  0
C  C99  1  0.48381675  0.54269110  0.49569754  1  -0.015667  0  -0.069941  -0.128111  0  3.928876  0
C  C100  1  0.93547868  0.00408599  0.44538020  1  0.02839  0  0.00907  0.019891  0  3.956436  0
C  C101  1  0.56451941  0.99592026  0.94537671  1  0.02902  0  0.009044  0.019893  0  3.956444  0
C  C102  1  0.06452178  0.50408289  0.05462215  1  0.02887  0  0.008958  0.019706  0  3.956355  0
C  C103  1  0.43547901  0.49591374  0.55461893  1  0.028879  0  0.009059  0.019887  0  3.956413  0
C  C104  1  0.98208330  0.06435900  0.39730834  1  -0.038399  0  -0.076469  -0.149684  0  3.916793  0
C  C105  1  0.51791683  0.93564541  0.89730683  1  -0.038645  0  -0.076487  -0.14961  0  3.916776  0
C  C106  1  0.01791793  0.56435702  0.10269574  1  -0.038413  0  -0.076464  -0.149608  0  3.916675  0
C  C107  1  0.48208217  0.43564080  0.60269139  1  -0.038363  0  -0.076469  -0.1497  0  3.916905  0
C  C108  1  0.07413398  0.07471043  0.40951186  1  0.431682  0  0.042279  0.088441  0  3.949999  0
C  C109  1  0.42586670  0.92529060  0.90950658  1  0.431756  0  0.042381  0.088455  0  3.949947  0
C  C110  1  0.92586727  0.57470858  0.09049466  1  0.431857  0  0.042362  0.088493  0  3.949967  0
C  C111  1  0.57413296  0.42528939  0.59048858  1  0.431687  0  0.042314  0.088467  0  3.949989  0
C  C112  1  0.83695725  0.98563728  0.43518357  1  1.433802  0  0.250094  0.485566  0  4.112874  0
C  C113  1  0.66304151  0.01436641  0.93518073  1  1.433477  0  0.250112  0.485622  0  4.112765  0
C  C114  1  0.16304670  0.48563613  0.06482092  1  1.433717  0  0.250231  0.485606  0  4.112702  0
C  C115  1  0.33695544  0.51436370  0.56481338  1  1.43404  0  0.250089  0.48553  0  4.112803  0
C  C116  1  0.71012823  0.99853728  0.33995981  1  0.335019  0  0.088725  0.186267  0  4.012861  0
C  C117  1  0.78987124  0.00146338  0.83996066  1  0.33498  0  0.088665  0.186235  0  4.012945  0
C  C118  1  0.28987305  0.49853548  0.16003974  1  0.335063  0  0.088712  0.186333  0  4.012971  0
C  C119  1  0.21012771  0.50146092  0.66003840  1  0.33489  0  0.088678  0.18623  0  4.012979  0
C  C120  1  0.63298283  0.01667218  0.38773212  1  -0.04077  0  -0.095418  -0.161669  0  4.008467  0
C  C121  1  0.86701663  0.98332774  0.88772981  1  -0.04074  0  -0.095466  -0.161895  0  4.008614  0
C  C122  1  0.36701563  0.51667071  0.11227083  1  -0.04046  0  -0.095453  -0.161843  0  4.008542  0
C  C123  1  0.13298111  0.48332709  0.61226955  1  -0.040341  0  -0.095472  -0.161836  0  4.008668  0
C  C124  1  0.54914013  0.99612545  0.35766868  1  -0.043349  0  -0.092375  -0.117775  0  4.00337  0
C  C125  1  0.95086135  0.00387453  0.85766763  1  -0.043273  0  -0.092323  -0.117598  0  4.003078  0
C  C126  1  0.45086384  0.49612715  0.14233087  1  -0.043342  0  -0.092388  -0.117769  0  4.003169  0
C  C127  1  0.04913894  0.50387316  0.64233204  1  -0.043331  0  -0.092336  -0.11764  0  4.003222  0
C  C128  1  0.53910683  0.95584569  0.27970558  1  -0.029076  0  -0.009575  0.077339  0  3.996098  0
C  C129  1  0.96089468  0.04415252  0.77970076  1  -0.028991  0  -0.009557  0.077458  0  3.995972  0
C  C130  1  0.46089707  0.45584919  0.22029712  1  -0.028865  0  -0.009477  0.077494  0  3.995904  0
C  C131  1  0.03910636  0.54415160  0.72029760  1  -0.028932  0  -0.009573  0.077425  0  3.995858  0
C  C132  1  0.45320441  0.93320531  0.24834773  1  -0.084455  0  -0.096312  -0.130918  0  3.983956  0
C  C133  1  0.04679632  0.06679477  0.74834605  1  -0.084358  0  -0.096344  -0.130989  0  3.984061  0
C  C134  1  0.54679945  0.43320888  0.25165010  1  -0.08436  0  -0.09623  -0.13071  0  3.984085  0
C  C135  1  0.95320206  0.56679326  0.75165350  1  -0.084296  0  -0.096338  -0.130955  0  3.983949  0
C  C136  1  0.44482145  0.89027186  0.17437486  1  0.05557  0  -0.099537  -0.085299  0  4.032758  0
C  C137  1  0.05518267  0.10972581  0.67437433  1  0.055617  0  -0.099437  -0.085205  0  4.032685  0
C  C138  1  0.55518571  0.39027592  0.32561996  1  0.055581  0  -0.099544  -0.08543  0  4.033  0
C  C139  1  0.94481847  0.60972477  0.82562575  1  0.055629  0  -0.099433  -0.085179  0  4.032635  0
C  C140  1  0.52240350  0.86884295  0.12829111  1  -0.056806  0  -0.097527  -0.079078  0  4.036933  0
C  C141  1  0.97759604  0.13115945  0.62829166  1  -0.056772  0  -0.097487  -0.078946  0  4.036824  0
C  C142  1  0.47760632  0.36883841  0.37170560  1  -0.05664  0  -0.097444  -0.078872  0  4.036722  0
C  C143  1  0.02240380  0.63115625  0.87170838  1  -0.056771  0  -0.097514  -0.078983  0  4.036734  0
C  C144  1  0.60684000  0.89235972  0.15561872  1  -0.052206  0  -0.098464  -0.132128  0  3.990115  0
C  C145  1  0.89315953  0.10763875  0.65561934  1  -0.052215  0  -0.098493  -0.132217  0  3.990201  0
C  C146  1  0.39316716  0.39236092  0.34438041  1  -0.052474  0  -0.098586  -0.13235  0  3.990114  0
C  C147  1  0.10684229  0.60763832  0.84438013  1  -0.052507  0  -0.098505  -0.132215  0  3.99021  0
C  C148  1  0.61776107  0.93664456  0.23155683  1  0.00421  0  -0.006225  0.041229  0  3.962248  0
C  C149  1  0.88223978  0.06335440  0.73155569  1  0.004133  0  -0.006275  0.041124  0  3.962354  0
C  C150  1  0.38223944  0.43664460  0.26844591  1  0.004159  0  -0.006225  0.041216  0  3.962213  0
C  C151  1  0.11776398  0.56335544  0.76844263  1  0.004446  0  -0.006213  0.041155  0  3.962397  0
C  C152  1  0.70410367  0.96011292  0.26288021  1  -0.002952  0  -0.005752  -0.052137  0  3.95888  0
C  C153  1  0.79589583  0.03988984  0.76288222  1  -0.002662  0  -0.005726  -0.052067  0  3.958814  0
C  C154  1  0.29589553  0.46010903  0.23711756  1  -0.002809  0  -0.005728  -0.052086  0  3.958797  0
C  C155  1  0.20410453  0.53988914  0.73711615  1  -0.002637  0  -0.00573  -0.052048  0  3.958841  0
C  C156  1  0.78827361  0.93849042  0.21739367  1  -0.001207  0  -0.001547  -0.042671  0  3.956232  0
C  C157  1  0.71172590  0.06151180  0.71739504  1  -0.001621  0  -0.001568  -0.042802  0  3.956173  0
C  C158  1  0.21172690  0.43848952  0.28260599  1  -0.001549  0  -0.001586  -0.042789  0  3.956321  0
C  C159  1  0.28827382  0.56150791  0.78260267  1  -0.00167  0  -0.001589  -0.042816  0  3.956133  0
C  C160  1  0.83577933  0.86085165  0.23736953  1  -0.000274  0  -0.005178  0.039804  0  3.95337  0
C  C161  1  0.66422017  0.13914988  0.73737076  1  -0.000334  0  -0.005182  0.039857  0  3.953316  0
C  C162  1  0.16422240  0.36085202  0.26262905  1  -0.000268  0  -0.005191  0.039812  0  3.953288  0
C  C163  1  0.33577968  0.63914481  0.76262680  1  -0.000149  0  -0.005202  0.039936  0  3.953085  0
C  C164  1  0.80560809  0.80395384  0.30002011  1  -0.002685  0  -0.095684  -0.120088  0  3.970394  0
C  C165  1  0.69439206  0.19604820  0.80002060  1  -0.002519  0  -0.095625  -0.120078  0  3.970252  0
C  C166  1  0.19439286  0.30395245  0.19998043  1  -0.00271  0  -0.095677  -0.120119  0  3.970365  0
C  C167  1  0.30560385  0.69604451  0.69997808  1  -0.002895  0  -0.095737  -0.120254  0  3.970089  0
C  C168  1  0.85438859  0.73121138  0.31995163  1  -0.07288  0  -0.103377  -0.081242  0  4.03268  0
C  C169  1  0.64561089  0.26878933  0.81995323  1  -0.072888  0  -0.103376  -0.081165  0  4.032544  0
C  C170  1  0.14561225  0.23120931  0.18004966  1  -0.072937  0  -0.10339  -0.081288  0  4.032668  0
C  C171  1  0.35438447  0.76878769  0.68004778  1  -0.072804  0  -0.103288  -0.081086  0  4.032569  0
C  C172  1  0.93555468  0.71154365  0.27870221  1  -0.111214  0  -0.098237  -0.082009  0  4.022987  0
C  C173  1  0.56444414  0.28845585  0.77870379  1  -0.111337  0  -0.098255  -0.082018  0  4.023007  0
C  C174  1  0.06444545  0.21154330  0.22129789  1  -0.111125  0  -0.098219  -0.081904  0  4.023002  0
C  C175  1  0.43554990  0.78845749  0.72129718  1  -0.111197  0  -0.098309  -0.082055  0  4.023326  0
C  C176  1  0.96610551  0.76504302  0.21687542  1  -0.07316  0  -0.092599  -0.134103  0  3.977826  0
C  C177  1  0.53389534  0.23495662  0.71687711  1  -0.073218  0  -0.092596  -0.134122  0  3.977868  0
C  C178  1  0.03389673  0.26504185  0.28312335  1  -0.073141  0  -0.092582  -0.134162  0  3.977887  0
C  C179  1  0.46610197  0.73495752  0.78311965  1  -0.072693  0  -0.092575  -0.13418  0  3.977951  0
C  C180  1  0.91747376  0.84022428  0.19446885  1  0.027865  0  -0.009825  0.075102  0  4.00621  0
C  C181  1  0.58252642  0.15977605  0.69446883  1  0.027863  0  -0.009831  0.075096  0  4.006165  0
C  C182  1  0.08252860  0.34022378  0.30552915  1  0.027825  0  -0.009836  0.075116  0  4.006072  0
C  C183  1  0.41747144  0.65977618  0.80552623  1  0.02777  0  -0.00986  0.075001  0  4.006076  0
C  C184  1  0.94921726  0.89674649  0.13233175  1  -0.028865  0  -0.092312  -0.116727  0  4.014429  0
C  C185  1  0.55078093  0.10325397  0.63233185  1  -0.028856  0  -0.092333  -0.116763  0  4.01454  0
C  C186  1  0.05078318  0.39674646  0.36766738  1  -0.028807  0  -0.092287  -0.116704  0  4.014351  0
C  C187  1  0.44921886  0.60325466  0.86766517  1  -0.028859  0  -0.092237  -0.116567  0  4.014355  0
C  C188  1  0.90411032  0.97206972  0.11526437  1  -0.057872  0  -0.097368  -0.170236  0  4.020141  0
C  C189  1  0.59588990  0.02793464  0.61526461  1  -0.05723  0  -0.097331  -0.170146  0  4.020303  0
C  C190  1  0.09589092  0.47206908  0.38473276  1  -0.057241  0  -0.097408  -0.170275  0  4.020335  0
C  C191  1  0.40410910  0.52793265  0.88473379  1  -0.05776  0  -0.097374  -0.170316  0  4.020275  0
C  C192  1  0.82415776  0.99315336  0.15831774  1  0.336648  0  0.085468  0.17705  0  4.007799  0
C  C193  1  0.67584110  0.00684833  0.65831861  1  0.336795  0  0.085464  0.177053  0  4.007742  0
C  C194  1  0.17584284  0.49315294  0.34168181  1  0.336711  0  0.085517  0.177122  0  4.007985  0
C  C195  1  0.32415853  0.50684631  0.84168106  1  0.336742  0  0.085494  0.177132  0  4.007772  0
C  C196  1  0.80166142  0.14552216  0.18479226  1  1.417913  0  0.249489  0.482383  0  4.098066  0
C  C197  1  0.69833944  0.85447883  0.68479394  1  1.417907  0  0.249506  0.482429  0  4.097924  0
C  C198  1  0.19834331  0.64552193  0.31520613  1  1.418  0  0.249503  0.482379  0  4.098111  0
C  C199  1  0.30165942  0.35447801  0.81520813  1  1.417892  0  0.249541  0.482462  0  4.098007  0
C  C200  1  0.77029026  0.23101105  0.15141300  1  -0.061196  0  0.008684  0.024569  0  3.936396  0
C  C201  1  0.72970994  0.76898936  0.65141115  1  -0.060888  0  0.008663  0.024581  0  3.936222  0
C  C202  1  0.22971259  0.73101274  0.34858829  1  -0.061297  0  0.008682  0.024574  0  3.936339  0
C  C203  1  0.27028811  0.26898842  0.84858986  1  -0.061235  0  0.008641  0.024578  0  3.936195  0
C  C204  1  0.79343342  0.30547789  0.19539168  1  0.044783  0  -0.072355  -0.129864  0  3.920555  0
C  C205  1  0.70656542  0.69452179  0.69538997  1  0.044621  0  -0.072317  -0.129794  0  3.920521  0
C  C206  1  0.20656889  0.80547899  0.30460886  1  0.045208  0  -0.072325  -0.12983  0  3.920593  0
C  C207  1  0.29343385  0.19452162  0.80461241  1  0.044991  0  -0.072373  -0.129861  0  3.920537  0
C  C208  1  0.77020828  0.38581685  0.16355409  1  0.455466  0  0.042947  0.09081  0  3.948869  0
C  C209  1  0.72979125  0.61418354  0.66355315  1  0.45585  0  0.042917  0.090763  0  3.94893  0
C  C210  1  0.22979484  0.88581792  0.33644690  1  0.454858  0  0.042974  0.09086  0  3.948917  0
C  C211  1  0.27020721  0.11418262  0.83644877  1  0.454858  0  0.042947  0.090737  0  3.948849  0
C  C212  1  0.70090816  0.32390802  0.05125693  1  0.480409  0  0.042553  0.08935  0  3.96227  0
C  C213  1  0.79909409  0.67608939  0.55125708  1  0.480447  0  0.042629  0.089336  0  3.962277  0
C  C214  1  0.29909283  0.82390960  0.44874480  1  0.480374  0  0.042533  0.089275  0  3.962226  0
C  C215  1  0.20090649  0.17608877  0.94874656  1  0.480697  0  0.042533  0.089164  0  3.9622  0
C  C216  1  0.72230730  0.24089212  0.07770915  1  -0.080654  0  -0.078677  -0.148801  0  3.912716  0
C  C217  1  0.77769427  0.75910716  0.57770853  1  -0.080666  0  -0.078674  -0.148741  0  3.9127  0
C  C218  1  0.27769288  0.74089502  0.42229274  1  -0.080657  0  -0.078619  -0.148728  0  3.912587  0
C  C219  1  0.22230376  0.25910663  0.92229249  1  -0.080653  0  -0.078559  -0.148617  0  3.912495  0
I  I220  1  0.31424467  0.00236996  0.62909349  1  -0.319665  0  -0.154682  -0.28899  0  1.504825  0
I  I221  1  0.18575745  0.99762779  0.12909142  1  -0.319663  0  -0.154691  -0.288999  0  1.504827  0
I  I222  1  0.68576033  0.50237166  0.87091850  1  -0.319645  0  -0.154688  -0.288985  0  1.504988  0
I  I223  1  0.81424384  0.49762893  0.37090690  1  -0.319689  0  -0.154681  -0.288973  0  1.504821  0
I  I224  1  0.31683544  0.14835989  0.34192594  1  -0.285773  0  -0.170218  -0.271644  0  1.423571  0
I  I225  1  0.18315315  0.85164774  0.84192270  1  -0.285728  0  -0.170229  -0.27166  0  1.423529  0
I  I226  1  0.68315314  0.64835300  0.15807983  1  -0.285794  0  -0.170215  -0.271625  0  1.423506  0
I  I227  1  0.81683696  0.35164805  0.65807876  1  -0.28575  0  -0.170196  -0.271628  0  1.423568  0
N  N228  1  0.12010380  0.02916125  0.46575072  1  -1.203325  0  -0.311026  -0.193311  0  3.488446  0
N  N229  1  0.37989350  0.97083902  0.96574597  1  -1.203413  0  -0.311047  -0.193389  0  3.488423  0
N  N230  1  0.87989737  0.52916138  0.03425528  1  -1.20351  0  -0.311022  -0.193387  0  3.488529  0
N  N231  1  0.62010354  0.47083863  0.53424972  1  -1.203315  0  -0.311028  -0.193381  0  3.48844  0
N  N232  1  0.79746141  0.02086649  0.36848589  1  -1.272902  0  -0.39752  -0.378361  0  3.612449  0
N  N233  1  0.70253805  0.97913605  0.86848732  1  -1.27292  0  -0.397493  -0.378267  0  3.61249  0
N  N234  1  0.20254312  0.52086343  0.13151582  1  -1.273195  0  -0.397587  -0.378334  0  3.612643  0
N  N235  1  0.29746102  0.47913174  0.63151266  1  -1.272879  0  -0.397511  -0.378307  0  3.612342  0
N  N236  1  0.78314756  0.07443570  0.13971890  1  -1.274913  0  -0.399497  -0.393331  0  3.580882  0
N  N237  1  0.71685062  0.92556539  0.63971982  1  -1.274986  0  -0.399497  -0.393397  0  3.580857  0
N  N238  1  0.21685099  0.57443541  0.36028147  1  -1.275151  0  -0.399471  -0.393291  0  3.580936  0
N  N239  1  0.28314903  0.42556444  0.86028211  1  -1.275017  0  -0.399505  -0.393416  0  3.580992  0
N  N240  1  0.72489062  0.39517454  0.09260172  1  -1.207651  0  -0.311732  -0.203822  0  3.481587  0
N  N241  1  0.77510758  0.60482535  0.59260079  1  -1.208261  0  -0.31175  -0.203795  0  3.481678  0
N  N242  1  0.27511049  0.89517424  0.40739926  1  -1.207752  0  -0.311789  -0.203878  0  3.481623  0
N  N243  1  0.22489019  0.10482551  0.90740115  1  -1.207876  0  -0.311775  -0.20376  0  3.481558  0
O  O244  1  0.79622036  0.93758664  0.48447201  1  -1.187537  0  -0.299534  -0.515194  0  2.230603  0
O  O245  1  0.70377704  0.06241629  0.98447399  1  -1.187187  0  -0.299556  -0.515247  0  2.230456  0
O  O246  1  0.20378015  0.43758437  0.01552642  1  -1.187297  0  -0.299556  -0.515177  0  2.230432  0
O  O247  1  0.29622335  0.56241428  0.51552926  1  -1.187757  0  -0.299491  -0.5151  0  2.230728  0
O  O248  1  0.84523788  0.14294006  0.25069419  1  -1.156288  0  -0.293932  -0.501682  0  2.196231  0
O  O249  1  0.65476363  0.85705886  0.75069526  1  -1.156278  0  -0.29393  -0.501686  0  2.1962  0
O  O250  1  0.15477088  0.64294249  0.24930112  1  -1.156136  0  -0.29392  -0.501651  0  2.196236  0
O  O251  1  0.34523591  0.35705760  0.74930496  1  -1.156198  0  -0.293957  -0.501723  0  2.196211  0
