# generated using pymatgen
data_CdH20C22(N3O2)2
_symmetry_space_group_name_H-M   'P 1'
_cell_length_a   8.02101756
_cell_length_b   18.90905146
_cell_length_c   19.38529463
_cell_angle_alpha   89.99989558
_cell_angle_beta   95.79346630
_cell_angle_gamma   90.00008753
_symmetry_Int_Tables_number   1
_chemical_formula_structural   CdH20C22(N3O2)2
_chemical_formula_sum   'Cd4 H80 C88 N24 O16'
_cell_volume   2925.14672026
_cell_formula_units_Z   4
loop_
 _symmetry_equiv_pos_site_id
 _symmetry_equiv_pos_as_xyz
  1  'x, y, z'
loop_
 _atom_site_type_symbol
 _atom_site_label
 _atom_site_symmetry_multiplicity
 _atom_site_fract_x
 _atom_site_fract_y
 _atom_site_fract_z
 _atom_site_occupancy
 _atom_site_pbe_bader_charge
 _atom_site_pbe_bader_spin_density
 _atom_site_pbe_cm5_charge
 _atom_site_pbe_ddec_charge
 _atom_site_pbe_ddec_spin_density
 _atom_site_pbe_ddec_sum_bond_order
 _atom_site_pbe_magmom
Cd  Cd0  1  0.48750451  0.36291163  0.47055001  1  1.239837  0  0.783164  0.853018  0  2.202512  0
Cd  Cd1  1  0.51249559  0.86291234  0.52945039  1  1.239827  0  0.783194  0.853038  0  2.202484  0
Cd  Cd2  1  0.48548180  0.33508253  0.01335414  1  1.235708  0  0.77876  0.845461  0  2.211951  0
Cd  Cd3  1  0.51452071  0.83508397  0.98664382  1  1.235632  0  0.778803  0.845468  0  2.211897  0
H  H4  1  0.02167683  0.34346037  0.58194151  1  0.127085  0  0.107211  0.110294  0  1.029565  0
H  H5  1  0.97832446  0.84346000  0.41805845  1  0.127069  0  0.107223  0.110303  0  1.02959  0
H  H6  1  0.26541941  0.34633359  0.67369274  1  0.10311  0  0.114956  0.133422  0  0.98482  0
H  H7  1  0.73458064  0.84633218  0.32630769  1  0.103043  0  0.114956  0.133408  0  0.984817  0
H  H8  1  0.93770275  0.42444018  0.82002575  1  0.103146  0  0.108639  0.11749  0  1.009192  0
H  H9  1  0.06229252  0.92444125  0.17997330  1  0.103125  0  0.108642  0.11752  0  1.009196  0
H  H10  1  0.69479630  0.41709556  0.72844792  1  0.078875  0  0.103393  0.105279  0  1.037913  0
H  H11  1  0.30519896  0.91709661  0.27155063  1  0.078881  0  0.103369  0.105259  0  1.037974  0
H  H12  1  0.18701584  0.24313044  0.86143718  1  0.063943  0  0.105085  0.156701  0  0.986033  0
H  H13  1  0.81298512  0.74312890  0.13856244  1  0.064283  0  0.105056  0.156697  0  0.986022  0
H  H14  1  0.02197967  0.30527733  0.86531692  1  0.056888  0  0.102709  0.152351  0  0.995753  0
H  H15  1  0.97802024  0.80527750  0.13468253  1  0.056887  0  0.102713  0.152365  0  0.995746  0
H  H16  1  0.16356073  0.28830502  0.94025482  1  0.132118  0  0.107177  0.163513  0  1.027222  0
H  H17  1  0.83643788  0.78830523  0.05974565  1  0.132132  0  0.107168  0.163513  0  1.027222  0
H  H18  1  0.52012612  0.52038515  0.77131736  1  0.08629  0  0.109748  0.161251  0  0.972081  0
H  H19  1  0.47987414  0.02038542  0.22868365  1  0.086287  0  0.109749  0.161262  0  0.972073  0
H  H20  1  0.30277935  0.51931049  0.74065200  1  0.085534  0  0.102726  0.146953  0  0.987474  0
H  H21  1  0.69722090  0.01930978  0.25934798  1  0.08554  0  0.102704  0.146918  0  0.987483  0
H  H22  1  0.44269342  0.46044511  0.70422361  1  0.080587  0  0.102834  0.158509  0  1.015925  0
H  H23  1  0.55730698  0.96044311  0.29577559  1  0.08084  0  0.102868  0.158572  0  1.015814  0
H  H24  1  0.72080107  0.63735700  0.45403410  1  0.127685  0  0.105262  0.109556  0  1.023548  0
H  H25  1  0.27919705  0.13735655  0.54596764  1  0.127626  0  0.10527  0.109589  0  1.023578  0
H  H26  1  0.94674072  0.55428102  0.42580112  1  0.050784  0  0.110089  0.121113  0  0.999021  0
H  H27  1  0.05325839  0.05428036  0.57420030  1  0.050742  0  0.110103  0.121141  0  0.999043  0
H  H28  1  0.32152086  0.70238652  0.51177688  1  0.143144  0  0.112097  0.132259  0  1.00738  0
H  H29  1  0.67847747  0.20238538  0.48822528  1  0.14313  0  0.112095  0.132258  0  1.007338  0
H  H30  1  0.09386573  0.78588824  0.53701961  1  0.124746  0  0.105074  0.107793  0  1.041601  0
H  H31  1  0.90613161  0.28588728  0.46298133  1  0.124819  0  0.105065  0.107789  0  1.041606  0
H  H32  1  0.09060048  0.45060068  0.51496860  1  0.096131  0  0.105852  0.16194  0  0.994782  0
H  H33  1  0.90939989  0.95060120  0.48503217  1  0.096134  0  0.105848  0.161938  0  0.994733  0
H  H34  1  0.16061501  0.52244297  0.56955005  1  0.057994  0  0.103277  0.15295  0  0.981535  0
H  H35  1  0.83938399  0.02244362  0.43045039  1  0.057998  0  0.103284  0.152962  0  0.981529  0
H  H36  1  0.28391473  0.44362202  0.56813040  1  0.10521  0  0.104907  0.163013  0  1.017625  0
H  H37  1  0.71608437  0.94362252  0.43186981  1  0.105223  0  0.104902  0.163013  0  1.017614  0
H  H38  1  0.48964057  0.63342031  0.32136985  1  0.070631  0  0.106703  0.156184  0  0.977164  0
H  H39  1  0.51035879  0.13342029  0.67863144  1  0.07093  0  0.106683  0.156143  0  0.977172  0
H  H40  1  0.46342167  0.69012271  0.39329110  1  0.126675  0  0.105412  0.167699  0  1.00735  0
H  H41  1  0.53657913  0.19012125  0.60670963  1  0.126322  0  0.105437  0.167722  0  1.007317  0
H  H42  1  0.28567656  0.66371736  0.33682872  1  0.07377  0  0.103403  0.149335  0  0.979443  0
H  H43  1  0.71432290  0.16371591  0.66317252  1  0.073763  0  0.103413  0.149346  0  0.979419  0
H  H44  1  0.31150470  0.29712159  0.24875562  1  0.093841  0  0.102974  0.109187  0  1.03236  0
H  H45  1  0.68849393  0.79711989  0.75124174  1  0.093795  0  0.10298  0.109191  0  1.032312  0
H  H46  1  0.09283877  0.28931143  0.33116009  1  0.088539  0  0.107903  0.125128  0  1.012678  0
H  H47  1  0.90716234  0.78930737  0.66883789  1  0.088463  0  0.107868  0.12509  0  1.012665  0
H  H48  1  0.70820528  0.32058782  0.16110139  1  0.130567  0  0.110236  0.13091  0  1.021237  0
H  H49  1  0.29179467  0.82058569  0.83889701  1  0.130549  0  0.110204  0.130864  0  1.021199  0
H  H50  1  0.92858652  0.32817481  0.07925336  1  0.102256  0  0.10451  0.113278  0  1.039477  0
H  H51  1  0.07140970  0.82817027  0.92074436  1  0.102344  0  0.104493  0.113296  0  1.039534  0
H  H52  1  0.75917430  0.44420830  0.39637461  1  0.107986  0  0.103263  0.152508  0  1.022469  0
H  H53  1  0.24082355  0.94420605  0.60362555  1  0.108028  0  0.103273  0.152534  0  1.022462  0
H  H54  1  0.86677560  0.43527248  0.32047829  1  0.058924  0  0.103743  0.152853  0  0.977207  0
H  H55  1  0.13322347  0.93527054  0.67952193  1  0.058952  0  0.103727  0.152862  0  0.977148  0
H  H56  1  0.94881841  0.39346124  0.39895191  1  0.09249  0  0.105395  0.164556  0  1.000493  0
H  H57  1  0.05118053  0.89346045  0.60104787  1  0.092465  0  0.10538  0.164551  0  1.000504  0
H  H58  1  0.53543465  0.14789471  0.26416903  1  0.073747  0  0.105885  0.154897  0  0.984946  0
H  H59  1  0.46456851  0.64789341  0.73583187  1  0.073704  0  0.105879  0.154896  0  0.984943  0
H  H60  1  0.74148109  0.16229795  0.23863607  1  0.045458  0  0.10077  0.14359  0  0.98808  0
H  H61  1  0.25852212  0.66229647  0.76136429  1  0.045464  0  0.100775  0.143607  0  0.988065  0
H  H62  1  0.56509496  0.20553332  0.19363545  1  0.134673  0  0.108308  0.172351  0  0.993945  0
H  H63  1  0.43490713  0.70553346  0.80636479  1  0.134612  0  0.108328  0.17235  0  0.993904  0
H  H64  1  0.61820563  0.07285915  0.93039330  1  0.111321  0  0.101724  0.107458  0  1.03504  0
H  H65  1  0.38179729  0.57285798  0.06960721  1  0.111587  0  0.101764  0.107529  0  1.035  0
H  H66  1  0.84641814  0.98809288  0.90959416  1  0.12007  0  0.109784  0.124821  0  0.99882  0
H  H67  1  0.15358110  0.48809161  0.09040547  1  0.12005  0  0.109749  0.124765  0  0.998874  0
H  H68  1  0.21609699  0.14246425  0.98736537  1  0.124047  0  0.112271  0.135485  0  0.997105  0
H  H69  1  0.78390491  0.64246452  0.01263601  1  0.124079  0  0.112282  0.13547  0  0.9971  0
H  H70  1  0.98440164  0.22624963  0.00914310  1  0.122721  0  0.106179  0.11137  0  1.024876  0
H  H71  1  0.01560303  0.72624915  0.99085772  1  0.122745  0  0.106167  0.111387  0  1.024911  0
H  H72  1  0.20440306  0.88033080  0.05056011  1  0.098392  0  0.1048  0.160447  0  1.010467  0
H  H73  1  0.79559708  0.38033257  0.94943871  1  0.098418  0  0.104794  0.160455  0  1.010469  0
H  H74  1  0.00890871  0.91428171  0.01273672  1  0.109738  0  0.102504  0.16254  0  1.006406  0
H  H75  1  0.99109155  0.41428300  0.98726256  1  0.109895  0  0.102518  0.162577  0  1.006398  0
H  H76  1  0.14178077  0.96774128  0.07148184  1  0.045479  0  0.0994  0.144133  0  0.995377  0
H  H77  1  0.85821966  0.46774260  0.92851787  1  0.045899  0  0.099401  0.144137  0  0.995303  0
H  H78  1  0.34387736  0.13008040  0.86054471  1  0.105437  0  0.103421  0.158698  0  1.007667  0
H  H79  1  0.65612449  0.63007875  0.13945669  1  0.105494  0  0.103423  0.158697  0  1.007705  0
H  H80  1  0.15824853  0.09514314  0.81420300  1  0.058857  0  0.100069  0.143476  0  0.990425  0
H  H81  1  0.84175322  0.59514153  0.18579742  1  0.05895  0  0.100068  0.143488  0  0.990367  0
H  H82  1  0.36004408  0.06747024  0.79251000  1  0.077458  0  0.107453  0.157991  0  0.97693  0
H  H83  1  0.63995883  0.56746740  0.20749104  1  0.077468  0  0.107428  0.157962  0  0.976961  0
C  C84  1  0.70094716  0.38039316  0.59368477  1  1.577373  0  0.18876  0.559099  0  4.246949  0
C  C85  1  0.29905549  0.88039290  0.40631312  1  1.577392  0  0.188802  0.559093  0  4.246786  0
C  C86  1  0.84477727  0.38083844  0.64973437  1  -0.047892  0  -0.014318  -0.023798  0  3.95399  0
C  C87  1  0.15522288  0.88083820  0.35026497  1  -0.047811  0  -0.014305  -0.023762  0  3.953924  0
C  C88  1  0.00500449  0.36052622  0.63441055  1  -0.001269  0  -0.077312  -0.071064  0  3.95384  0
C  C89  1  0.99499434  0.86052596  0.36558928  1  -0.001257  0  -0.077336  -0.071085  0  3.953878  0
C  C90  1  0.14041095  0.36220954  0.68533402  1  -0.030894  0  -0.085371  -0.164729  0  3.959011  0
C  C91  1  0.85958789  0.86220875  0.31466684  1  -0.030874  0  -0.085389  -0.164769  0  3.959011  0
C  C92  1  0.11382922  0.38563846  0.75165511  1  0.264556  0  0.091654  0.178398  0  4.039148  0
C  C93  1  0.88616969  0.88563834  0.24834520  1  0.264487  0  0.091695  0.178556  0  4.038975  0
C  C94  1  0.95477939  0.40591207  0.76794797  1  -0.024547  0  -0.091741  -0.177071  0  4.005305  0
C  C95  1  0.04521834  0.90591303  0.23205174  1  -0.024355  0  -0.091768  -0.177201  0  4.005298  0
C  C96  1  0.82012338  0.40245024  0.71697510  1  -0.050699  0  -0.08102  -0.07974  0  3.984132  0
C  C97  1  0.17987433  0.90245120  0.28302462  1  -0.050802  0  -0.080986  -0.079688  0  3.984218  0
C  C98  1  0.15285371  0.29391032  0.88377362  1  -0.044575  0  -0.228669  -0.472565  0  3.938809  0
C  C99  1  0.84714617  0.79390990  0.11622689  1  -0.044934  0  -0.228657  -0.4726  0  3.938793  0
C  C100  1  0.26695333  0.35076304  0.86497343  1  1.005536  0  0.233953  0.345878  0  3.958541  0
C  C101  1  0.73304548  0.85076251  0.13502694  1  1.005523  0  0.233991  0.345944  0  3.958713  0
C  C102  1  0.38711158  0.43402749  0.80747392  1  0.942008  0  0.224522  0.330226  0  3.985593  0
C  C103  1  0.61288874  0.93402889  0.19252533  1  0.942201  0  0.224416  0.330047  0  3.985801  0
C  C104  1  0.41472410  0.48628559  0.75265465  1  -0.061366  0  -0.225147  -0.468009  0  3.945654  0
C  C105  1  0.58527639  0.98628529  0.24734503  1  -0.061532  0  -0.225146  -0.468018  0  3.945587  0
C  C106  1  0.75847069  0.76764007  0.51110903  1  1.546003  0  0.1904  0.554963  0  4.229394  0
C  C107  1  0.24152660  0.26763917  0.48889193  1  1.545946  0  0.190346  0.554824  0  4.229504  0
C  C108  1  0.89396548  0.71644242  0.49766264  1  0.004563  0  -0.014837  -0.033953  0  3.968145  0
C  C109  1  0.10603039  0.21644247  0.50234042  1  0.004579  0  -0.014781  -0.033899  0  3.968239  0
C  C110  1  0.85212051  0.65118110  0.46627562  1  0.00729  0  -0.078165  -0.071496  0  3.965951  0
C  C111  1  0.14787640  0.15118111  0.53372657  1  0.007377  0  -0.078209  -0.071646  0  3.966274  0
C  C112  1  0.97776093  0.60494351  0.45074364  1  0.012952  0  -0.090412  -0.173817  0  3.990166  0
C  C113  1  0.02223835  0.10494341  0.54925924  1  0.013157  0  -0.090432  -0.173774  0  3.99029  0
C  C114  1  0.14552141  0.62419380  0.46721796  1  0.216308  0  0.091945  0.177099  0  4.03608  0
C  C115  1  0.85447667  0.12419321  0.53278329  1  0.216174  0  0.091966  0.177075  0  4.036129  0
C  C116  1  0.18988726  0.68860050  0.49910708  1  0.010902  0  -0.081946  -0.155411  0  3.938902  0
C  C117  1  0.81011229  0.18859995  0.50089515  1  0.010819  0  -0.081967  -0.155431  0  3.938898  0
C  C118  1  0.06263665  0.73458107  0.51402043  1  -0.134042  0  -0.079539  -0.074436  0  3.962773  0
C  C119  1  0.93736053  0.23458063  0.48598110  1  -0.134088  0  -0.07953  -0.074403  0  3.962843  0
C  C120  1  0.20192410  0.48010350  0.53650582  1  -0.059525  0  -0.230195  -0.480945  0  3.945088  0
C  C121  1  0.79807512  0.98010399  0.46349485  1  -0.059503  0  -0.23017  -0.48093  0  3.945005  0
C  C122  1  0.29598409  0.50959475  0.48117201  1  0.987015  0  0.235838  0.351279  0  3.954681  0
C  C123  1  0.70401488  0.00959462  0.51882845  1  0.987285  0  0.235775  0.3512  0  3.954743  0
C  C124  1  0.38940619  0.58213630  0.40458586  1  0.969276  0  0.226891  0.335349  0  3.980355  0
C  C125  1  0.61059300  0.08213438  0.59541552  1  0.969218  0  0.226893  0.335366  0  3.98027  0
C  C126  1  0.40785316  0.64608826  0.36164069  1  -0.081056  0  -0.225761  -0.465759  0  3.938684  0
C  C127  1  0.59214624  0.14608677  0.63836057  1  -0.080888  0  -0.225772  -0.465737  0  3.938616  0
C  C128  1  0.26433650  0.31816613  0.10945767  1  1.519859  0  0.192671  0.560102  0  4.222774  0
C  C129  1  0.73566595  0.81816736  0.89053929  1  1.519869  0  0.192545  0.559995  0  4.222722  0
C  C130  1  0.13354966  0.31378930  0.15900566  1  0.015186  0  -0.018077  -0.035869  0  3.975925  0
C  C131  1  0.86645027  0.81378595  0.84099172  1  0.015038  0  -0.017944  -0.035647  0  3.975778  0
C  C132  1  0.17968990  0.30251951  0.22983336  1  0.027287  0  -0.079662  -0.07103  0  3.955399  0
C  C133  1  0.82030874  0.80251680  0.77016398  1  0.027404  0  -0.079781  -0.071219  0  3.955353  0
C  C134  1  0.05759026  0.29771750  0.27587626  1  0.005429  0  -0.088961  -0.168175  0  3.967048  0
C  C135  1  0.94240837  0.79771442  0.72412212  1  0.005374  0  -0.088858  -0.167978  0  3.966983  0
C  C136  1  0.88912038  0.30392381  0.24988288  1  0.255189  0  0.089432  0.174487  0  4.0317  0
C  C137  1  0.11087827  0.80392068  0.75011498  1  0.255189  0  0.0894  0.17431  0  4.031843  0
C  C138  1  0.84065317  0.31552783  0.17958662  1  -0.018681  0  -0.087693  -0.163146  0  3.955251  0
C  C139  1  0.15934551  0.81552565  0.82041226  1  -0.019345  0  -0.087651  -0.163024  0  3.95509  0
C  C140  1  0.96403509  0.32052235  0.13433603  1  -0.084404  0  -0.081198  -0.079992  0  3.965155  0
C  C141  1  0.03596487  0.82051894  0.86566134  1  -0.083667  0  -0.0812  -0.080108  0  3.965298  0
C  C142  1  0.83243700  0.40807962  0.36708570  1  -0.057371  0  -0.228224  -0.474092  0  3.936412  0
C  C143  1  0.16756199  0.90807780  0.63291405  1  -0.05742  0  -0.228196  -0.474106  0  3.936395  0
C  C144  1  0.73105985  0.34435933  0.34736039  1  0.964618  0  0.236453  0.347631  0  3.958721  0
C  C145  1  0.26893893  0.84435754  0.65263896  1  0.964344  0  0.236413  0.347518  0  3.95858  0
C  C146  1  0.63810628  0.24668814  0.29451263  1  0.971773  0  0.228796  0.334987  0  3.977014  0
C  C147  1  0.36189469  0.74668683  0.70548646  1  0.971464  0  0.228767  0.334901  0  3.97697  0
C  C148  1  0.61992675  0.18701834  0.24477073  1  -0.084057  0  -0.226251  -0.465946  0  3.944437  0
C  C149  1  0.38007529  0.68701748  0.75522903  1  -0.084007  0  -0.226269  -0.465946  0  3.944383  0
C  C150  1  0.65318838  0.20851108  0.97962946  1  1.547044  0  0.189315  0.559557  0  4.249931  0
C  C151  1  0.34681247  0.70850998  0.02037176  1  1.549251  0  0.189338  0.559557  0  4.24979  0
C  C152  1  0.78810671  0.15526362  0.96967631  1  0.038759  0  -0.016966  -0.028984  0  3.957571  0
C  C153  1  0.21189773  0.65526242  0.03032464  1  0.03836  0  -0.016951  -0.028884  0  3.95748  0
C  C154  1  0.74881953  0.08797363  0.94258858  1  -0.079141  0  -0.081765  -0.07884  0  3.963498  0
C  C155  1  0.25118094  0.58797294  0.05741232  1  -0.078751  0  -0.081781  -0.078909  0  3.963509  0
C  C156  1  0.87618449  0.04058738  0.93077252  1  -0.026582  0  -0.085392  -0.164578  0  3.967191  0
C  C157  1  0.12381583  0.54058658  0.06922742  1  -0.026903  0  -0.085389  -0.164552  0  3.96722  0
C  C158  1  0.04285945  0.06153632  0.94646319  1  0.332227  0  0.088833  0.175828  0  4.033207  0
C  C159  1  0.95714094  0.56153557  0.05353775  1  0.332231  0  0.088837  0.175801  0  4.03325  0
C  C160  1  0.08472373  0.12777073  0.97515360  1  -0.094564  0  -0.088561  -0.171289  0  3.963762  0
C  C161  1  0.91527937  0.62777000  0.02484682  1  -0.094553  0  -0.088516  -0.171113  0  3.963739  0
C  C162  1  0.95626520  0.17426566  0.98681997  1  -0.084107  0  -0.081252  -0.074683  0  3.961007  0
C  C163  1  0.04373805  0.67426545  0.01318090  1  -0.084078  0  -0.081309  -0.074899  0  3.961017  0
C  C164  1  0.13973641  0.92799580  0.03000965  1  -0.054885  0  -0.23095  -0.479782  0  3.949155  0
C  C165  1  0.86026389  0.42799704  0.96998961  1  -0.055485  0  -0.23098  -0.479852  0  3.949121  0
C  C166  1  0.22576442  0.95597837  0.97165942  1  0.990525  0  0.237184  0.349979  0  3.958367  0
C  C167  1  0.77423597  0.45597815  0.02834030  1  0.990494  0  0.237268  0.350121  0  3.958189  0
C  C168  1  0.29042403  0.02330398  0.88544848  1  0.989002  0  0.227179  0.331345  0  3.982925  0
C  C169  1  0.70957623  0.52330242  0.11455149  1  0.989002  0  0.227222  0.331368  0  3.982941  0
C  C170  1  0.28717180  0.08250847  0.83509785  1  -0.078771  0  -0.225409  -0.466003  0  3.950123  0
C  C171  1  0.71282865  0.58250629  0.16490306  1  -0.078901  0  -0.225452  -0.466054  0  3.950184  0
N  N172  1  0.40575948  0.37190002  0.90189187  1  -0.79053  0  -0.247838  -0.25137  0  3.455589  0
N  N173  1  0.59424315  0.87190000  0.09810707  1  -0.79058  0  -0.247854  -0.251432  0  3.455619  0
N  N174  1  0.48202252  0.42407403  0.86636301  1  -0.693614  0  -0.240065  -0.274952  0  3.155694  0
N  N175  1  0.51797776  0.92407495  0.13363471  1  -0.693615  0  -0.23999  -0.274769  0  3.155573  0
N  N176  1  0.25069966  0.38897283  0.80455921  1  -1.275401  0  -0.221046  -0.138387  0  3.700665  0
N  N177  1  0.74929676  0.88897167  0.19544047  1  -1.27563  0  -0.221045  -0.138452  0  3.700838  0
N  N178  1  0.41953247  0.47858321  0.45233718  1  -0.77592  0  -0.253213  -0.255445  0  3.472585  0
N  N179  1  0.58046549  0.97858287  0.54766344  1  -0.775946  0  -0.253148  -0.255321  0  3.472513  0
N  N180  1  0.47873385  0.52343534  0.40416499  1  -0.704409  0  -0.241322  -0.283052  0  3.163499  0
N  N181  1  0.52126266  0.02343442  0.59583638  1  -0.704489  0  -0.24139  -0.283164  0  3.163475  0
N  N182  1  0.27273160  0.57535745  0.45216005  1  -1.258415  0  -0.220377  -0.138366  0  3.694359  0
N  N183  1  0.72726757  0.07535623  0.54784082  1  -1.258719  0  -0.220347  -0.13835  0  3.694359  0
N  N184  1  0.59707472  0.32161037  0.37546599  1  -0.761226  0  -0.255463  -0.256929  0  3.475874  0
N  N185  1  0.40292524  0.82160871  0.62453345  1  -0.760934  0  -0.255486  -0.256901  0  3.475704  0
N  N186  1  0.53877948  0.26016944  0.34315692  1  -0.705957  0  -0.239364  -0.276631  0  3.165776  0
N  N187  1  0.46122154  0.76016881  0.65684267  1  -0.705715  0  -0.239362  -0.276636  0  3.165738  0
N  N188  1  0.76111239  0.29805352  0.29574459  1  -1.245507  0  -0.215445  -0.131447  0  3.691642  0
N  N189  1  0.23888624  0.79805108  0.70425431  1  -1.245479  0  -0.215377  -0.131258  0  3.691691  0
N  N190  1  0.36188448  0.93070483  0.94702215  1  -0.790037  0  -0.251975  -0.252572  0  3.469205  0
N  N191  1  0.63811583  0.43070394  0.05297762  1  -0.790062  0  -0.252009  -0.252687  0  3.46922  0
N  N192  1  0.40289665  0.97223315  0.89276236  1  -0.683824  0  -0.239832  -0.275419  0  3.160792  0
N  N193  1  0.59710505  0.47223161  0.10723791  1  -0.683833  0  -0.239848  -0.2754  0  3.160841  0
N  N194  1  0.17637850  0.01476883  0.93372528  1  -1.281028  0  -0.218722  -0.13681  0  3.69535  0
N  N195  1  0.82362173  0.51476849  0.06627522  1  -1.281013  0  -0.218714  -0.136794  0  3.695192  0
O  O196  1  0.74119000  0.37069576  0.53182609  1  -1.149927  0  -0.340792  -0.557505  0  2.245747  0
O  O197  1  0.25881387  0.87069800  0.46817290  1  -1.149819  0  -0.340835  -0.557552  0  2.245726  0
O  O198  1  0.55274285  0.38924071  0.60883551  1  -1.17849  0  -0.340406  -0.581168  0  2.125201  0
O  O199  1  0.44725858  0.88923635  0.39116129  1  -1.178667  0  -0.340432  -0.581139  0  2.125128  0
O  O200  1  0.79939929  0.82537590  0.54289917  1  -1.168689  0  -0.334646  -0.561635  0  2.170299  0
O  O201  1  0.20060194  0.32537503  0.45710134  1  -1.16864  0  -0.33463  -0.56156  0  2.170287  0
O  O202  1  0.60748274  0.75265251  0.48889514  1  -1.154867  0  -0.330426  -0.554443  0  2.191783  0
O  O203  1  0.39251701  0.25265114  0.51110492  1  -1.154837  0  -0.330414  -0.5544  0  2.191822  0
O  O204  1  0.70842852  0.26880641  0.00359019  1  -1.153321  0  -0.340984  -0.559544  0  2.2921  0
O  O205  1  0.29157879  0.76880557  0.99641171  1  -1.1533  0  -0.340979  -0.559485  0  2.292135  0
O  O206  1  0.50064160  0.19417029  0.96443475  1  -1.173623  0  -0.341295  -0.57911  0  2.109421  0
O  O207  1  0.49936296  0.69416874  0.03556458  1  -1.17585  0  -0.341364  -0.579199  0  2.109247  0
O  O208  1  0.21967398  0.34246247  0.04822673  1  -1.163047  0  -0.338378  -0.566982  0  2.213307  0
O  O209  1  0.78033482  0.84245569  0.95177304  1  -1.162897  0  -0.338288  -0.566905  0  2.213243  0
O  O210  1  0.41297787  0.29821011  0.12831526  1  -1.166262  0  -0.326492  -0.550975  0  2.170913  0
O  O211  1  0.58701825  0.79821921  0.87168199  1  -1.166238  0  -0.326508  -0.550989  0  2.17089  0
