# generated using pymatgen
data_TbH20C24NO10
_symmetry_space_group_name_H-M   'P 1'
_cell_length_a   10.24121410
_cell_length_b   16.95215665
_cell_length_c   18.42091050
_cell_angle_alpha   90.00013191
_cell_angle_beta   90.00050953
_cell_angle_gamma   89.99909867
_symmetry_Int_Tables_number   1
_chemical_formula_structural   TbH20C24NO10
_chemical_formula_sum   'Tb4 H80 C96 N4 O40'
_cell_volume   3198.06653350
_cell_formula_units_Z   4
loop_
 _symmetry_equiv_pos_site_id
 _symmetry_equiv_pos_as_xyz
  1  'x, y, z'
loop_
 _atom_site_type_symbol
 _atom_site_label
 _atom_site_symmetry_multiplicity
 _atom_site_fract_x
 _atom_site_fract_y
 _atom_site_fract_z
 _atom_site_occupancy
 _atom_site_pbe_bader_charge
 _atom_site_pbe_bader_spin_density
 _atom_site_pbe_cm5_charge
 _atom_site_pbe_ddec_charge
 _atom_site_pbe_ddec_spin_density
 _atom_site_pbe_ddec_sum_bond_order
 _atom_site_pbe_magmom
Tb  Tb0  1  0.29773929  0.24999799  0.69864335  1  2.172852  0  1.534873  2.067127  0  2.191229  0
Tb  Tb1  1  0.20227017  0.75000151  0.19865108  1  2.172466  0  1.534875  2.067394  0  2.190872  0
Tb  Tb2  1  0.70226726  0.75000023  0.30135317  1  2.172453  0  1.534935  2.067322  0  2.190917  0
Tb  Tb3  1  0.79773051  0.24999908  0.80135630  1  2.172568  0  1.534853  2.067239  0  2.191203  0
H  H4  1  0.35597732  0.25000205  0.24510459  1  0.599762  0  0.342386  0.377577  0  0.856978  0
H  H5  1  0.14398005  0.75001536  0.74509731  1  0.599477  0  0.342362  0.377649  0  0.856855  0
H  H6  1  0.64395501  0.74999913  0.75489845  1  0.599344  0  0.342275  0.377662  0  0.85679  0
H  H7  1  0.85601478  0.24999644  0.25489542  1  0.599436  0  0.342286  0.37765  0  0.856777  0
H  H8  1  0.94795217  0.24999411  0.97421951  1  0.117576  0  0.117656  0.125721  0  1.001253  0
H  H9  1  0.55205578  0.74999771  0.47423834  1  0.117631  0  0.117718  0.125837  0  1.001076  0
H  H10  1  0.05204949  0.75000766  0.02576018  1  0.117783  0  0.117719  0.125826  0  1.001189  0
H  H11  1  0.44795369  0.24999934  0.52576470  1  0.117751  0  0.11766  0.125742  0  1.00131  0
H  H12  1  0.00696599  0.24999495  0.10626627  1  0.0862  0  0.104605  0.105793  0  1.007144  0
H  H13  1  0.49304025  0.74999176  0.60628811  1  0.085486  0  0.104668  0.105784  0  1.007102  0
H  H14  1  0.99302826  0.75001278  0.89371928  1  0.085758  0  0.104634  0.105811  0  1.007092  0
H  H15  1  0.50696727  0.24998818  0.39371547  1  0.085606  0  0.104626  0.105748  0  1.007121  0
H  H16  1  0.35535800  0.25001653  0.92139146  1  0.074064  0  0.108125  0.108867  0  1.033274  0
H  H17  1  0.14464865  0.74999517  0.42138204  1  0.074063  0  0.1081  0.108749  0  1.033291  0
H  H18  1  0.64463682  0.74998700  0.07860561  1  0.074123  0  0.108035  0.108723  0  1.033337  0
H  H19  1  0.85535399  0.25000896  0.57861666  1  0.074125  0  0.108115  0.108849  0  1.033193  0
H  H20  1  0.62065841  0.18368327  0.04345242  1  0.05745  0  0.111788  0.097266  0  0.962556  0
H  H21  1  0.87933192  0.81630015  0.54347256  1  0.057315  0  0.111736  0.097065  0  0.962551  0
H  H22  1  0.37932370  0.68369113  0.95654516  1  0.057341  0  0.111743  0.09712  0  0.962405  0
H  H23  1  0.12066879  0.31630068  0.45652671  1  0.057239  0  0.111706  0.097012  0  0.962629  0
H  H24  1  0.37933056  0.81631378  0.95652185  1  0.057271  0  0.111703  0.096975  0  0.962627  0
H  H25  1  0.12067169  0.18369218  0.45653591  1  0.057311  0  0.111732  0.097043  0  0.962644  0
H  H26  1  0.62066527  0.31630710  0.04346874  1  0.057463  0  0.111783  0.097161  0  0.9625  0
H  H27  1  0.87933190  0.68369814  0.54348881  1  0.057689  0  0.111724  0.096946  0  0.962687  0
H  H28  1  0.51718591  0.17590385  0.96687011  1  0.022226  0  0.09045  0.056836  0  1.01853  0
H  H29  1  0.98275887  0.82410215  0.46689129  1  0.0227  0  0.09042  0.056794  0  1.018591  0
H  H30  1  0.48280131  0.67590084  0.03311715  1  0.022555  0  0.090505  0.056847  0  1.018759  0
H  H31  1  0.01722639  0.32409675  0.53311058  1  0.022808  0  0.090413  0.05676  0  1.018623  0
H  H32  1  0.48276497  0.82409851  0.03311284  1  0.022687  0  0.090383  0.056651  0  1.018529  0
H  H33  1  0.01722854  0.17590203  0.53311652  1  0.022624  0  0.090467  0.056826  0  1.018553  0
H  H34  1  0.51722183  0.32409857  0.96689023  1  0.022718  0  0.090457  0.056803  0  1.018827  0
H  H35  1  0.98274638  0.67589387  0.46689614  1  0.022909  0  0.090362  0.056688  0  1.018606  0
H  H36  1  0.56537969  0.11187578  0.15829239  1  0.104565  0  0.106478  0.114483  0  0.98554  0
H  H37  1  0.93458976  0.88813115  0.65830799  1  0.104089  0  0.10648  0.114484  0  0.98536  0
H  H38  1  0.43459865  0.61186497  0.84169484  1  0.104144  0  0.106511  0.114528  0  0.985366  0
H  H39  1  0.06541081  0.38813635  0.34169077  1  0.104077  0  0.106504  0.114425  0  0.985338  0
H  H40  1  0.43461807  0.88812834  0.84169002  1  0.10427  0  0.106499  0.114547  0  0.985371  0
H  H41  1  0.06542460  0.11186177  0.34170048  1  0.104018  0  0.106535  0.114515  0  0.985381  0
H  H42  1  0.56539031  0.38813031  0.15831200  1  0.104242  0  0.106528  0.114559  0  0.98523  0
H  H43  1  0.93461038  0.61186896  0.65831824  1  0.104042  0  0.106499  0.114552  0  0.985246  0
H  H44  1  0.48060490  0.98447023  0.20551804  1  0.094886  0  0.105531  0.109437  0  1.015556  0
H  H45  1  0.01937438  0.01554110  0.70552653  1  0.095068  0  0.105549  0.109461  0  1.015389  0
H  H46  1  0.51937431  0.48445240  0.79447697  1  0.094985  0  0.105494  0.109342  0  1.015493  0
H  H47  1  0.98064289  0.51555042  0.29447748  1  0.094962  0  0.105555  0.10942  0  1.015439  0
H  H48  1  0.51939774  0.01553743  0.79447197  1  0.094672  0  0.105522  0.109425  0  1.015457  0
H  H49  1  0.98064095  0.98445713  0.29447705  1  0.095062  0  0.105554  0.109425  0  1.015457  0
H  H50  1  0.48063614  0.51554524  0.20553421  1  0.094887  0  0.105528  0.10942  0  1.015252  0
H  H51  1  0.01939197  0.48445548  0.70553316  1  0.094674  0  0.105599  0.109539  0  1.015319  0
H  H52  1  0.24837567  0.95568683  0.01259586  1  0.103478  0  0.108911  0.114819  0  0.984288  0
H  H53  1  0.25162050  0.04430359  0.51260568  1  0.103641  0  0.108962  0.114835  0  0.98389  0
H  H54  1  0.75163367  0.45568266  0.98740077  1  0.103373  0  0.108914  0.114808  0  0.983986  0
H  H55  1  0.74837836  0.54431512  0.48738749  1  0.103615  0  0.10887  0.114761  0  0.984016  0
H  H56  1  0.75162794  0.04430609  0.98739741  1  0.103834  0  0.108923  0.114825  0  0.984126  0
H  H57  1  0.74838605  0.95568815  0.48738976  1  0.103624  0  0.10888  0.114744  0  0.984085  0
H  H58  1  0.24836701  0.54431734  0.01260716  1  0.103388  0  0.108934  0.114844  0  0.984005  0
H  H59  1  0.25163208  0.45569844  0.51261555  1  0.103665  0  0.10898  0.114877  0  0.983864  0
H  H60  1  0.33744099  0.08229704  0.96404833  1  0.038945  0  0.097188  0.096286  0  1.010774  0
H  H61  1  0.16253012  0.91768477  0.46406406  1  0.039073  0  0.097267  0.096475  0  1.010703  0
H  H62  1  0.66255481  0.58230669  0.03594540  1  0.039053  0  0.09722  0.096323  0  1.010698  0
H  H63  1  0.83744225  0.41769203  0.53592603  1  0.039253  0  0.097317  0.096514  0  1.010536  0
H  H64  1  0.66255481  0.91769352  0.03593680  1  0.039121  0  0.097261  0.096402  0  1.010714  0
H  H65  1  0.83745494  0.08230225  0.53593626  1  0.039067  0  0.097236  0.096431  0  1.010813  0
H  H66  1  0.33742829  0.41769212  0.96405981  1  0.039115  0  0.097243  0.096424  0  1.010622  0
H  H67  1  0.16254184  0.58230915  0.46407429  1  0.039314  0  0.097239  0.096403  0  1.010522  0
H  H68  1  0.48544475  0.14058476  0.77790541  1  0.652968  0  0.29844  0.409504  0  0.927159  0
H  H69  1  0.01453357  0.85940153  0.27789748  1  0.652852  0  0.29832  0.409361  0  0.92733  0
H  H70  1  0.51455521  0.64060119  0.22209921  1  0.652996  0  0.298378  0.409274  0  0.927322  0
H  H71  1  0.98546881  0.35939186  0.72209367  1  0.652941  0  0.298335  0.40945  0  0.927197  0
H  H72  1  0.51455203  0.85942173  0.22210414  1  0.652984  0  0.298457  0.409431  0  0.927256  0
H  H73  1  0.98545833  0.14059964  0.72210448  1  0.652896  0  0.298386  0.409432  0  0.927222  0
H  H74  1  0.48546500  0.35939585  0.77790220  1  0.652881  0  0.298356  0.40941  0  0.927244  0
H  H75  1  0.01454066  0.64060695  0.27790014  1  0.652897  0  0.298383  0.409442  0  0.927195  0
H  H76  1  0.33858464  0.12426892  0.80171272  1  0.622625  0  0.327769  0.411974  0  0.875572  0
H  H77  1  0.16139889  0.87573164  0.30172462  1  0.622526  0  0.327722  0.411832  0  0.875716  0
H  H78  1  0.66141776  0.62429346  0.19827072  1  0.622365  0  0.327851  0.412015  0  0.875436  0
H  H79  1  0.83860497  0.37571542  0.69827088  1  0.62233  0  0.327746  0.411888  0  0.87571  0
H  H80  1  0.66140921  0.87574170  0.19828326  1  0.622573  0  0.327762  0.411882  0  0.87566  0
H  H81  1  0.83859496  0.12428193  0.69827787  1  0.622464  0  0.327756  0.411908  0  0.875645  0
H  H82  1  0.33860539  0.37571952  0.80172635  1  0.622454  0  0.327727  0.411878  0  0.875663  0
H  H83  1  0.16139962  0.62428575  0.30172619  1  0.622489  0  0.327739  0.411885  0  0.875692  0
C  C84  1  0.12256682  0.25000321  0.85969624  1  1.569108  0  0.246628  0.675994  0  4.128587  0
C  C85  1  0.37746339  0.74999937  0.35971745  1  1.568773  0  0.246406  0.675691  0  4.129325  0
C  C86  1  0.87744167  0.74999678  0.14030028  1  1.569008  0  0.246703  0.676075  0  4.129067  0
C  C87  1  0.62254315  0.25000181  0.64028939  1  1.568996  0  0.246618  0.676168  0  4.128594  0
C  C88  1  0.14968037  0.25000446  0.93969345  1  0.007539  0  -0.010731  -0.027888  0  3.971869  0
C  C89  1  0.35033532  0.74999907  0.43969605  1  0.007332  0  -0.010935  -0.027883  0  3.972289  0
C  C90  1  0.85032129  0.74999849  0.06030470  1  0.007698  0  -0.010802  -0.027923  0  3.971983  0
C  C91  1  0.64968001  0.25000152  0.56030048  1  0.007442  0  -0.010773  -0.027924  0  3.972483  0
C  C92  1  0.04964571  0.25000027  0.99163359  1  -0.023924  0  -0.071805  -0.082631  0  3.939044  0
C  C93  1  0.45036386  0.74999699  0.49164436  1  -0.023985  0  -0.071731  -0.08283  0  3.938497  0
C  C94  1  0.95035205  0.75000444  0.00835804  1  -0.024188  0  -0.071889  -0.082911  0  3.938942  0
C  C95  1  0.54964464  0.25000123  0.50835922  1  -0.024302  0  -0.071761  -0.082702  0  3.938936  0
C  C96  1  0.08267743  0.24999631  0.06476039  1  -0.042553  0  -0.077776  -0.080017  0  3.970693  0
C  C97  1  0.41733507  0.74999670  0.56477529  1  -0.041889  0  -0.077875  -0.079921  0  3.970081  0
C  C98  1  0.91731544  0.75000605  0.93523016  1  -0.041992  0  -0.077757  -0.079937  0  3.970172  0
C  C99  1  0.58267538  0.24999562  0.43522884  1  -0.041992  0  -0.077763  -0.079907  0  3.970224  0
C  C100  1  0.21351755  0.24999994  0.08860378  1  0.027785  0  -0.004638  -0.097  0  3.888383  0
C  C101  1  0.28648552  0.74999730  0.58861304  1  0.027818  0  -0.004654  -0.097152  0  3.887963  0
C  C102  1  0.78646263  0.75000595  0.91138949  1  0.028507  0  -0.00479  -0.097184  0  3.888365  0
C  C103  1  0.71352005  0.24998853  0.41138782  1  0.028349  0  -0.004646  -0.097032  0  3.888366  0
C  C104  1  0.31393790  0.25000471  0.03599808  1  0.302233  0  0.097348  0.175537  0  3.960213  0
C  C105  1  0.18606347  0.74999879  0.53599430  1  0.302165  0  0.097452  0.175602  0  3.959834  0
C  C106  1  0.68604325  0.74999941  0.96399736  1  0.301656  0  0.097539  0.175592  0  3.960204  0
C  C107  1  0.81393136  0.24999826  0.46400603  1  0.301888  0  0.097419  0.175579  0  3.960009  0
C  C108  1  0.27925501  0.25000751  0.96275293  1  -0.028315  0  -0.086637  -0.190047  0  3.98141  0
C  C109  1  0.22075709  0.74999789  0.46274883  1  -0.028026  0  -0.086525  -0.189744  0  3.980992  0
C  C110  1  0.72074470  0.74999603  0.03724196  1  -0.028204  0  -0.086525  -0.189795  0  3.981265  0
C  C111  1  0.77925042  0.25000447  0.53724661  1  -0.028345  0  -0.086623  -0.189998  0  3.981549  0
C  C112  1  0.23154429  0.25000005  0.16939679  1  1.483774  0  0.231881  0.586664  0  4.108548  0
C  C113  1  0.26844426  0.75000051  0.66940596  1  1.483669  0  0.232239  0.587234  0  4.108307  0
C  C114  1  0.76843589  0.75000821  0.83059213  1  1.483806  0  0.23218  0.587109  0  4.108354  0
C  C115  1  0.73153787  0.24998769  0.33059436  1  1.483775  0  0.23197  0.586785  0  4.10904  0
C  C116  1  0.51758465  0.17895034  0.02710711  1  0.307851  0  -0.060148  -0.105541  0  3.959926  0
C  C117  1  0.98240390  0.82105430  0.52711904  1  0.307604  0  -0.06004  -0.105166  0  3.959912  0
C  C118  1  0.48241322  0.67894325  0.97289372  1  0.307444  0  -0.060141  -0.105302  0  3.959964  0
C  C119  1  0.01760585  0.32105275  0.47287903  1  0.30769  0  -0.060003  -0.105196  0  3.9599  0
C  C120  1  0.48239943  0.82105024  0.97287584  1  0.307594  0  -0.059909  -0.104861  0  3.959646  0
C  C121  1  0.01760011  0.17894517  0.47288660  1  0.307416  0  -0.060143  -0.105309  0  3.959784  0
C  C122  1  0.51758453  0.32106147  0.02711692  1  0.307174  0  -0.060194  -0.105499  0  3.960245  0
C  C123  1  0.98239230  0.67894318  0.52712824  1  0.307075  0  -0.060023  -0.104979  0  3.959734  0
C  C124  1  0.45929793  0.10436250  0.05735191  1  -0.00773  0  -0.000909  0.109933  0  3.96298  0
C  C125  1  0.04068029  0.89563165  0.55737017  1  -0.008  0  -0.001007  0.109801  0  3.963662  0
C  C126  1  0.54068649  0.60436541  0.94264129  1  -0.007638  0  -0.000923  0.109799  0  3.963712  0
C  C127  1  0.95931908  0.39562981  0.44262859  1  -0.008022  0  -0.000967  0.109915  0  3.963389  0
C  C128  1  0.54069103  0.89562923  0.94263267  1  -0.007912  0  -0.000995  0.109596  0  3.963658  0
C  C129  1  0.95932332  0.10436186  0.44263558  1  -0.007921  0  -0.000878  0.109941  0  3.963255  0
C  C130  1  0.45930346  0.39563518  0.05736989  1  -0.007709  0  -0.000857  0.110042  0  3.96363  0
C  C131  1  0.04068063  0.60437137  0.55737662  1  -0.008336  0  -0.000828  0.110177  0  3.963475  0
C  C132  1  0.49722888  0.07696893  0.12594797  1  -0.136295  0  -0.08688  -0.128242  0  3.965107  0
C  C133  1  0.00274150  0.92302848  0.62595951  1  -0.136525  0  -0.086794  -0.128046  0  3.965119  0
C  C134  1  0.50275439  0.57697067  0.87404739  1  -0.136252  0  -0.086888  -0.12814  0  3.964755  0
C  C135  1  0.99725024  0.42303073  0.37404035  1  -0.136337  0  -0.086879  -0.128076  0  3.964965  0
C  C136  1  0.50276693  0.92302929  0.87404204  1  -0.13636  0  -0.086918  -0.128191  0  3.965114  0
C  C137  1  0.99726016  0.07696208  0.37404624  1  -0.136018  0  -0.086917  -0.128315  0  3.965518  0
C  C138  1  0.49723751  0.42302933  0.12595999  1  -0.136354  0  -0.086872  -0.128192  0  3.965096  0
C  C139  1  0.00276216  0.57696809  0.62596595  1  -0.135996  0  -0.08708  -0.12857  0  3.964999  0
C  C140  1  0.44943596  0.00575053  0.15248993  1  -0.018732  0  -0.086799  -0.096961  0  3.98198  0
C  C141  1  0.05054553  0.99424936  0.65249093  1  -0.018945  0  -0.086818  -0.097029  0  3.981978  0
C  C142  1  0.55055231  0.50574172  0.84751516  1  -0.018646  0  -0.086766  -0.096942  0  3.981814  0
C  C143  1  0.94945976  0.49425662  0.34750897  1  -0.018986  0  -0.086814  -0.096974  0  3.981859  0
C  C144  1  0.55056766  0.99424947  0.84750496  1  -0.018644  0  -0.08677  -0.096978  0  3.981846  0
C  C145  1  0.94946199  0.00574650  0.34750885  1  -0.019143  0  -0.086854  -0.096929  0  3.982277  0
C  C146  1  0.44944642  0.49425179  0.15249385  1  -0.018888  0  -0.086785  -0.097014  0  3.981687  0
C  C147  1  0.05056631  0.50574633  0.65250167  1  -0.018777  0  -0.086701  -0.096844  0  3.981855  0
C  C148  1  0.36121542  0.96117083  0.11094473  1  0.044514  0  -0.02262  -0.046852  0  3.995164  0
C  C149  1  0.13878014  0.03882710  0.61095283  1  0.044764  0  -0.022675  -0.046911  0  3.995352  0
C  C150  1  0.63879083  0.46115478  0.88905243  1  0.045198  0  -0.022731  -0.046929  0  3.995824  0
C  C151  1  0.86123060  0.53883902  0.38904685  1  0.045406  0  -0.022645  -0.046788  0  3.995288  0
C  C152  1  0.63879307  0.03883270  0.88904527  1  0.044492  0  -0.022608  -0.046813  0  3.995423  0
C  C153  1  0.86122348  0.96116876  0.38904261  1  0.044893  0  -0.022647  -0.046883  0  3.995363  0
C  C154  1  0.36120985  0.53883932  0.11095603  1  0.045071  0  -0.022622  -0.04672  0  3.995281  0
C  C155  1  0.13879254  0.46116865  0.61096324  1  0.044803  0  -0.022629  -0.046853  0  3.995512  0
C  C156  1  0.31827627  0.99028279  0.04382307  1  -0.108387  0  -0.077383  -0.073374  0  3.958624  0
C  C157  1  0.18169982  0.00970836  0.54383411  1  -0.108474  0  -0.077407  -0.073273  0  3.958177  0
C  C158  1  0.68170765  0.49028261  0.95616705  1  -0.109668  0  -0.077337  -0.07337  0  3.95854  0
C  C159  1  0.81829029  0.50971385  0.45616067  1  -0.108838  0  -0.07736  -0.073301  0  3.958289  0
C  C160  1  0.68172344  0.00970954  0.95616531  1  -0.10831  0  -0.077352  -0.073339  0  3.958385  0
C  C161  1  0.81829403  0.99028456  0.45616404  1  -0.108727  0  -0.077333  -0.073232  0  3.958291  0
C  C162  1  0.31827741  0.50971680  0.04383762  1  -0.10864  0  -0.077439  -0.073453  0  3.958311  0
C  C163  1  0.18172407  0.49029617  0.54384617  1  -0.108147  0  -0.077442  -0.073311  0  3.958078  0
C  C164  1  0.36779058  0.06100725  0.01731399  1  -0.02441  0  -0.089279  -0.134655  0  3.988031  0
C  C165  1  0.13217733  0.93897965  0.51733116  1  -0.024139  0  -0.089387  -0.135027  0  3.988374  0
C  C166  1  0.63218826  0.56101547  0.98267376  1  -0.023842  0  -0.089376  -0.134754  0  3.988268  0
C  C167  1  0.86781102  0.43898229  0.48266328  1  -0.024449  0  -0.08944  -0.135041  0  3.988144  0
C  C168  1  0.63219838  0.93898095  0.98266896  1  -0.024268  0  -0.089415  -0.134804  0  3.988145  0
C  C169  1  0.86781750  0.06101327  0.48267351  1  -0.024174  0  -0.08937  -0.134871  0  3.988073  0
C  C170  1  0.36780363  0.43898335  0.01732928  1  -0.024182  0  -0.089316  -0.134844  0  3.98797  0
C  C171  1  0.13218869  0.56102243  0.51734084  1  -0.024569  0  -0.089329  -0.134997  0  3.987975  0
C  C172  1  0.31574850  0.88253743  0.13577289  1  1.500178  0  0.193999  0.57021  0  4.228821  0
C  C173  1  0.18424838  0.11746180  0.63577585  1  1.499574  0  0.194159  0.570412  0  4.228736  0
C  C174  1  0.68426005  0.38252855  0.86422749  1  1.50004  0  0.194086  0.570399  0  4.229137  0
C  C175  1  0.81576104  0.61747458  0.36422875  1  1.499668  0  0.194111  0.570132  0  4.228771  0
C  C176  1  0.68425512  0.11746552  0.86422417  1  1.499587  0  0.19398  0.570195  0  4.228891  0
C  C177  1  0.81575621  0.88253761  0.36421850  1  1.499378  0  0.194205  0.570383  0  4.228547  0
C  C178  1  0.31575528  0.61747027  0.13577989  1  1.499335  0  0.193953  0.570085  0  4.228894  0
C  C179  1  0.18426307  0.38253722  0.63577646  1  1.499131  0  0.193976  0.570195  0  4.229078  0
N  N180  1  0.45092569  0.24999710  0.05384775  1  -0.973412  0  -0.319372  -0.161341  0  3.451151  0
N  N181  1  0.04908178  0.75000353  0.55385025  1  -0.973233  0  -0.319359  -0.161539  0  3.451133  0
N  N182  1  0.54906328  0.74999759  0.94615095  1  -0.973638  0  -0.319434  -0.16137  0  3.45109  0
N  N183  1  0.95092769  0.25000000  0.44615442  1  -0.973409  0  -0.319315  -0.161284  0  3.450823  0
O  O184  1  0.22118180  0.25000035  0.81764974  1  -1.196298  0  -0.407213  -0.695869  0  2.341101  0
O  O185  1  0.27882832  0.74999556  0.31765845  1  -1.195082  0  -0.407291  -0.696088  0  2.340472  0
O  O186  1  0.77882182  0.75000024  0.18234787  1  -1.19574  0  -0.407278  -0.696011  0  2.341089  0
O  O187  1  0.72118116  0.24999913  0.68234785  1  -1.195566  0  -0.407348  -0.696215  0  2.340282  0
O  O188  1  0.00532667  0.25000425  0.83822249  1  -1.202404  0  -0.418936  -0.653139  0  2.328089  0
O  O189  1  0.49468177  0.75000944  0.33824056  1  -1.202585  0  -0.418697  -0.652867  0  2.328918  0
O  O190  1  0.99467246  0.75000348  0.16177175  1  -1.20238  0  -0.418927  -0.653111  0  2.328495  0
O  O191  1  0.50532770  0.25000058  0.66176194  1  -1.202496  0  -0.418795  -0.653006  0  2.328831  0
O  O192  1  0.35706764  0.24999839  0.19185478  1  -1.087262  0  -0.317495  -0.46386  0  2.322266  0
O  O193  1  0.14291828  0.75001052  0.69184641  1  -1.087359  0  -0.317592  -0.464186  0  2.322037  0
O  O194  1  0.64290472  0.75000397  0.80814555  1  -1.087512  0  -0.317574  -0.464241  0  2.321601  0
O  O195  1  0.85707654  0.24999773  0.30815120  1  -1.087074  0  -0.317443  -0.464099  0  2.321921  0
O  O196  1  0.13945784  0.25000466  0.21228312  1  -1.13401  0  -0.30932  -0.516195  0  2.068424  0
O  O197  1  0.36049712  0.75000140  0.71229715  1  -1.13381  0  -0.309549  -0.516423  0  2.068759  0
O  O198  1  0.86050085  0.75000301  0.78770743  1  -1.133728  0  -0.309432  -0.516284  0  2.068862  0
O  O199  1  0.63948208  0.24997972  0.28771077  1  -1.134086  0  -0.309348  -0.516087  0  2.069183  0
O  O200  1  0.36967656  0.84952383  0.19205527  1  -1.201832  0  -0.386054  -0.663057  0  2.270731  0
O  O201  1  0.13031034  0.15048214  0.69205089  1  -1.201348  0  -0.386092  -0.662996  0  2.270821  0
O  O202  1  0.63031439  0.34951220  0.80795487  1  -1.201338  0  -0.38608  -0.663015  0  2.270965  0
O  O203  1  0.86970007  0.65049598  0.30795319  1  -1.201332  0  -0.386117  -0.662961  0  2.270662  0
O  O204  1  0.63031436  0.15048207  0.80794831  1  -1.201338  0  -0.386053  -0.66298  0  2.270862  0
O  O205  1  0.86968253  0.84951963  0.30794021  1  -1.201479  0  -0.386103  -0.663039  0  2.270726  0
O  O206  1  0.36969899  0.65049664  0.19204925  1  -1.201446  0  -0.38611  -0.662983  0  2.270849  0
O  O207  1  0.13031526  0.34950342  0.69204171  1  -1.201297  0  -0.3861  -0.663051  0  2.270912  0
O  O208  1  0.22452328  0.84638127  0.10289423  1  -1.170348  0  -0.375774  -0.623232  0  2.179098  0
O  O209  1  0.27546826  0.15361722  0.60289501  1  -1.170138  0  -0.375851  -0.62339  0  2.179235  0
O  O210  1  0.77548338  0.34638122  0.89710940  1  -1.17063  0  -0.375764  -0.623264  0  2.179318  0
O  O211  1  0.72453425  0.65362206  0.39710907  1  -1.170355  0  -0.375773  -0.623167  0  2.179178  0
O  O212  1  0.77547838  0.15361813  0.89711206  1  -1.170404  0  -0.375749  -0.623229  0  2.178964  0
O  O213  1  0.72453828  0.84638042  0.39709988  1  -1.169831  0  -0.375911  -0.623372  0  2.178908  0
O  O214  1  0.22452804  0.65361996  0.10289853  1  -1.170008  0  -0.375731  -0.623201  0  2.179151  0
O  O215  1  0.27549865  0.34639682  0.60290048  1  -1.170047  0  -0.375732  -0.623148  0  2.179353  0
O  O216  1  0.39200457  0.13800844  0.75997660  1  -1.258229  0  -0.634485  -0.84658  0  2.043226  0
O  O217  1  0.10798815  0.86198425  0.25998332  1  -1.257995  0  -0.634358  -0.846304  0  2.043336  0
O  O218  1  0.60801402  0.63800589  0.24002258  1  -1.258005  0  -0.634525  -0.846417  0  2.043077  0
O  O219  1  0.89201123  0.36198430  0.74001815  1  -1.257815  0  -0.63443  -0.846523  0  2.043105  0
O  O220  1  0.60799904  0.86199155  0.24002209  1  -1.258177  0  -0.634507  -0.846427  0  2.043385  0
O  O221  1  0.89200863  0.13800925  0.74002406  1  -1.257988  0  -0.634453  -0.846454  0  2.043264  0
O  O222  1  0.39201205  0.36198585  0.75997937  1  -1.257907  0  -0.634388  -0.846405  0  2.043196  0
O  O223  1  0.10799434  0.63800980  0.25997566  1  -1.257987  0  -0.634432  -0.846479  0  2.043209  0
