# generated using pymatgen
data_Ag4H25C30S2N5O8
_symmetry_space_group_name_H-M   'P 1'
_cell_length_a   10.23307568
_cell_length_b   11.84036319
_cell_length_c   13.85783593
_cell_angle_alpha   83.79374030
_cell_angle_beta   80.83869930
_cell_angle_gamma   87.40268114
_symmetry_Int_Tables_number   1
_chemical_formula_structural   Ag4H25C30S2N5O8
_chemical_formula_sum   'Ag8 H50 C60 S4 N10 O16'
_cell_volume   1647.25258564
_cell_formula_units_Z   2
loop_
 _symmetry_equiv_pos_site_id
 _symmetry_equiv_pos_as_xyz
  1  'x, y, z'
loop_
 _atom_site_type_symbol
 _atom_site_label
 _atom_site_symmetry_multiplicity
 _atom_site_fract_x
 _atom_site_fract_y
 _atom_site_fract_z
 _atom_site_occupancy
 _atom_site_hle17_bader_spin_density
 _atom_site_hle17_ddec_charge
 _atom_site_hle17_ddec_spin_density
 _atom_site_hle17_ddec_sum_bond_order
 _atom_site_hle17_magmom
 _atom_site_hse06_10hf_bader_spin_density
 _atom_site_hse06_10hf_ddec_charge
 _atom_site_hse06_10hf_ddec_spin_density
 _atom_site_hse06_10hf_ddec_sum_bond_order
 _atom_site_hse06_10hf_magmom
 _atom_site_hse06_bader_spin_density
 _atom_site_hse06_ddec_charge
 _atom_site_hse06_ddec_spin_density
 _atom_site_hse06_ddec_sum_bond_order
 _atom_site_hse06_magmom
 _atom_site_pbe_bader_spin_density
 _atom_site_pbe_cm5_charge
 _atom_site_pbe_ddec_charge
 _atom_site_pbe_ddec_spin_density
 _atom_site_pbe_ddec_sum_bond_order
 _atom_site_pbe_magmom
Ag  Ag0  1  0.46945141  0.83217062  0.27165107  1  0  0.595739  0  1.377684  0  0  0.469954  0  1.803957  0  0  0.500618  0  1.756076  0  0  0.451356  0.44856  0  1.837091  0
Ag  Ag1  1  0.53053976  0.16782209  0.72835510  1  0  0.595816  0  1.377626  0  0  0.470022  0  1.80394  0  0  0.500693  0  1.756053  0  0  0.451363  0.448616  0  1.83708  0
Ag  Ag2  1  0.44347207  0.85860996  0.50216825  1  0  0.597424  0  1.491095  0  0  0.478802  0  1.943692  0  0  0.508317  0  1.885343  0  0  0.462492  0.458026  0  1.985141  0
Ag  Ag3  1  0.55652892  0.14139274  0.49783434  1  0  0.597456  0  1.491235  0  0  0.478839  0  1.943887  0  0  0.508349  0  1.885528  0  0  0.462566  0.458071  0  1.985328  0
Ag  Ag4  1  0.76607400  0.01613091  0.36700814  1  0  0.55705  0  1.50307  0  0  0.424777  0  1.970583  0  0  0.457504  0  1.91304  0  0  0.444983  0.401045  0  2.011948  0
Ag  Ag5  1  0.23392705  0.98386503  0.63299944  1  0  0.557036  0  1.503157  0  0  0.424729  0  1.97066  0  0  0.457459  0  1.913129  0  0  0.445  0.401012  0  2.012029  0
Ag  Ag6  1  0.77150161  0.92652637  0.15637208  1  0  0.529669  0  1.496487  0  0  0.392604  0  1.951851  0  0  0.422271  0  1.900076  0  0  0.466787  0.3724  0  1.988135  0
Ag  Ag7  1  0.22851423  0.07347775  0.84362935  1  0  0.529602  0  1.496531  0  0  0.392517  0  1.951914  0  0  0.422177  0  1.900159  0  0  0.466747  0.372323  0  1.988175  0
H  H8  1  0.47189554  0.56809210  0.26714298  1  0  0.09467  0  0.926566  0  0  0.106215  0  0.982134  0  0  0.108548  0  0.980378  0  0  0.119692  0.104406  0  0.983538  0
H  H9  1  0.52810451  0.43190467  0.73286031  1  0  0.094695  0  0.926519  0  0  0.106227  0  0.982112  0  0  0.108542  0  0.980379  0  0  0.119685  0.104428  0  0.983503  0
H  H10  1  0.34565239  0.40856009  0.22280881  1  0  0.12734  0  0.954037  0  0  0.137075  0  1.013179  0  0  0.140522  0  1.011722  0  0  0.112322  0.134515  0  1.014442  0
H  H11  1  0.65435065  0.59143335  0.77720888  1  0  0.127272  0  0.953915  0  0  0.136994  0  1.013071  0  0  0.140437  0  1.011623  0  0  0.112268  0.134433  0  1.014334  0
H  H12  1  0.14170238  0.45991491  0.14388755  1  0  0.080692  0  0.956927  0  0  0.093738  0  1.015981  0  0  0.095924  0  1.014789  0  0  0.102188  0.092186  0  1.01683  0
H  H13  1  0.85830272  0.54006829  0.85613019  1  0  0.080747  0  0.956873  0  0  0.093717  0  1.016011  0  0  0.095906  0  1.014813  0  0  0.102192  0.092162  0  1.016873  0
H  H14  1  0.07441949  0.66455658  0.11386401  1  0  0.101628  0  0.951125  0  0  0.115866  0  1.005886  0  0  0.118461  0  1.005677  0  0  0.105252  0.114044  0  1.006117  0
H  H15  1  0.92558262  0.33542993  0.88613644  1  0  0.101625  0  0.951288  0  0  0.1159  0  1.006002  0  0  0.118477  0  1.005815  0  0  0.105242  0.114077  0  1.006231  0
H  H16  1  0.28740953  0.89914150  0.16809058  1  0  0.107312  0  0.987043  0  0  0.116366  0  1.054159  0  0  0.119699  0  1.051596  0  0  0.102567  0.114043  0  1.055771  0
H  H17  1  0.71260941  0.10084367  0.83188781  1  0  0.107248  0  0.986998  0  0  0.116392  0  1.05407  0  0  0.11973  0  1.051488  0  0  0.102598  0.114069  0  1.055678  0
H  H18  1  0.00587328  0.83884404  0.13975277  1  0  0.097351  0  0.972386  0  0  0.106997  0  1.042266  0  0  0.110702  0  1.038413  0  0  0.0978  0.104222  0  1.045147  0
H  H19  1  0.99412875  0.16115174  0.86023811  1  0  0.097393  0  0.972373  0  0  0.107027  0  1.042276  0  0  0.110735  0  1.038419  0  0  0.097778  0.104255  0  1.04514  0
H  H20  1  0.25324703  0.06884427  0.15163236  1  0  0.133257  0  0.970224  0  0  0.142719  0  1.02626  0  0  0.146192  0  1.025606  0  0  0.110823  0.140124  0  1.027153  0
H  H21  1  0.74676791  0.93114711  0.84836898  1  0  0.13321  0  0.970117  0  0  0.142681  0  1.026168  0  0  0.146158  0  1.025517  0  0  0.11074  0.140081  0  1.02706  0
H  H22  1  0.19724430  0.27215597  0.11950079  1  0  0.090491  0  0.952938  0  0  0.102938  0  1.012297  0  0  0.104588  0  1.012289  0  0  0.105314  0.101524  0  1.012752  0
H  H23  1  0.80276785  0.72781090  0.88051195  1  0  0.09044  0  0.953016  0  0  0.103004  0  1.01225  0  0  0.104656  0  1.012241  0  0  0.105271  0.101569  0  1.012735  0
H  H24  1  0.96700184  0.33119970  0.08239785  1  0  0.090809  0  0.948419  0  0  0.104772  0  1.000748  0  0  0.107661  0  1.000369  0  0  0.102895  0.102596  0  1.001315  0
H  H25  1  0.03301703  0.66879592  0.91760911  1  0  0.090696  0  0.948568  0  0  0.104678  0  1.000867  0  0  0.107565  0  1.000491  0  0  0.102845  0.102509  0  1.001426  0
H  H26  1  0.80239002  0.17949785  0.09148004  1  0  0.084101  0  0.932195  0  0  0.096331  0  0.990589  0  0  0.098291  0  0.989046  0  0  0.11493  0.094594  0  0.992317  0
H  H27  1  0.19761684  0.82051491  0.90851798  1  0  0.084032  0  0.932325  0  0  0.0963  0  0.99067  0  0  0.09826  0  0.989126  0  0  0.11492  0.094557  0  0.992407  0
H  H28  1  0.40442518  0.61355678  0.50006471  1  0  0.087689  0  0.91088  0  0  0.101348  0  0.964911  0  0  0.103707  0  0.962606  0  0  0.121688  0.099483  0  0.966867  0
H  H29  1  0.59557201  0.38642475  0.49994041  1  0  0.087534  0  0.911067  0  0  0.101269  0  0.965004  0  0  0.103628  0  0.962699  0  0  0.121652  0.099407  0  0.966961  0
H  H30  1  0.23397891  0.47892533  0.47881719  1  0  0.132071  0  0.996198  0  0  0.13932  0  1.056648  0  0  0.143371  0  1.054346  0  0  0.109314  0.136352  0  1.05838  0
H  H31  1  0.76599530  0.52108286  0.52117502  1  0  0.132148  0  0.996274  0  0  0.139512  0  1.056593  0  0  0.143571  0  1.054268  0  0  0.109329  0.136538  0  1.058341  0
H  H32  1  0.02829519  0.56078571  0.41028381  1  0  0.09464  0  0.941711  0  0  0.107289  0  1.000113  0  0  0.109621  0  0.998604  0  0  0.108592  0.105576  0  1.001208  0
H  H33  1  0.97168882  0.43923767  0.58971513  1  0  0.094567  0  0.941712  0  0  0.107253  0  1.000056  0  0  0.109585  0  0.998549  0  0  0.108637  0.10555  0  1.001149  0
H  H34  1  0.00431600  0.76668943  0.37209498  1  0  0.121586  0  0.973487  0  0  0.131762  0  1.032391  0  0  0.134678  0  1.031536  0  0  0.107451  0.129417  0  1.033695  0
H  H35  1  0.99567402  0.23332443  0.62789626  1  0  0.121539  0  0.973389  0  0  0.131824  0  1.032174  0  0  0.13474  0  1.031318  0  0  0.107475  0.129479  0  1.033479  0
H  H36  1  0.26385689  0.97271559  0.41398859  1  0  0.100326  0  1.001343  0  0  0.105681  0  1.079098  0  0  0.109934  0  1.07353  0  0  0.098353  0.102112  0  1.083937  0
H  H37  1  0.73614416  0.02727942  0.58600970  1  0  0.100171  0  1.001385  0  0  0.105523  0  1.07925  0  0  0.109738  0  1.073714  0  0  0.098298  0.101964  0  1.084041  0
H  H38  1  0.97757482  0.93394927  0.38159292  1  0  0.079254  0  1.000583  0  0  0.089751  0  1.076065  0  0  0.093598  0  1.070936  0  0  0.090919  0.086724  0  1.080102  0
H  H39  1  0.02243502  0.06606079  0.61839419  1  0  0.079298  0  1.000555  0  0  0.089791  0  1.076037  0  0  0.093637  0  1.070914  0  0  0.090938  0.086767  0  1.080075  0
H  H40  1  0.23205302  0.15545466  0.40141709  1  0  0.135336  0  0.938885  0  0  0.144994  0  0.995843  0  0  0.148151  0  0.99442  0  0  0.115354  0.142564  0  0.997403  0
H  H41  1  0.76794568  0.84458879  0.59857310  1  0  0.135308  0  0.939074  0  0  0.144993  0  0.995881  0  0  0.148144  0  0.994473  0  0  0.115393  0.142559  0  0.997449  0
H  H42  1  0.18064036  0.36010034  0.37002742  1  0  0.101195  0  0.942967  0  0  0.113851  0  0.999934  0  0  0.116027  0  0.998594  0  0  0.11269  0.112239  0  1.000992  0
H  H43  1  0.81932377  0.63993268  0.62996281  1  0  0.101351  0  0.943033  0  0  0.113896  0  1.000087  0  0  0.116024  0  0.998814  0  0  0.112741  0.112298  0  1.001126  0
H  H44  1  0.95787049  0.42351407  0.32101512  1  0  0.100427  0  0.947648  0  0  0.11416  0  1.001159  0  0  0.11693  0  1.000894  0  0  0.107066  0.112149  0  1.001488  0
H  H45  1  0.04209775  0.57649932  0.67897512  1  0  0.10049  0  0.947633  0  0  0.114199  0  1.00118  0  0  0.116972  0  1.00091  0  0  0.107083  0.112189  0  1.001507  0
H  H46  1  0.79503494  0.27378585  0.31430943  1  0  0.079273  0  0.921278  0  0  0.091239  0  0.980605  0  0  0.093449  0  0.978266  0  0  0.117307  0.089684  0  0.982216  0
H  H47  1  0.20493230  0.72622931  0.68568581  1  0  0.079125  0  0.921464  0  0  0.091087  0  0.980784  0  0  0.093296  0  0.978456  0  0  0.117208  0.089533  0  0.9824  0
H  H48  1  0.75053244  0.66818835  0.15578055  1  0  0.094037  0  0.932398  0  0  0.102439  0  0.992641  0  0  0.105597  0  0.989484  0  0  0.117127  0.10003  0  0.995085  0
H  H49  1  0.24947457  0.33180319  0.84422243  1  0  0.094017  0  0.932471  0  0  0.102383  0  0.992733  0  0  0.105541  0  0.989577  0  0  0.117087  0.099975  0  0.995177  0
H  H50  1  0.66246345  0.52963708  0.05764467  1  0  0.096123  0  0.948846  0  0  0.109932  0  1.001995  0  0  0.112777  0  1.001769  0  0  0.10555  0.107801  0  1.002457  0
H  H51  1  0.33754249  0.47036552  0.94235590  1  0  0.096172  0  0.948894  0  0  0.109944  0  1.002082  0  0  0.112789  0  1.001858  0  0  0.105587  0.107819  0  1.002537  0
H  H52  1  0.50705603  0.60514204  0.93971266  1  0  0.088748  0  0.949864  0  0  0.102235  0  1.007543  0  0  0.104417  0  1.006255  0  0  0.107325  0.100581  0  1.008615  0
H  H53  1  0.49295585  0.39486125  0.06028282  1  0  0.088748  0  0.949912  0  0  0.102212  0  1.00762  0  0  0.104391  0  1.006336  0  0  0.107331  0.100559  0  1.008689  0
H  H54  1  0.44698924  0.81053229  0.92512152  1  0  0.119684  0  0.955766  0  0  0.131279  0  1.012609  0  0  0.134426  0  1.0111  0  0  0.111777  0.128774  0  1.014319  0
H  H55  1  0.55302666  0.18946330  0.07487712  1  0  0.119648  0  0.955708  0  0  0.131213  0  1.012586  0  0  0.134363  0  1.011063  0  0  0.111749  0.128703  0  1.014307  0
H  H56  1  0.59070338  0.01391211  0.07696846  1  0  0.089327  0  1.002224  0  0  0.097444  0  1.077232  0  0  0.10153  0  1.072179  0  0  0.094971  0.094265  0  1.081269  0
H  H57  1  0.40929884  0.98605905  0.92302699  1  0  0.089388  0  1.002122  0  0  0.097435  0  1.077184  0  0  0.101538  0  1.072111  0  0  0.095033  0.094258  0  1.081217  0
C  C58  1  0.38380033  0.58478027  0.23193553  1  0  0.131389  0  3.713198  0  0  0.101638  0  3.967814  0  0  0.107914  0  3.988098  0  0  0.047107  0.097563  0  3.954024  0
C  C59  1  0.61620668  0.41521122  0.76806168  1  0  0.131555  0  3.712961  0  0  0.10177  0  3.967576  0  0  0.108067  0  3.987867  0  0  0.047187  0.097683  0  3.953777  0
C  C60  1  0.31301263  0.49680076  0.20750951  1  0  -0.13752  0  3.723145  0  0  -0.151821  0  3.978431  0  0  -0.1594  0  4.000717  0  0  -0.086979  -0.146898  0  3.96345  0
C  C61  1  0.68699834  0.50319158  0.79249581  1  0  -0.137534  0  3.722512  0  0  -0.151787  0  3.977763  0  0  -0.159363  0  4.000036  0  0  -0.086936  -0.146864  0  3.962785  0
C  C62  1  0.20024543  0.52589533  0.16400296  1  0  -0.020102  0  3.778223  0  0  -0.037526  0  4.030478  0  0  -0.034685  0  4.050902  0  0  -0.074804  -0.039109  0  4.0164  0
C  C63  1  0.79977251  0.47409175  0.83599845  1  0  -0.020015  0  3.778024  0  0  -0.037376  0  4.030273  0  0  -0.034533  0  4.050692  0  0  -0.074788  -0.038961  0  4.016188  0
C  C64  1  0.16238935  0.63964258  0.14711904  1  0  -0.155417  0  3.702578  0  0  -0.169995  0  3.938154  0  0  -0.177786  0  3.96034  0  0  -0.083763  -0.164931  0  3.92327  0
C  C65  1  0.83762267  0.36034203  0.85287826  1  0  -0.155652  0  3.702864  0  0  -0.170234  0  3.938474  0  0  -0.178013  0  3.960665  0  0  -0.083794  -0.165167  0  3.923583  0
C  C66  1  0.23887388  0.72374775  0.17348472  1  0  0.243  0  3.80204  0  0  0.247226  0  4.036294  0  0  0.255051  0  4.058818  0  0  0.1142  0.241914  0  4.020971  0
C  C67  1  0.76112917  0.27624553  0.82651494  1  0  0.243225  0  3.80193  0  0  0.247368  0  4.036344  0  0  0.2552  0  4.058868  0  0  0.114254  0.242054  0  4.021018  0
C  C68  1  0.20730334  0.84484893  0.15948972  1  0  -0.121351  0  3.69556  0  0  -0.142942  0  3.944882  0  0  -0.146765  0  3.96674  0  0  -0.082049  -0.140117  0  3.929682  0
C  C69  1  0.79269576  0.15514190  0.84051209  1  0  -0.121085  0  3.695126  0  0  -0.142809  0  3.944574  0  0  -0.146628  0  3.966429  0  0  -0.082078  -0.13998  0  3.929368  0
C  C70  1  0.08940204  0.89215836  0.14279776  1  0  -0.112702  0  3.699279  0  0  -0.132268  0  3.948917  0  0  -0.136494  0  3.970138  0  0  -0.080492  -0.12919  0  3.934377  0
C  C71  1  0.91059410  0.10783262  0.85721594  1  0  -0.11277  0  3.699194  0  0  -0.132246  0  3.948889  0  0  -0.13648  0  3.970116  0  0  -0.080405  -0.129167  0  3.934341  0
C  C72  1  0.06068775  0.01392072  0.13084178  1  0  0.245064  0  3.762307  0  0  0.244005  0  4.000642  0  0  0.253144  0  4.021202  0  0  0.113886  0.237865  0  3.986731  0
C  C73  1  0.93931431  0.98607267  0.86916882  1  0  0.244847  0  3.762235  0  0  0.243688  0  4.000736  0  0  0.252831  0  4.021291  0  0  0.113753  0.237551  0  3.986827  0
C  C74  1  0.15575688  0.09510865  0.13356929  1  0  -0.13568  0  3.633742  0  0  -0.149814  0  3.874031  0  0  -0.157713  0  3.894402  0  0  -0.076115  -0.145126  0  3.861373  0
C  C75  1  0.84424817  0.90488132  0.86644418  1  0  -0.135552  0  3.633561  0  0  -0.149704  0  3.873995  0  0  -0.157613  0  3.894377  0  0  -0.076033  -0.145006  0  3.861319  0
C  C76  1  0.12343699  0.20970610  0.11652711  1  0  0.000528  0  3.741318  0  0  -0.022202  0  3.997126  0  0  -0.018031  0  4.017221  0  0  -0.070585  -0.024834  0  3.983896  0
C  C77  1  0.87656609  0.79028299  0.88347946  1  0  0.000573  0  3.741247  0  0  -0.022246  0  3.997041  0  0  -0.018073  0  4.017138  0  0  -0.070514  -0.02486  0  3.983803  0
C  C78  1  0.99665716  0.24219323  0.09688634  1  0  -0.141417  0  3.778961  0  0  -0.15292  0  4.033506  0  0  -0.160811  0  4.05608  0  0  -0.092311  -0.147825  0  4.018374  0
C  C79  1  0.00336175  0.75779725  0.90311679  1  0  -0.141188  0  3.778714  0  0  -0.152709  0  4.033268  0  0  -0.160599  0  4.055846  0  0  -0.092142  -0.147611  0  4.018123  0
C  C80  1  0.90486910  0.15823008  0.10008715  1  0  0.130578  0  3.72287  0  0  0.098143  0  3.975108  0  0  0.105071  0  3.995153  0  0  0.040943  0.093419  0  3.96189  0
C  C81  1  0.09514379  0.84177064  0.89990702  1  0  0.130515  0  3.722737  0  0  0.098082  0  3.974905  0  0  0.10501  0  3.994944  0  0  0.040847  0.093368  0  3.961694  0
C  C82  1  0.31293101  0.64443362  0.47401932  1  0  0.130848  0  3.714594  0  0  0.095863  0  3.969848  0  0  0.102834  0  3.989134  0  0  0.041235  0.091012  0  3.95694  0
C  C83  1  0.68707002  0.35556395  0.52598016  1  0  0.130923  0  3.714975  0  0  0.095952  0  3.970232  0  0  0.102923  0  3.989519  0  0  0.0413  0.091101  0  3.957319  0
C  C84  1  0.21888171  0.56974147  0.45910387  1  0  -0.132891  0  3.715431  0  0  -0.146558  0  3.96942  0  0  -0.153521  0  3.990233  0  0  -0.087102  -0.142154  0  3.955684  0
C  C85  1  0.78109841  0.43027179  0.54089725  1  0  -0.13282  0  3.715697  0  0  -0.146652  0  3.969729  0  0  -0.153616  0  3.99054  0  0  -0.087083  -0.142246  0  3.955997  0
C  C86  1  0.10606254  0.61503277  0.42251003  1  0  0.009335  0  3.705082  0  0  -0.012556  0  3.960234  0  0  -0.008319  0  3.978007  0  0  -0.065556  -0.01522  0  3.948233  0
C  C87  1  0.89390856  0.38499518  0.57749936  1  0  0.009107  0  3.705007  0  0  -0.01281  0  3.960376  0  0  -0.008575  0  3.978157  0  0  -0.065795  -0.015491  0  3.948386  0
C  C88  1  0.09101612  0.73180817  0.40264656  1  0  -0.122854  0  3.642062  0  0  -0.137983  0  3.879335  0  0  -0.144981  0  3.901124  0  0  -0.075705  -0.133761  0  3.865361  0
C  C89  1  0.90897089  0.26821096  0.59735822  1  0  -0.122439  0  3.641239  0  0  -0.13765  0  3.87848  0  0  -0.144644  0  3.900266  0  0  -0.075599  -0.133435  0  3.864515  0
C  C90  1  0.18731133  0.80324733  0.42228887  1  0  0.224547  0  3.795958  0  0  0.226445  0  4.027735  0  0  0.234152  0  4.050158  0  0  0.105001  0.221403  0  4.012325  0
C  C91  1  0.81267277  0.19676335  0.57771637  1  0  0.224276  0  3.795998  0  0  0.226207  0  4.027778  0  0  0.23391  0  4.050201  0  0  0.105035  0.221164  0  4.012368  0
C  C92  1  0.17574987  0.92657125  0.40767249  1  0  -0.128352  0  3.725218  0  0  -0.151456  0  3.983049  0  0  -0.154149  0  4.001059  0  0  -0.087852  -0.149398  0  3.970746  0
C  C93  1  0.82424116  0.07343935  0.59233915  1  0  -0.128103  0  3.724977  0  0  -0.15128  0  3.98282  0  0  -0.153939  0  4.000861  0  0  -0.087707  -0.149204  0  3.970507  0
C  C94  1  0.06396073  0.98272472  0.38768582  1  0  -0.112329  0  3.730066  0  0  -0.132522  0  3.975553  0  0  -0.136507  0  3.997856  0  0  -0.085471  -0.12921  0  3.959817  0
C  C95  1  0.93603622  0.01728831  0.61232344  1  0  -0.112325  0  3.730037  0  0  -0.132601  0  3.97546  0  0  -0.1366  0  3.997794  0  0  -0.085516  -0.129291  0  3.959713  0
C  C96  1  0.04217144  0.10467563  0.37266675  1  0  0.232593  0  3.784193  0  0  0.237132  0  4.008497  0  0  0.244524  0  4.033329  0  0  0.111519  0.231992  0  3.991539  0
C  C97  1  0.95782852  0.89533300  0.62733105  1  0  0.232243  0  3.784432  0  0  0.236924  0  4.008484  0  0  0.244312  0  4.033317  0  0  0.111356  0.23179  0  3.991524  0
C  C98  1  0.13675577  0.18380240  0.38070709  1  0  -0.107468  0  3.603075  0  0  -0.123499  0  3.841385  0  0  -0.130154  0  3.860775  0  0  -0.066359  -0.119417  0  3.82911  0
C  C99  1  0.86323617  0.81621910  0.61928678  1  0  -0.107146  0  3.603263  0  0  -0.123116  0  3.84129  0  0  -0.129763  0  3.860661  0  0  -0.066187  -0.119043  0  3.829021  0
C  C100  1  0.10761628  0.29901365  0.36249177  1  0  0.02139  0  3.693678  0  0  0.000183  0  3.946545  0  0  0.005308  0  3.963433  0  0  -0.058914  -0.002953  0  3.934997  0
C  C101  1  0.89235791  0.70099878  0.63749859  1  0  0.021007  0  3.693977  0  0  -0.000123  0  3.946819  0  0  0.005036  0  3.963714  0  0  -0.059164  -0.003268  0  3.935261  0
C  C102  1  0.98482370  0.33400689  0.33618643  1  0  -0.144966  0  3.763199  0  0  -0.159493  0  4.02049  0  0  -0.16755  0  4.043762  0  0  -0.091331  -0.15405  0  4.0044  0
C  C103  1  0.01514952  0.66600214  0.66380149  1  0  -0.144949  0  3.763117  0  0  -0.159515  0  4.020382  0  0  -0.167571  0  4.043637  0  0  -0.091313  -0.154076  0  4.004307  0
C  C104  1  0.89367387  0.25155464  0.33216065  1  0  0.123481  0  3.746738  0  0  0.089332  0  4.000994  0  0  0.096674  0  4.0222  0  0  0.039642  0.084622  0  3.986111  0
C  C105  1  0.10631025  0.74845337  0.66783041  1  0  0.123658  0  3.746886  0  0  0.089549  0  4.001067  0  0  0.096891  0  4.022292  0  0  0.03988  0.084835  0  3.986193  0
C  C106  1  0.68470826  0.69527912  0.10250786  1  0  0.131106  0  3.716386  0  0  0.09742  0  3.970733  0  0  0.104935  0  3.98833  0  0  0.041914  0.092419  0  3.958934  0
C  C107  1  0.31529672  0.30472012  0.89749677  1  0  0.130982  0  3.716224  0  0  0.097326  0  3.970538  0  0  0.104842  0  3.988136  0  0  0.041891  0.092325  0  3.95874  0
C  C108  1  0.63377699  0.61945558  0.04898563  1  0  -0.137784  0  3.76433  0  0  -0.152111  0  4.023464  0  0  -0.159408  0  4.045154  0  0  -0.089681  -0.147436  0  4.008909  0
C  C109  1  0.36622596  0.38055051  0.95102001  1  0  -0.137571  0  3.764037  0  0  -0.151868  0  4.023106  0  0  -0.159164  0  4.044797  0  0  -0.089548  -0.147204  0  4.008552  0
C  C110  1  0.54682277  0.66126904  0.98447521  1  0  0.000241  0  3.728735  0  0  -0.022269  0  3.985214  0  0  -0.017354  0  4.002479  0  0  -0.067188  -0.025274  0  3.97351  0
C  C111  1  0.45318815  0.33872924  0.01552881  1  0  0.000177  0  3.728743  0  0  -0.022292  0  3.98517  0  0  -0.017378  0  4.002437  0  0  -0.067254  -0.025295  0  3.973465  0
C  C112  1  0.51288948  0.77633938  0.97622737  1  0  -0.116974  0  3.633198  0  0  -0.133456  0  3.873329  0  0  -0.140026  0  3.892799  0  0  -0.071368  -0.129523  0  3.860907  0
C  C113  1  0.48712050  0.22365293  0.02377229  1  0  -0.117058  0  3.633248  0  0  -0.133546  0  3.873397  0  0  -0.140108  0  3.892861  0  0  -0.071379  -0.129615  0  3.860972  0
C  C114  1  0.56830548  0.84892488  0.03159930  1  0  0.237152  0  3.778979  0  0  0.237797  0  4.014129  0  0  0.246466  0  4.034866  0  0  0.113052  0.231969  0  4.000017  0
C  C115  1  0.43171439  0.15106888  0.96839112  1  0  0.237091  0  3.778979  0  0  0.237711  0  4.014035  0  0  0.246379  0  4.034771  0  0  0.112986  0.231881  0  3.999932  0
C  C116  1  0.54059411  0.97049346  0.02798537  1  0  -0.104639  0  3.702199  0  0  -0.128034  0  3.955378  0  0  -0.131022  0  3.974407  0  0  -0.080444  -0.125663  0  3.941916  0
C  C117  1  0.45941691  0.02949275  0.97199890  1  0  -0.104865  0  3.701893  0  0  -0.128057  0  3.954962  0  0  -0.131054  0  3.973979  0  0  -0.080401  -0.125692  0  3.941499  0
S  S118  1  0.48602338  0.10420247  0.27702809  1  0  1.530618  0  5.857767  0  0  1.4171  0  6.373377  0  0  1.473465  0  6.343386  0  0  0.527849  1.377835  0  6.3926  0
S  S119  1  0.51397668  0.89579258  0.72297175  1  0  1.530779  0  5.857731  0  0  1.417272  0  6.373322  0  0  1.473636  0  6.343325  0  0  0.527923  1.378004  0  6.392557  0
S  S120  1  0.72451032  0.74542406  0.36709545  1  0  1.517898  0  5.875919  0  0  1.406602  0  6.389458  0  0  1.462903  0  6.358691  0  0  0.520376  1.367379  0  6.409517  0
S  S121  1  0.27548772  0.25457612  0.63290557  1  0  1.517853  0  5.87599  0  0  1.406582  0  6.389515  0  0  1.462884  0  6.358745  0  0  0.520321  1.367357  0  6.409575  0
N  N122  1  0.34917015  0.69496091  0.21481642  1  0  -0.354157  0  3.218342  0  0  -0.287442  0  3.490524  0  0  -0.306603  0  3.509332  0  0  -0.325908  -0.274235  0  3.477415  0
N  N123  1  0.65082794  0.30503340  0.78519383  1  0  -0.354468  0  3.218494  0  0  -0.287676  0  3.490689  0  0  -0.306858  0  3.509507  0  0  -0.325955  -0.274461  0  3.477573  0
N  N124  1  0.93486094  0.04683234  0.11752078  1  0  -0.349158  0  3.274114  0  0  -0.270745  0  3.554505  0  0  -0.290644  0  3.569994  0  0  -0.341121  -0.25714  0  3.543851  0
N  N125  1  0.06514400  0.95317193  0.88247398  1  0  -0.349079  0  3.273868  0  0  -0.270633  0  3.554277  0  0  -0.29053  0  3.56976  0  0  -0.341061  -0.25703  0  3.543634  0
N  N126  1  0.29791992  0.75814688  0.45711736  1  0  -0.392068  0  3.414565  0  0  -0.303333  0  3.69281  0  0  -0.32544  0  3.710437  0  0  -0.355529  -0.287887  0  3.680314  0
N  N127  1  0.70208209  0.24185131  0.54285669  1  0  -0.391991  0  3.415022  0  0  -0.303305  0  3.693317  0  0  -0.325401  0  3.71093  0  0  -0.355677  -0.287865  0  3.68083  0
N  N128  1  0.92041109  0.13992859  0.35064728  1  0  -0.357601  0  3.323584  0  0  -0.270874  0  3.591716  0  0  -0.294034  0  3.612691  0  0  -0.34581  -0.254432  0  3.576849  0
N  N129  1  0.07959088  0.86007571  0.64934493  1  0  -0.357504  0  3.323902  0  0  -0.270832  0  3.591934  0  0  -0.293992  0  3.612915  0  0  -0.345903  -0.254392  0  3.577073  0
N  N130  1  0.65398528  0.80713512  0.09351646  1  0  -0.373797  0  3.342321  0  0  -0.287813  0  3.614348  0  0  -0.30791  0  3.629328  0  0  -0.347749  -0.274147  0  3.604076  0
N  N131  1  0.34602762  0.19286397  0.90648725  1  0  -0.373637  0  3.342358  0  0  -0.287635  0  3.614361  0  0  -0.30774  0  3.629356  0  0  -0.347735  -0.273967  0  3.604081  0
O  O132  1  0.41592015  0.01718564  0.23345936  1  0  -0.744516  0  2.056748  0  0  -0.659062  0  2.328384  0  0  -0.68821  0  2.313766  0  0  -0.374476  -0.637796  0  2.337502  0
O  O133  1  0.58408089  0.98281192  0.76653868  1  0  -0.744614  0  2.056663  0  0  -0.659159  0  2.328301  0  0  -0.68831  0  2.313685  0  0  -0.374525  -0.637892  0  2.337418  0
O  O134  1  0.46672505  0.06792500  0.38703587  1  0  -0.75685  0  2.12197  0  0  -0.670394  0  2.419816  0  0  -0.698814  0  2.397071  0  0  -0.386364  -0.650028  0  2.435517  0
O  O135  1  0.53327601  0.93206833  0.61296475  1  0  -0.756865  0  2.122026  0  0  -0.670399  0  2.419855  0  0  -0.698824  0  2.397124  0  0  -0.386343  -0.650033  0  2.435556  0
O  O136  1  0.63089667  0.09974506  0.23554357  1  0  -0.780791  0  2.015671  0  0  -0.712629  0  2.301501  0  0  -0.737721  0  2.278895  0  0  -0.387557  -0.694776  0  2.316987  0
O  O137  1  0.36910436  0.90025255  0.76446096  1  0  -0.780843  0  2.015688  0  0  -0.71269  0  2.301522  0  0  -0.737784  0  2.278919  0  0  -0.387603  -0.69484  0  2.317011  0
O  O138  1  0.42867787  0.21803682  0.25608371  1  0  -0.705433  0  1.870187  0  0  -0.659204  0  2.106325  0  0  -0.681898  0  2.091984  0  0  -0.373935  -0.642215  0  2.115743  0
O  O139  1  0.57132019  0.78196081  0.74391684  1  0  -0.705447  0  1.870375  0  0  -0.659225  0  2.106529  0  0  -0.681915  0  2.092184  0  0  -0.37394  -0.642237  0  2.115948  0
O  O140  1  0.66648634  0.85621751  0.40776649  1  0  -0.769917  0  2.178262  0  0  -0.672754  0  2.484586  0  0  -0.703207  0  2.461117  0  0  -0.399548  -0.650992  0  2.500239  0
O  O141  1  0.33352063  0.14378003  0.59224167  1  0  -0.769953  0  2.178278  0  0  -0.672742  0  2.484521  0  0  -0.703203  0  2.461068  0  0  -0.399541  -0.650979  0  2.500174  0
O  O142  1  0.82992904  0.77685828  0.28139460  1  0  -0.756137  0  1.97597  0  0  -0.690848  0  2.2463  0  0  -0.715169  0  2.226197  0  0  -0.387553  -0.67326  0  2.259866  0
O  O143  1  0.17006312  0.22313345  0.71859857  1  0  -0.75607  0  1.976018  0  0  -0.690766  0  2.246282  0  0  -0.715084  0  2.226175  0  0  -0.387504  -0.673186  0  2.259864  0
O  O144  1  0.61220983  0.68996043  0.33497293  1  0  -0.745787  0  1.977017  0  0  -0.681466  0  2.242848  0  0  -0.707834  0  2.225352  0  0  -0.383731  -0.662414  0  2.25412  0
O  O145  1  0.38779119  0.31003968  0.66502486  1  0  -0.745819  0  1.976945  0  0  -0.681501  0  2.242772  0  0  -0.707865  0  2.225263  0  0  -0.383744  -0.662449  0  2.254046  0
O  O146  1  0.78017345  0.67309368  0.44381148  1  0  -0.69832  0  1.947855  0  0  -0.644808  0  2.187639  0  0  -0.667813  0  2.173189  0  0  -0.358312  -0.62806  0  2.196858  0
O  O147  1  0.21982849  0.32691496  0.55619186  1  0  -0.698263  0  1.947824  0  0  -0.644773  0  2.187608  0  0  -0.667779  0  2.173169  0  0  -0.358274  -0.628026  0  2.196826  0
