# generated using pymatgen
data_Cu2H14C17(N5O2)2
_symmetry_space_group_name_H-M   'P 1'
_cell_length_a   9.25826580
_cell_length_b   9.32119669
_cell_length_c   13.90276048
_cell_angle_alpha   70.41127284
_cell_angle_beta   78.02116305
_cell_angle_gamma   89.99777650
_symmetry_Int_Tables_number   1
_chemical_formula_structural   Cu2H14C17(N5O2)2
_chemical_formula_sum   'Cu4 H28 C34 N20 O8'
_cell_volume   1102.57606908
_cell_formula_units_Z   2
loop_
 _symmetry_equiv_pos_site_id
 _symmetry_equiv_pos_as_xyz
  1  'x, y, z'
loop_
 _atom_site_type_symbol
 _atom_site_label
 _atom_site_symmetry_multiplicity
 _atom_site_fract_x
 _atom_site_fract_y
 _atom_site_fract_z
 _atom_site_occupancy
 _atom_site_pbe_bader_charge
 _atom_site_pbe_bader_spin_density
 _atom_site_pbe_cm5_charge
 _atom_site_pbe_ddec_charge
 _atom_site_pbe_ddec_spin_density
 _atom_site_pbe_ddec_sum_bond_order
 _atom_site_pbe_magmom
Cu  Cu0  1  0.93577624  0.99407661  0.37310871  1  1.055518  0.571501  0.774453  0.62492  0.728386  2.450323  0.57
Cu  Cu1  1  0.56396283  0.36727186  0.62691516  1  1.053309  0.571575  0.774128  0.625746  0.726916  2.448245  0.57
Cu  Cu2  1  0.06390890  0.00613354  0.62681511  1  1.055407  0.571536  0.773574  0.625475  0.72871  2.446988  0.57
Cu  Cu3  1  0.43593492  0.63267332  0.37317507  1  1.053402  0.571668  0.774497  0.625342  0.727074  2.450757  0.57
H  H4  1  0.19899977  0.06063434  0.20254487  1  0.091998  0.002562  0.119177  0.094525  0.001131  1.011636  0.002
H  H5  1  0.30033213  0.26319812  0.79754505  1  0.114644  0.002536  0.118909  0.093953  0.001131  1.011874  0.002
H  H6  1  0.80014501  0.93921854  0.79765745  1  0.136897  0.002511  0.119462  0.094745  0.001128  1.010663  0.002
H  H7  1  0.69933643  0.73675142  0.20245275  1  0.114666  0.002533  0.118853  0.094161  0.001128  1.012364  0.002
H  H8  1  0.36038888  0.28844487  0.07872045  1  0.079949  0.001329  0.110235  0.121466  0.000673  1.000703  0.001
H  H9  1  0.13898601  0.36712956  0.92130218  1  0.067182  0.001338  0.110275  0.121572  0.000674  1.000594  0.001
H  H10  1  0.63897190  0.71118454  0.92130710  1  0.073886  0.001337  0.110301  0.121167  0.000674  1.000853  0.001
H  H11  1  0.86066371  0.63301130  0.07858094  1  0.06892  0.001339  0.110236  0.121667  0.000674  1.000776  0.001
H  H12  1  0.07521434  0.56610132  0.21800481  1  0.120413  0.00135  0.110528  0.130366  0.000736  1.026031  0.001
H  H13  1  0.42495220  0.78359656  0.78268328  1  0.147133  0.001318  0.110314  0.129827  0.000735  1.026983  0.001
H  H14  1  0.92520265  0.43398935  0.78229582  1  0.122657  0.001338  0.110288  0.129876  0.000731  1.026026  0.001
H  H15  1  0.57542612  0.21607986  0.21753471  1  0.145513  0.001323  0.110021  0.129472  0.000734  1.026668  0.001
H  H16  1  0.92640868  0.32698091  0.33713889  1  0.12247  0.002653  0.119972  0.090089  0.001232  1.003177  0.002
H  H17  1  0.57396356  0.66347941  0.66375170  1  0.106772  0.002662  0.119825  0.089632  0.001228  1.004282  0.002
H  H18  1  0.07402039  0.67325472  0.66351340  1  0.123941  0.002642  0.119708  0.089832  0.001227  1.00379  0.002
H  H19  1  0.42662182  0.33585919  0.33678794  1  0.108974  0.002666  0.119974  0.090288  0.001231  1.002875  0.002
H  H20  1  0.42099526  0.55490497  0.01720127  1  0.018745  0.000104  0.08349  0.071391  4.6e-05  1.063313  0.0
H  H21  1  0.07861331  0.57226910  0.98298928  1  0.024738  0.000102  0.08362  0.071626  4.5e-05  1.062695  0.0
H  H22  1  0.57884389  0.44454138  0.98287536  1  0.01726  0.000104  0.083533  0.071743  4.6e-05  1.062461  0.0
H  H23  1  0.92125784  0.42805638  0.01687080  1  0.023632  0.000104  0.083503  0.071535  4.6e-05  1.06308  0.0
H  H24  1  0.37917371  0.63601320  0.11768010  1  0.093757  -0.000127  0.101654  0.123785  -6.4e-05  0.994653  0.0
H  H25  1  0.12085241  0.75374834  0.88240978  1  0.086673  -0.000129  0.101553  0.123899  -6.8e-05  0.994784  0.0
H  H26  1  0.62104744  0.36354492  0.88235528  1  0.093908  -0.000128  0.101796  0.12399  -6.5e-05  0.994389  0.0
H  H27  1  0.87960562  0.24655067  0.11747443  1  0.090739  -0.000127  0.101436  0.123854  -6.6e-05  0.995113  0.0
H  H28  1  0.16924117  0.75920922  0.05058685  1  0.05617  -8e-06  0.094344  0.098003  -1.5e-05  0.985053  0.0
H  H29  1  0.33046647  0.80969305  0.94980337  1  0.054633  -6e-06  0.094273  0.097733  -1.4e-05  0.98474  0.0
H  H30  1  0.83093231  0.24056247  0.94957002  1  0.05486  -8e-06  0.09439  0.098062  -1.5e-05  0.984359  0.0
H  H31  1  0.66978451  0.19005531  0.05041179  1  0.058663  -7e-06  0.094254  0.097506  -1.4e-05  0.985007  0.0
C  C32  1  0.18558631  0.75598379  0.29546311  1  1.656564  -0.002973  0.208798  0.526926  -0.002932  4.273179  -0.003
C  C33  1  0.31481785  0.05178447  0.70403730  1  1.657595  -0.003004  0.209859  0.528207  -0.002937  4.271847  -0.003
C  C34  1  0.81494155  0.24429284  0.70408852  1  1.656365  -0.002986  0.208471  0.525872  -0.002944  4.274631  -0.003
C  C35  1  0.68568356  0.94820279  0.29515674  1  1.659324  -0.002975  0.209585  0.528513  -0.002925  4.269893  -0.003
C  C36  1  0.19493008  0.80841354  0.38436399  1  0.987909  -0.000883  0.213204  0.141587  -0.00223  4.023832  0.002
C  C37  1  0.30501259  0.19313192  0.61534420  1  0.984489  -0.000914  0.213214  0.142181  -0.002258  4.024973  0.002
C  C38  1  0.80505851  0.19176547  0.61534082  1  0.98655  -0.000905  0.213863  0.144187  -0.002271  4.023107  0.002
C  C39  1  0.69486970  0.80717191  0.38430441  1  0.981659  -0.0009  0.212603  0.14047  -0.002252  4.023839  0.002
C  C40  1  0.17740280  0.17453064  0.20458372  1  0.484731  -0.00049  0.044222  0.091596  -0.001087  3.939938  0.0
C  C41  1  0.32227336  0.37899643  0.79567188  1  0.437656  -0.000364  0.044902  0.092403  -0.001054  3.941507  0.0
C  C42  1  0.82214280  0.82537122  0.79566714  1  0.437303  -0.000412  0.043825  0.090923  -0.001045  3.940881  0.0
C  C43  1  0.67763104  0.62085297  0.20444414  1  0.43898  -0.000381  0.044497  0.091832  -0.001067  3.94129  0.0
C  C44  1  0.26561517  0.30287688  0.13514475  1  -0.028793  0.006481  -0.084076  -0.19013  0.004342  3.949498  0.005
C  C45  1  0.23399592  0.43792635  0.86509303  1  0.009639  0.006443  -0.083874  -0.189527  0.004361  3.948166  0.005
C  C46  1  0.73398362  0.69688571  0.86499870  1  -0.013187  0.006476  -0.084372  -0.189929  0.004342  3.948965  0.005
C  C47  1  0.76588411  0.56204711  0.13494639  1  0.008681  0.006447  -0.08404  -0.189721  0.004365  3.947938  0.005
C  C48  1  0.23324100  0.44825418  0.13847524  1  -0.037869  -0.003912  0.020231  0.182631  -0.004517  3.911813  -0.003
C  C49  1  0.26654326  0.58650021  0.86190500  1  -0.088069  -0.003907  0.019738  0.181691  -0.004505  3.913372  -0.003
C  C50  1  0.76665564  0.55155332  0.86169125  1  -0.045601  -0.003895  0.019775  0.182172  -0.004496  3.91107  -0.003
C  C51  1  0.73353720  0.41340143  0.13816787  1  -0.0883  -0.003917  0.019685  0.181672  -0.004516  3.913131  -0.003
C  C52  1  0.10723447  0.45645719  0.21185420  1  0.0236  0.007112  -0.078445  -0.166979  0.004905  3.894704  0.006
C  C53  1  0.39282957  0.66787932  0.78874705  1  0.047611  0.007123  -0.077986  -0.166214  0.004885  3.897181  0.006
C  C54  1  0.89293782  0.54356440  0.78846165  1  0.023443  0.007074  -0.07747  -0.165568  0.004886  3.894683  0.006
C  C55  1  0.60747788  0.33180059  0.21149572  1  0.065058  0.007091  -0.077752  -0.16555  0.004888  3.896254  0.006
C  C56  1  0.02428627  0.32356354  0.27920854  1  0.433156  5e-06  0.04837  0.097658  -0.0006  3.937551  0.0
C  C57  1  0.47586681  0.60227266  0.72148212  1  0.457261  -6.6e-05  0.048258  0.09815  -0.000606  3.938658  0.0
C  C58  1  0.97587821  0.67657938  0.72127009  1  0.429017  -1.4e-05  0.047883  0.096581  -0.000626  3.938899  0.0
C  C59  1  0.52452922  0.39725435  0.27890095  1  0.440273  -3.6e-05  0.048829  0.097625  -0.000601  3.937686  0.0
C  C60  1  0.33035537  0.58873742  0.06792420  1  -0.017215  0.000712  -0.164147  -0.218823  0.000473  3.94502  0.001
C  C61  1  0.16940098  0.65664611  0.93230841  1  -0.028959  0.000701  -0.164217  -0.21891  0.000465  3.943594  0.001
C  C62  1  0.66965869  0.41090538  0.93215874  1  -0.01896  0.000711  -0.163821  -0.218689  0.000473  3.94307  0.001
C  C63  1  0.83072376  0.34346198  0.06767076  1  -0.03319  0.000706  -0.163769  -0.218485  0.00047  3.943889  0.001
C  C64  1  0.24985969  0.71371212  0.00015354  1  -0.02598  -0.000323  -0.157591  -0.125029  -0.000387  3.897495  0.0
C  C65  1  0.75027725  0.28609892  0.99996001  1  -0.026478  -0.000322  -0.158031  -0.125498  -0.000385  3.896661  0.0
N  N66  1  0.30483804  0.76571285  0.43458470  1  -0.712937  0.081597  -0.24519  -0.212416  0.055593  3.604436  0.072
N  N67  1  0.19504951  0.20054006  0.56518612  1  -0.727351  0.081374  -0.246035  -0.213963  0.055334  3.60635  0.072
N  N68  1  0.69505195  0.23463216  0.56522480  1  -0.711369  0.081338  -0.245997  -0.213869  0.055424  3.604793  0.072
N  N69  1  0.80448941  0.80001947  0.43473333  1  -0.709318  0.081518  -0.2454  -0.212476  0.055498  3.608969  0.072
N  N70  1  0.28936221  0.82804780  0.50949874  1  -0.074042  0.007914  -0.082529  -0.03734  0.004598  3.140324  0.007
N  N71  1  0.21026109  0.33790449  0.49039557  1  -0.053474  0.007777  -0.081408  -0.035359  0.004586  3.140838  0.007
N  N72  1  0.71012916  0.17211041  0.49041579  1  -0.073111  0.007897  -0.082266  -0.036705  0.004596  3.140301  0.007
N  N73  1  0.78893665  0.66296169  0.50985179  1  -0.067563  0.007857  -0.081679  -0.0361  0.004595  3.143527  0.007
N  N74  1  0.17118991  0.90800840  0.50430770  1  -0.158321  0.011976  -0.103169  -0.073276  0.007548  3.412876  0.011
N  N75  1  0.32829170  0.41281137  0.49562913  1  -0.163343  0.012002  -0.104257  -0.075053  0.007576  3.414301  0.011
N  N76  1  0.82812323  0.09189915  0.49557982  1  -0.160215  0.012144  -0.103428  -0.073064  0.007681  3.412099  0.011
N  N77  1  0.67099466  0.58793819  0.50458903  1  -0.16921  0.012009  -0.103573  -0.074262  0.007558  3.415787  0.011
N  N78  1  0.11028678  0.89724536  0.42666399  1  -0.719688  0.069944  -0.24372  -0.204214  0.047627  3.570491  0.062
N  N79  1  0.38940158  0.32440295  0.57318016  1  -0.717875  0.06985  -0.243649  -0.2043  0.047535  3.568838  0.062
N  N80  1  0.88934750  0.10268910  0.57310450  1  -0.718223  0.069832  -0.243778  -0.206119  0.04755  3.569578  0.062
N  N81  1  0.61032672  0.67599830  0.42669953  1  -0.712846  0.069919  -0.243883  -0.203652  0.047602  3.572437  0.062
N  N82  1  0.05937432  0.18447241  0.27664033  1  -1.223936  0.100825  -0.34936  -0.218483  0.06591  3.637606  0.087
N  N83  1  0.44055360  0.46078450  0.72382020  1  -1.222248  0.100594  -0.349212  -0.21913  0.065588  3.638393  0.086
N  N84  1  0.94045689  0.81563538  0.72375018  1  -1.221337  0.10057  -0.348299  -0.217463  0.065719  3.636594  0.086
N  N85  1  0.55959330  0.53885415  0.27646150  1  -1.225444  0.100816  -0.349149  -0.219076  0.065743  3.637658  0.087
O  O86  1  0.08800726  0.79783710  0.24447115  1  -1.150466  0.024696  -0.310455  -0.514595  0.015155  2.081975  0.021
O  O87  1  0.41278246  0.04270874  0.75470814  1  -1.14573  0.024843  -0.311236  -0.515653  0.015206  2.082394  0.021
O  O88  1  0.91305878  0.20282298  0.75463366  1  -1.148854  0.024799  -0.310262  -0.514449  0.015186  2.083252  0.021
O  O89  1  0.58807116  0.95711380  0.24422131  1  -1.149751  0.024693  -0.310832  -0.515532  0.015145  2.082428  0.021
O  O90  1  0.28850839  0.66717554  0.27989846  1  -1.085618  0.117792  -0.308462  -0.496159  0.074099  2.31239  0.107
O  O91  1  0.21185628  0.94732838  0.71984045  1  -1.0913  0.118351  -0.308609  -0.496229  0.074401  2.307887  0.107
O  O92  1  0.71183009  0.33271358  0.72004962  1  -1.087606  0.11822  -0.308126  -0.495621  0.074351  2.310074  0.107
O  O93  1  0.78874260  0.05255607  0.27933610  1  -1.090514  0.117759  -0.308833  -0.496517  0.073969  2.308019  0.107
