# generated using pymatgen
data_CuH8C10N4ClO4
_symmetry_space_group_name_H-M   'P 1'
_cell_length_a   4.76306171
_cell_length_b   5.07887873
_cell_length_c   26.43728618
_cell_angle_alpha   89.97584484
_cell_angle_beta   90.00314715
_cell_angle_gamma   89.21861888
_symmetry_Int_Tables_number   1
_chemical_formula_structural   CuH8C10N4ClO4
_chemical_formula_sum   'Cu2 H16 C20 N8 Cl2 O8'
_cell_volume   639.48519846
_cell_formula_units_Z   2
loop_
 _symmetry_equiv_pos_site_id
 _symmetry_equiv_pos_as_xyz
  1  'x, y, z'
loop_
 _atom_site_type_symbol
 _atom_site_label
 _atom_site_symmetry_multiplicity
 _atom_site_fract_x
 _atom_site_fract_y
 _atom_site_fract_z
 _atom_site_occupancy
 _atom_site_hle17_bader_spin_density
 _atom_site_hle17_ddec_charge
 _atom_site_hle17_ddec_spin_density
 _atom_site_hle17_ddec_sum_bond_order
 _atom_site_hle17_magmom
 _atom_site_hse06_10hf_bader_spin_density
 _atom_site_hse06_10hf_ddec_charge
 _atom_site_hse06_10hf_ddec_spin_density
 _atom_site_hse06_10hf_ddec_sum_bond_order
 _atom_site_hse06_10hf_magmom
 _atom_site_hse06_bader_spin_density
 _atom_site_hse06_ddec_charge
 _atom_site_hse06_ddec_spin_density
 _atom_site_hse06_ddec_sum_bond_order
 _atom_site_hse06_magmom
 _atom_site_pbe_bader_spin_density
 _atom_site_pbe_cm5_charge
 _atom_site_pbe_ddec_charge
 _atom_site_pbe_ddec_spin_density
 _atom_site_pbe_ddec_sum_bond_order
 _atom_site_pbe_magmom
Cu  Cu0  1  0.43769209  0.18142146  0.50079247  1  0  0.496664  0  1.80929  0  0  0.381517  0  2.271991  0  0  0.372604  0  2.234876  0  0  0.48911  0.390953  0  2.293983  0
Cu  Cu1  1  0.06283641  0.81853167  0.00083344  1  0  0.496358  0  1.808523  0  0  0.381317  0  2.27113  0  0  0.372425  0  2.234003  0  0  0.489004  0.390711  0  2.293177  0
H  H2  1  0.21073586  0.33004996  0.40112125  1  0  0.097227  0  0.959014  0  0  0.100037  0  1.031037  0  0  0.103715  0  1.028144  0  0  0.114118  0.097337  0  1.033136  0
H  H3  1  0.77565129  0.31537790  0.59596833  1  0  0.099256  0  0.949676  0  0  0.102914  0  1.019447  0  0  0.106777  0  1.016903  0  0  0.115135  0.100021  0  1.021493  0
H  H4  1  0.72489660  0.68450051  0.09595977  1  0  0.099119  0  0.950556  0  0  0.103019  0  1.020034  0  0  0.106815  0  1.01756  0  0  0.11522  0.100189  0  1.022019  0
H  H5  1  0.28978240  0.66993568  0.90113867  1  0  0.097233  0  0.958929  0  0  0.100097  0  1.030858  0  0  0.103762  0  1.027955  0  0  0.114159  0.097422  0  1.032906  0
H  H6  1  0.86292165  0.61329794  0.36290869  1  0  0.103809  0  0.971421  0  0  0.10942  0  1.036983  0  0  0.112868  0  1.034933  0  0  0.119108  0.106901  0  1.038622  0
H  H7  1  0.15096231  0.60282980  0.64141306  1  0  0.10791  0  0.979658  0  0  0.114006  0  1.044185  0  0  0.117755  0  1.041726  0  0  0.120131  0.111275  0  1.046152  0
H  H8  1  0.34834282  0.39776183  0.14139486  1  0  0.108189  0  0.979623  0  0  0.114411  0  1.043968  0  0  0.118197  0  1.04143  0  0  0.120185  0.111597  0  1.046058  0
H  H9  1  0.63688772  0.38635025  0.86290290  1  0  0.104116  0  0.971358  0  0  0.109477  0  1.037232  0  0  0.11293  0  1.035168  0  0  0.119052  0.106954  0  1.038882  0
H  H10  1  0.81398692  0.79044076  0.45197072  1  0  0.095622  0  0.986168  0  0  0.098476  0  1.060223  0  0  0.102648  0  1.056111  0  0  0.102873  0.095376  0  1.063238  0
H  H11  1  0.19417858  0.75353434  0.55108084  1  0  0.090552  0  1.000583  0  0  0.092724  0  1.076148  0  0  0.097906  0  1.070784  0  0  0.098169  0.088865  0  1.080211  0
H  H12  1  0.30627499  0.24656871  0.05111515  1  0  0.090437  0  1.000722  0  0  0.092728  0  1.076268  0  0  0.097903  0  1.070896  0  0  0.098219  0.088883  0  1.080318  0
H  H13  1  0.68691241  0.20962098  0.95200930  1  0  0.095774  0  0.986379  0  0  0.098747  0  1.060253  0  0  0.102889  0  1.056156  0  0  0.103117  0.095667  0  1.063242  0
H  H14  1  0.19234990  0.17234351  0.22638963  1  0  0.37785  0  0.895532  0  0  0.335056  0  0.994285  0  0  0.348313  0  0.980061  0  0  0.303945  0.325673  0  1.004215  0
H  H15  1  0.79980133  0.18940712  0.77171206  1  0  0.387405  0  0.877599  0  0  0.343867  0  0.978985  0  0  0.357714  0  0.963426  0  0  0.308257  0.334143  0  0.989814  0
H  H16  1  0.69956524  0.81030085  0.27166627  1  0  0.386834  0  0.878148  0  0  0.343478  0  0.979202  0  0  0.357344  0  0.963607  0  0  0.308097  0.333749  0  0.990046  0
H  H17  1  0.30688152  0.82771053  0.72637827  1  0  0.378223  0  0.895287  0  0  0.335577  0  0.993638  0  0  0.348811  0  0.979432  0  0  0.304193  0.326206  0  1.003556  0
C  C18  1  0.36256298  0.17458838  0.39229506  1  0  0.067053  0  3.652311  0  0  0.028584  0  3.900106  0  0  0.032297  0  3.916076  0  0  0.05492  0.026119  0  3.890028  0
C  C19  1  0.63154445  0.15946679  0.60622338  1  0  0.062237  0  3.647329  0  0  0.022673  0  3.900576  0  0  0.02662  0  3.914559  0  0  0.051186  0.020207  0  3.891499  0
C  C20  1  0.86877598  0.84050674  0.10620910  1  0  0.06213  0  3.647907  0  0  0.022193  0  3.901044  0  0  0.026193  0  3.915019  0  0  0.051209  0.019701  0  3.891967  0
C  C21  1  0.13780456  0.82538000  0.89231139  1  0  0.066851  0  3.652624  0  0  0.028333  0  3.900724  0  0  0.032087  0  3.916722  0  0  0.054863  0.02586  0  3.890628  0
C  C22  1  0.40038845  0.08235882  0.34299978  1  0  0.062651  0  3.709124  0  0  0.067315  0  3.952945  0  0  0.062857  0  3.972822  0  0  0.127882  0.069724  0  3.940021  0
C  C23  1  0.60040905  0.07732318  0.65627595  1  0  0.06459  0  3.709917  0  0  0.066633  0  3.957381  0  0  0.0635  0  3.974878  0  0  0.125879  0.068149  0  3.94582  0
C  C24  1  0.89943547  0.92278580  0.15625491  1  0  0.064679  0  3.711474  0  0  0.067351  0  3.957975  0  0  0.064234  0  3.975459  0  0  0.125826  0.068853  0  3.946421  0
C  C25  1  0.09958781  0.91750569  0.84301031  1  0  0.062189  0  3.708947  0  0  0.066847  0  3.953254  0  0  0.062361  0  3.973158  0  0  0.127698  0.069264  0  3.940347  0
C  C26  1  0.72190851  0.77823104  0.37167825  1  0  0.073904  0  3.656773  0  0  0.04541  0  3.913576  0  0  0.044826  0  3.931464  0  0  0.054668  0.045592  0  3.901999  0
C  C27  1  0.28745244  0.76501780  0.63104086  1  0  0.071124  0  3.668369  0  0  0.041077  0  3.925972  0  0  0.041553  0  3.940495  0  0  0.049459  0.04035  0  3.916452  0
C  C28  1  0.21224926  0.23530851  0.13103613  1  0  0.070676  0  3.66813  0  0  0.040811  0  3.925589  0  0  0.041272  0  3.940128  0  0  0.049496  0.040132  0  3.916137  0
C  C29  1  0.77813844  0.22162296  0.87169035  1  0  0.073565  0  3.656055  0  0  0.045277  0  3.913012  0  0  0.044687  0  3.930873  0  0  0.054633  0.045461  0  3.901471  0
C  C30  1  0.69301940  0.87488655  0.42075631  1  0  0.083344  0  3.635041  0  0  0.052365  0  3.886701  0  0  0.057525  0  3.899361  0  0  0.049956  0.04796  0  3.880204  0
C  C31  1  0.31171100  0.84849467  0.58130062  1  0  0.070199  0  3.648122  0  0  0.03853  0  3.902885  0  0  0.045593  0  3.910591  0  0  0.038631  0.033636  0  3.898335  0
C  C32  1  0.18849201  0.15167560  0.08130891  1  0  0.070177  0  3.648267  0  0  0.038214  0  3.903376  0  0  0.045266  0  3.911104  0  0  0.038326  0.033339  0  3.898799  0
C  C33  1  0.80755919  0.12511028  0.92078539  1  0  0.083021  0  3.635908  0  0  0.052066  0  3.887454  0  0  0.057304  0  3.900054  0  0  0.049963  0.047621  0  3.88098  0
C  C34  1  0.22831231  0.20341162  0.30093156  1  0  0.639296  0  3.836355  0  0  0.587976  0  4.137266  0  0  0.621755  0  4.12722  0  0  0.236005  0.565061  0  4.14367  0
C  C35  1  0.76884800  0.20551546  0.69746157  1  0  0.640029  0  3.826449  0  0  0.588365  0  4.128334  0  0  0.621408  0  4.118598  0  0  0.238361  0.565862  0  4.134706  0
C  C36  1  0.73071716  0.79459135  0.19741776  1  0  0.63902  0  3.82943  0  0  0.587534  0  4.130919  0  0  0.62059  0  4.121221  0  0  0.237906  0.565047  0  4.137235  0
C  C37  1  0.27133189  0.79649672  0.80091973  1  0  0.639819  0  3.83591  0  0  0.588094  0  4.137522  0  0  0.621874  0  4.127479  0  0  0.236167  0.565177  0  4.14394  0
N  N38  1  0.51007314  0.07270791  0.43123310  1  0  -0.239902  0  3.39195  0  0  -0.164619  0  3.684712  0  0  -0.170047  0  3.689679  0  0  -0.349484  -0.162134  0  3.682031  0
N  N39  1  0.48261229  0.04914858  0.56838516  1  0  -0.247999  0  3.389154  0  0  -0.174497  0  3.68975  0  0  -0.176491  0  3.692152  0  0  -0.361173  -0.173858  0  3.687792  0
N  N40  1  0.01795451  0.95086902  0.06839381  1  0  -0.247303  0  3.389006  0  0  -0.173862  0  3.689859  0  0  -0.175845  0  3.692217  0  0  -0.360947  -0.173273  0  3.687952  0
N  N41  1  0.99060391  0.92732029  0.93126309  1  0  -0.239291  0  3.392722  0  0  -0.163993  0  3.685428  0  0  -0.169486  0  3.690453  0  0  -0.349394  -0.161463  0  3.68269  0
N  N42  1  0.57831222  0.88187719  0.33271520  1  0  -0.229758  0  3.100498  0  0  -0.184793  0  3.34453  0  0  -0.191409  0  3.360456  0  0  -0.267777  -0.180208  0  3.333994  0
N  N43  1  0.42831943  0.87998356  0.66881719  1  0  -0.236615  0  3.124018  0  0  -0.190672  0  3.368379  0  0  -0.194541  0  3.381117  0  0  -0.276539  -0.187368  0  3.359552  0
N  N44  1  0.07117379  0.12031481  0.16879062  1  0  -0.236371  0  3.124577  0  0  -0.190911  0  3.369154  0  0  -0.194799  0  3.381914  0  0  -0.276652  -0.187589  0  3.360294  0
N  N45  1  0.92144003  0.11786922  0.83272483  1  0  -0.229542  0  3.100207  0  0  -0.184587  0  3.344499  0  0  -0.191185  0  3.360434  0  0  -0.267734  -0.180023  0  3.333974  0
Cl  Cl46  1  0.01088143  0.40648362  0.49763868  1  0  -0.630084  0  0.991676  0  0  -0.565769  0  1.305053  0  0  -0.582125  0  1.27773  0  0  -0.341372  -0.55363  0  1.322383  0
Cl  Cl47  1  0.48988543  0.59344654  0.99771028  1  0  -0.630188  0  0.99094  0  0  -0.565948  0  1.304123  0  0  -0.582304  0  1.276837  0  0  -0.34147  -0.553804  0  1.321424  0
O  O48  1  0.01471910  0.33346333  0.31056244  1  0  -0.538254  0  1.933436  0  0  -0.503521  0  2.1497  0  0  -0.524278  0  2.14294  0  0  -0.289074  -0.489097  0  2.153965  0
O  O49  1  0.98098805  0.33098638  0.68757352  1  0  -0.533444  0  1.947937  0  0  -0.498432  0  2.165863  0  0  -0.518984  0  2.15907  0  0  -0.28545  -0.484238  0  2.170193  0
O  O50  1  0.51845784  0.66938122  0.18748872  1  0  -0.532969  0  1.94842  0  0  -0.498121  0  2.166347  0  0  -0.518697  0  2.159573  0  0  -0.285156  -0.483879  0  2.170645  0
O  O51  1  0.48485291  0.66623345  0.81053517  1  0  -0.538267  0  1.932531  0  0  -0.503388  0  2.149118  0  0  -0.524143  0  2.142357  0  0  -0.289021  -0.488974  0  2.153386  0
O  O52  1  0.33106800  0.14752183  0.25613170  1  0  -0.51846  0  2.194179  0  0  -0.468085  0  2.430581  0  0  -0.491816  0  2.415737  0  0  -0.313018  -0.451519  0  2.440228  0
O  O53  1  0.66386109  0.16015701  0.74263470  1  0  -0.516324  0  2.192098  0  0  -0.466711  0  2.428433  0  0  -0.48868  0  2.412229  0  0  -0.313952  -0.451315  0  2.439048  0
O  O54  1  0.83558784  0.83954910  0.24260150  1  0  -0.515328  0  2.193448  0  0  -0.466009  0  2.429551  0  0  -0.488022  0  2.413406  0  0  -0.313539  -0.450638  0  2.440191  0
O  O55  1  0.16831505  0.85241865  0.75613702  1  0  -0.519032  0  2.194961  0  0  -0.468597  0  2.431586  0  0  -0.492328  0  2.416756  0  0  -0.313372  -0.452027  0  2.441203  0
