# generated using pymatgen
data_HgH6C5S5Cl2
_symmetry_space_group_name_H-M   'P 1'
_cell_length_a   3.95802200
_cell_length_b   11.44379542
_cell_length_c   26.32761127
_cell_angle_alpha   91.76968554
_cell_angle_beta   90.00029124
_cell_angle_gamma   89.99994100
_symmetry_Int_Tables_number   1
_chemical_formula_structural   HgH6C5S5Cl2
_chemical_formula_sum   'Hg4 H24 C20 S20 Cl8'
_cell_volume   1191.93495127
_cell_formula_units_Z   4
loop_
 _symmetry_equiv_pos_site_id
 _symmetry_equiv_pos_as_xyz
  1  'x, y, z'
loop_
 _atom_site_type_symbol
 _atom_site_label
 _atom_site_symmetry_multiplicity
 _atom_site_fract_x
 _atom_site_fract_y
 _atom_site_fract_z
 _atom_site_occupancy
 _atom_site_hle17_bader_spin_density
 _atom_site_hle17_ddec_charge
 _atom_site_hle17_ddec_spin_density
 _atom_site_hle17_ddec_sum_bond_order
 _atom_site_hle17_magmom
 _atom_site_hse06_10hf_bader_spin_density
 _atom_site_hse06_10hf_ddec_charge
 _atom_site_hse06_10hf_ddec_spin_density
 _atom_site_hse06_10hf_ddec_sum_bond_order
 _atom_site_hse06_10hf_magmom
 _atom_site_hse06_bader_spin_density
 _atom_site_hse06_ddec_charge
 _atom_site_hse06_ddec_spin_density
 _atom_site_hse06_ddec_sum_bond_order
 _atom_site_hse06_magmom
 _atom_site_pbe_bader_spin_density
 _atom_site_pbe_cm5_charge
 _atom_site_pbe_ddec_charge
 _atom_site_pbe_ddec_spin_density
 _atom_site_pbe_ddec_sum_bond_order
 _atom_site_pbe_magmom
Hg  Hg0  1  0.26340725  0.40053063  0.05932580  1  0  0.704034  0  2.153518  0  0  0.583292  0  2.648278  0  0  0.629448  0  2.616497  0  0  0.431914  0.552086  0  2.669464  0
Hg  Hg1  1  0.76341897  0.09947676  0.44067147  1  0  0.704027  0  2.153486  0  0  0.583297  0  2.648226  0  0  0.629456  0  2.616443  0  0  0.431881  0.55208  0  2.66943  0
Hg  Hg2  1  0.73658759  0.59947386  0.94067239  1  0  0.703984  0  2.153513  0  0  0.583245  0  2.648238  0  0  0.629401  0  2.616455  0  0  0.431854  0.552017  0  2.669466  0
Hg  Hg3  1  0.23658597  0.90052948  0.55932789  1  0  0.704025  0  2.15355  0  0  0.583278  0  2.648297  0  0  0.629437  0  2.616513  0  0  0.431876  0.552073  0  2.669482  0
H  H4  1  0.42898128  0.93246624  0.03973282  1  0  0.130188  0  0.942156  0  0  0.152053  0  0.995351  0  0  0.153126  0  0.995496  0  0  0.087793  0.151228  0  0.995338  0
H  H5  1  0.92895333  0.56753989  0.46027156  1  0  0.130254  0  0.941932  0  0  0.152066  0  0.995182  0  0  0.153139  0  0.995327  0  0  0.087807  0.151244  0  0.995163  0
H  H6  1  0.57106662  0.06753043  0.96027174  1  0  0.130202  0  0.94186  0  0  0.152017  0  0.995128  0  0  0.15309  0  0.995272  0  0  0.087751  0.151193  0  0.99511  0
H  H7  1  0.07105161  0.43245848  0.53972694  1  0  0.130208  0  0.941969  0  0  0.152039  0  0.995211  0  0  0.153113  0  0.995359  0  0  0.087777  0.151214  0  0.995189  0
H  H8  1  0.73100870  0.81869492  0.04735768  1  0  0.150526  0  0.961146  0  0  0.167075  0  1.023487  0  0  0.169356  0  1.022606  0  0  0.086011  0.165399  0  1.024043  0
H  H9  1  0.23096803  0.68131561  0.45264242  1  0  0.150501  0  0.961184  0  0  0.16701  0  1.023542  0  0  0.169289  0  1.02266  0  0  0.086064  0.165336  0  1.024094  0
H  H10  1  0.26904678  0.18130611  0.95264579  1  0  0.150425  0  0.961208  0  0  0.166993  0  1.02353  0  0  0.169273  0  1.022649  0  0  0.086041  0.165319  0  1.024086  0
H  H11  1  0.76902680  0.31868361  0.54735267  1  0  0.150477  0  0.961177  0  0  0.167028  0  1.023478  0  0  0.169307  0  1.022601  0  0  0.086102  0.165359  0  1.024018  0
H  H12  1  0.82308521  0.96226223  0.07228940  1  0  0.115111  0  0.981239  0  0  0.129513  0  1.051349  0  0  0.130334  0  1.051922  0  0  0.080285  0.128911  0  1.051044  0
H  H13  1  0.32305674  0.53774917  0.42771420  1  0  0.115224  0  0.981181  0  0  0.129611  0  1.051285  0  0  0.130432  0  1.051855  0  0  0.08031  0.129006  0  1.050983  0
H  H14  1  0.17695006  0.03773969  0.92771712  1  0  0.11508  0  0.98126  0  0  0.12947  0  1.051406  0  0  0.130293  0  1.051975  0  0  0.080297  0.128867  0  1.051101  0
H  H15  1  0.67694315  0.46225181  0.57228205  1  0  0.115189  0  0.981171  0  0  0.12959  0  1.051276  0  0  0.130411  0  1.051853  0  0  0.080342  0.128984  0  1.05098  0
H  H16  1  0.48995801  0.90735600  0.29367598  1  0  0.119595  0  0.983443  0  0  0.137771  0  1.045766  0  0  0.138914  0  1.04669  0  0  0.078688  0.137116  0  1.044618  0
H  H17  1  0.98995672  0.59264137  0.20632720  1  0  0.119625  0  0.983346  0  0  0.137792  0  1.045688  0  0  0.138935  0  1.046609  0  0  0.078677  0.137136  0  1.044542  0
H  H18  1  0.51002167  0.09264416  0.70632748  1  0  0.119589  0  0.983522  0  0  0.137803  0  1.045798  0  0  0.138947  0  1.046721  0  0  0.078693  0.137147  0  1.044652  0
H  H19  1  0.01002043  0.40735966  0.79367513  1  0  0.11957  0  0.983625  0  0  0.137811  0  1.045868  0  0  0.138953  0  1.046793  0  0  0.078704  0.137154  0  1.044723  0
H  H20  1  0.13328796  0.83168045  0.31879364  1  0  0.12293  0  0.991159  0  0  0.136  0  1.064053  0  0  0.138016  0  1.063536  0  0  0.081603  0.133926  0  1.065425  0
H  H21  1  0.63329066  0.66832051  0.18120779  1  0  0.122927  0  0.991131  0  0  0.135989  0  1.064041  0  0  0.138006  0  1.063523  0  0  0.081572  0.133915  0  1.065413  0
H  H22  1  0.86668666  0.16832318  0.68120683  1  0  0.12292  0  0.991101  0  0  0.135976  0  1.064027  0  0  0.137993  0  1.06351  0  0  0.081583  0.133901  0  1.065397  0
H  H23  1  0.36668902  0.33168224  0.81879228  1  0  0.12298  0  0.991102  0  0  0.136032  0  1.06404  0  0  0.138047  0  1.063524  0  0  0.081631  0.133956  0  1.065411  0
H  H24  1  0.11049845  0.98625763  0.31107821  1  0  0.11584  0  0.997341  0  0  0.133416  0  1.063727  0  0  0.134733  0  1.063519  0  0  0.070033  0.132165  0  1.064348  0
H  H25  1  0.61049175  0.51374509  0.18892436  1  0  0.115857  0  0.997306  0  0  0.133476  0  1.06363  0  0  0.134781  0  1.063432  0  0  0.070031  0.132224  0  1.06425  0
H  H26  1  0.88948629  0.01374601  0.68892377  1  0  0.115836  0  0.997324  0  0  0.133379  0  1.063779  0  0  0.134685  0  1.063581  0  0  0.07001  0.13213  0  1.064397  0
H  H27  1  0.38948793  0.48625678  0.81107494  1  0  0.115835  0  0.997296  0  0  0.1334  0  1.063716  0  0  0.134722  0  1.063504  0  0  0.070014  0.132149  0  1.064338  0
C  C28  1  0.18430670  0.20531804  0.16592077  1  0  -0.031692  0  3.805679  0  0  -0.026373  0  4.11849  0  0  -0.010966  0  4.133167  0  0  -0.001888  -0.036077  0  4.107664  0
C  C29  1  0.68427886  0.29467893  0.33408315  1  0  -0.031706  0  3.805616  0  0  -0.026471  0  4.118605  0  0  -0.011063  0  4.1333  0  0  -0.00189  -0.036145  0  4.107693  0
C  C30  1  0.81573361  0.79467684  0.83407807  1  0  -0.031588  0  3.805711  0  0  -0.026333  0  4.118653  0  0  -0.010947  0  4.133421  0  0  -0.001807  -0.036011  0  4.107743  0
C  C31  1  0.31571092  0.70531684  0.66591836  1  0  -0.031704  0  3.805589  0  0  -0.026443  0  4.11852  0  0  -0.011026  0  4.133182  0  0  -0.001874  -0.03613  0  4.107642  0
C  C32  1  0.31155577  0.98333540  0.15182908  1  0  -0.097819  0  3.821929  0  0  -0.087644  0  4.112354  0  0  -0.08396  0  4.131083  0  0  -0.025425  -0.09032  0  4.099296  0
C  C33  1  0.81154437  0.51666552  0.34817515  1  0  -0.097801  0  3.821823  0  0  -0.08765  0  4.112264  0  0  -0.083926  0  4.13095  0  0  -0.025412  -0.090327  0  4.099208  0
C  C34  1  0.68846181  0.01666037  0.84817205  1  0  -0.097845  0  3.822078  0  0  -0.087645  0  4.11248  0  0  -0.083959  0  4.131201  0  0  -0.025445  -0.090324  0  4.099427  0
C  C35  1  0.18844794  0.48333199  0.65182524  1  0  -0.097888  0  3.821984  0  0  -0.087682  0  4.112345  0  0  -0.083985  0  4.131061  0  0  -0.025454  -0.090364  0  4.099294  0
C  C36  1  0.16216628  0.99261206  0.19898545  1  0  -0.116672  0  3.798085  0  0  -0.104754  0  4.091213  0  0  -0.104904  0  4.111193  0  0  -0.040485  -0.104317  0  4.077231  0
C  C37  1  0.66214573  0.50738450  0.30101291  1  0  -0.116884  0  3.79802  0  0  -0.104912  0  4.091103  0  0  -0.105097  0  4.111122  0  0  -0.040597  -0.104477  0  4.077124  0
C  C38  1  0.83784372  0.00738807  0.80101497  1  0  -0.116742  0  3.798016  0  0  -0.104866  0  4.091202  0  0  -0.105004  0  4.111163  0  0  -0.040558  -0.104431  0  4.077223  0
C  C39  1  0.33782132  0.49261386  0.69898369  1  0  -0.116727  0  3.797903  0  0  -0.104811  0  4.091038  0  0  -0.104976  0  4.111029  0  0  -0.040504  -0.104373  0  4.077058  0
C  C40  1  0.62169165  0.89781892  0.06519268  1  0  -0.347049  0  3.636397  0  0  -0.415519  0  3.884096  0  0  -0.416706  0  3.891244  0  0  -0.241478  -0.414408  0  3.878714  0
C  C41  1  0.12167841  0.60218817  0.43480957  1  0  -0.347176  0  3.636034  0  0  -0.41556  0  3.883869  0  0  -0.416755  0  3.891035  0  0  -0.241588  -0.41445  0  3.878493  0
C  C42  1  0.37833603  0.10217862  0.93481150  1  0  -0.346889  0  3.636024  0  0  -0.415322  0  3.883754  0  0  -0.416513  0  3.890916  0  0  -0.241494  -0.41421  0  3.878373  0
C  C43  1  0.87832654  0.39781107  0.56518780  1  0  -0.34712  0  3.636125  0  0  -0.415561  0  3.883957  0  0  -0.416732  0  3.891072  0  0  -0.241625  -0.414444  0  3.878571  0
C  C44  1  0.21362304  0.90399470  0.29530563  1  0  -0.341959  0  3.644058  0  0  -0.408868  0  3.883782  0  0  -0.410222  0  3.890275  0  0  -0.247817  -0.407111  0  3.87931  0
C  C45  1  0.71361411  0.59600449  0.20469623  1  0  -0.342055  0  3.644062  0  0  -0.40896  0  3.883745  0  0  -0.410304  0  3.890249  0  0  -0.247789  -0.407198  0  3.87927  0
C  C46  1  0.78636422  0.09600632  0.70469671  1  0  -0.341972  0  3.644232  0  0  -0.408896  0  3.883896  0  0  -0.410245  0  3.890402  0  0  -0.247808  -0.407134  0  3.879416  0
C  C47  1  0.28635041  0.40399565  0.79530457  1  0  -0.34195  0  3.644226  0  0  -0.408899  0  3.88388  0  0  -0.410259  0  3.890369  0  0  -0.247837  -0.407142  0  3.87941  0
S  S48  1  0.15228789  0.34998826  0.16100577  1  0  -0.227963  0  2.218074  0  0  -0.218927  0  2.583639  0  0  -0.237019  0  2.584771  0  0  -0.127631  -0.207696  0  2.583156  0
S  S49  1  0.65224548  0.15001219  0.33899399  1  0  -0.227972  0  2.218345  0  0  -0.218921  0  2.583963  0  0  -0.237012  0  2.5851  0  0  -0.127652  -0.207693  0  2.583455  0
S  S50  1  0.84775495  0.65000835  0.83899119  1  0  -0.227996  0  2.2182  0  0  -0.218938  0  2.583801  0  0  -0.237026  0  2.584945  0  0  -0.127666  -0.207701  0  2.583282  0
S  S51  1  0.34772915  0.84998706  0.66100490  1  0  -0.227928  0  2.218205  0  0  -0.218867  0  2.583807  0  0  -0.236961  0  2.584933  0  0  -0.127621  -0.207655  0  2.583349  0
S  S52  1  0.35767801  0.11323016  0.11995636  1  0  0.191807  0  2.730049  0  0  0.18711  0  3.090798  0  0  0.185991  0  3.094795  0  0  0.110414  0.186962  0  3.088295  0
S  S53  1  0.85764136  0.38676936  0.38004468  1  0  0.191865  0  2.730273  0  0  0.187195  0  3.091064  0  0  0.186068  0  3.095048  0  0  0.110426  0.187041  0  3.088546  0
S  S54  1  0.64236989  0.88676298  0.88004435  1  0  0.191789  0  2.73019  0  0  0.187082  0  3.09101  0  0  0.185963  0  3.095013  0  0  0.110371  0.18693  0  3.088493  0
S  S55  1  0.14234843  0.61322812  0.61995153  1  0  0.191849  0  2.729924  0  0  0.187154  0  3.090691  0  0  0.186025  0  3.094686  0  0  0.110431  0.187009  0  3.088176  0
S  S56  1  0.04491232  0.13408334  0.21843828  1  0  0.18002  0  2.724163  0  0  0.170748  0  3.09528  0  0  0.169988  0  3.101932  0  0  0.103259  0.170692  0  3.09111  0
S  S57  1  0.54488501  0.36592151  0.28156031  1  0  0.180138  0  2.723932  0  0  0.170885  0  3.095058  0  0  0.170129  0  3.101727  0  0  0.103364  0.17082  0  3.090882  0
S  S58  1  0.95511789  0.86592027  0.78155914  1  0  0.180048  0  2.723977  0  0  0.170825  0  3.095093  0  0  0.170066  0  3.101741  0  0  0.103338  0.170765  0  3.090917  0
S  S59  1  0.45508962  0.63408035  0.71843747  1  0  0.180063  0  2.72412  0  0  0.170812  0  3.09525  0  0  0.170055  0  3.101899  0  0  0.103277  0.17075  0  3.091079  0
S  S60  1  0.43627940  0.85081265  0.12363715  1  0  0.119007  0  2.547695  0  0  0.122997  0  2.908532  0  0  0.118219  0  2.911625  0  0  0.039963  0.126612  0  2.906265  0
S  S61  1  0.93623573  0.64918646  0.37636411  1  0  0.118987  0  2.547807  0  0  0.123003  0  2.908587  0  0  0.118217  0  2.911666  0  0  0.039978  0.126616  0  2.906323  0
S  S62  1  0.56375081  0.14918050  0.87636546  1  0  0.118926  0  2.547814  0  0  0.122933  0  2.908572  0  0  0.118157  0  2.911665  0  0  0.039959  0.126546  0  2.906307  0
S  S63  1  0.06374395  0.35081103  0.62363400  1  0  0.119034  0  2.547829  0  0  0.123023  0  2.908608  0  0  0.118236  0  2.911696  0  0  0.03996  0.126638  0  2.906344  0
S  S64  1  0.04466642  0.87086773  0.23277275  1  0  0.076798  0  2.619464  0  0  0.080525  0  3.000962  0  0  0.076657  0  3.004387  0  0  0.016397  0.082887  0  2.999233  0
S  S65  1  0.54466205  0.62913588  0.26722827  1  0  0.07686  0  2.619644  0  0  0.080539  0  3.001181  0  0  0.076681  0  3.00462  0  0  0.016414  0.082897  0  2.999451  0
S  S66  1  0.95532589  0.12913591  0.76722848  1  0  0.07686  0  2.619554  0  0  0.080597  0  3.001071  0  0  0.076726  0  3.004492  0  0  0.016442  0.082956  0  2.999338  0
S  S67  1  0.45530247  0.37086250  0.73277175  1  0  0.07682  0  2.619314  0  0  0.080535  0  3.000823  0  0  0.076674  0  3.004253  0  0  0.016421  0.082896  0  2.999092  0
Cl  Cl68  1  0.66061312  0.56106352  0.06632256  1  0  -0.41393  0  1.116269  0  0  -0.348571  0  1.411199  0  0  -0.369708  0  1.3941  0  0  -0.245744  -0.333865  0  1.422227  0
Cl  Cl69  1  0.16061654  0.93894090  0.43367552  1  0  -0.41395  0  1.116203  0  0  -0.348614  0  1.411161  0  0  -0.369748  0  1.39406  0  0  -0.245759  -0.333912  0  1.42219  0
Cl  Cl70  1  0.33937667  0.43894184  0.93367488  1  0  -0.413924  0  1.116251  0  0  -0.348575  0  1.411197  0  0  -0.369707  0  1.394099  0  0  -0.245734  -0.333866  0  1.42223  0
Cl  Cl71  1  0.83937324  0.06106359  0.56632344  1  0  -0.413983  0  1.116296  0  0  -0.348638  0  1.41125  0  0  -0.369775  0  1.39415  0  0  -0.245766  -0.333933  0  1.422277  0
Cl  Cl72  1  0.86339855  0.25360097  0.02815779  1  0  -0.448751  0  1.135721  0  0  -0.389824  0  1.431989  0  0  -0.411277  0  1.417778  0  0  -0.255873  -0.374164  0  1.441394  0
Cl  Cl73  1  0.36339877  0.24640116  0.47184140  1  0  -0.448707  0  1.135733  0  0  -0.389771  0  1.43198  0  0  -0.411231  0  1.41777  0  0  -0.255844  -0.37412  0  1.441384  0
Cl  Cl74  1  0.13659629  0.74640266  0.97184306  1  0  -0.448736  0  1.135749  0  0  -0.389783  0  1.43198  0  0  -0.411235  0  1.417766  0  0  -0.25585  -0.374124  0  1.441389  0
Cl  Cl75  1  0.63659606  0.75359896  0.52815675  1  0  -0.448753  0  1.135775  0  0  -0.389787  0  1.431968  0  0  -0.411241  0  1.417759  0  0  -0.255845  -0.37413  0  1.441371  0
