# generated using pymatgen
data_GdCuH10C16N5O9
_symmetry_space_group_name_H-M   'P 1'
_cell_length_a   10.75011052
_cell_length_b   10.59991664
_cell_length_c   11.47364037
_cell_angle_alpha   73.87609716
_cell_angle_beta   81.06230083
_cell_angle_gamma   60.79260976
_symmetry_Int_Tables_number   1
_chemical_formula_structural   GdCuH10C16N5O9
_chemical_formula_sum   'Gd2 Cu2 H20 C32 N10 O18'
_cell_volume   1095.99955757
_cell_formula_units_Z   2
loop_
 _symmetry_equiv_pos_site_id
 _symmetry_equiv_pos_as_xyz
  1  'x, y, z'
loop_
 _atom_site_type_symbol
 _atom_site_label
 _atom_site_symmetry_multiplicity
 _atom_site_fract_x
 _atom_site_fract_y
 _atom_site_fract_z
 _atom_site_occupancy
 _atom_site_pbe_cm5_charge
 _atom_site_pbe_ddec_charge
 _atom_site_pbe_ddec_spin_density
 _atom_site_pbe_ddec_sum_bond_order
 _atom_site_pbe_magmom
Gd  Gd0  1  0.44114108  0.00657201  0.82378154  1  1.457845  2.025648  0.000192  2.16345  0.0
Gd  Gd1  1  0.55885847  0.99342641  0.17622087  1  1.457853  2.02565  0.000192  2.163425  0.0
Cu  Cu2  1  0.99999778  0.00000006  0.00000055  1  0.825942  0.645407  -0.702926  2.451398  -0.527
Cu  Cu3  1  0.00000158  0.00000074  0.49999970  1  0.818367  0.633124  0.70229  2.444936  0.527
H  H4  1  0.95690695  0.74883858  0.47601337  1  0.126995  0.105234  0.00113  0.991895  0.002
H  H5  1  0.04309301  0.25116540  0.52398916  1  0.126971  0.105202  0.00113  0.991869  0.002
H  H6  1  0.06134503  0.47124245  0.56967937  1  0.111355  0.116098  0.000696  1.027995  0.001
H  H7  1  0.93865489  0.52876375  0.43032253  1  0.111343  0.116074  0.000696  1.027948  0.001
H  H8  1  0.33714141  0.50982316  0.77386587  1  0.115354  0.12731  0.00062  1.012411  0.001
H  H9  1  0.66286850  0.49017280  0.22613027  1  0.115342  0.127324  0.00062  1.012318  0.001
H  H10  1  0.22587193  0.78473295  0.67322283  1  0.12096  0.08948  0.001057  1.030694  0.002
H  H11  1  0.77413609  0.21526529  0.32677473  1  0.120928  0.089512  0.001058  1.030663  0.002
H  H12  1  0.02509639  0.25567260  0.82597458  1  0.122859  0.100316  -0.001078  1.024611  -0.002
H  H13  1  0.97489936  0.74432812  0.17402957  1  0.12285  0.100286  -0.001077  1.024613  -0.002
H  H14  1  0.87487201  0.53616523  0.77151842  1  0.109026  0.119473  -0.000685  1.016279  -0.001
H  H15  1  0.12512128  0.46383875  0.22848174  1  0.109044  0.119516  -0.000685  1.016351  -0.001
H  H16  1  0.58325744  0.48968300  0.06085832  1  0.116673  0.123887  -0.000647  1.005366  -0.001
H  H17  1  0.41673827  0.51031537  0.93914126  1  0.116681  0.123898  -0.000647  1.005398  -0.001
H  H18  1  0.74454293  0.21251260  0.10686870  1  0.127931  0.097639  -0.001135  1.013384  -0.002
H  H19  1  0.25545275  0.78749027  0.89313224  1  0.127941  0.097638  -0.001135  1.01338  -0.002
H  H20  1  0.49626776  0.84026802  0.65042107  1  0.325366  0.41067  1e-06  0.883989  0.0
H  H21  1  0.50373169  0.15973478  0.34957838  1  0.325383  0.41064  1e-06  0.88402  0.0
H  H22  1  0.34227123  0.94848021  0.59844217  1  0.299639  0.41646  -1.7e-05  0.904695  0.0
H  H23  1  0.65772825  0.05152035  0.40155703  1  0.299664  0.416497  -1.7e-05  0.904642  0.0
C  C24  1  0.80579022  0.02668797  0.70952233  1  0.101899  0.00334  0.000446  3.895692  0.001
C  C25  1  0.19421070  0.97331376  0.29047892  1  0.1019  0.003386  0.000445  3.895761  0.001
C  C26  1  0.81357947  0.01357810  0.83345462  1  0.097047  -0.004558  0.000346  3.920741  0.0
C  C27  1  0.18641915  0.98642035  0.16654881  1  0.097077  -0.004573  0.000346  3.920781  0.0
C  C28  1  0.70212296  0.03957772  0.62736738  1  0.228984  0.628761  -1e-06  4.201052  0.0
C  C29  1  0.29788031  0.96041827  0.37262812  1  0.228974  0.628711  -1e-06  4.201121  0.0
C  C30  1  0.72840072  0.99451781  0.94420677  1  0.230161  0.626678  0.000178  4.197113  0.0
C  C31  1  0.27159735  0.00548164  0.05579212  1  0.230185  0.626696  0.000178  4.197061  0.0
C  C32  1  0.04171624  0.69107080  0.54200617  1  0.05389  0.089447  6.1e-05  3.91805  -0.001
C  C33  1  0.95828708  0.30892983  0.45799674  1  0.053954  0.089583  6.1e-05  3.918034  -0.001
C  C34  1  0.09850901  0.53925713  0.59380370  1  -0.074418  -0.139681  0.004445  3.936588  0.005
C  C35  1  0.90149188  0.46074455  0.40619583  1  -0.074384  -0.13968  0.004445  3.93651  0.005
C  C36  1  0.20515226  0.47264125  0.67924530  1  0.011942  0.035611  -0.002779  3.92303  -0.003
C  C37  1  0.79485568  0.52736141  0.32075102  1  0.011921  0.035639  -0.002778  3.922964  -0.003
C  C38  1  0.25332469  0.56067522  0.70822575  1  -0.070453  -0.126592  0.004407  3.915521  0.005
C  C39  1  0.74668424  0.43932297  0.29176993  1  -0.070434  -0.126584  0.004407  3.915388  0.005
C  C40  1  0.19243870  0.71134710  0.65292417  1  0.049998  0.091469  -0.000189  3.922209  -0.001
C  C41  1  0.80756837  0.28865342  0.34707552  1  0.050043  0.0914  -0.000189  3.922328  -0.001
C  C42  1  0.26918108  0.30971246  0.73996621  1  0.190296  0.55635  5.7e-05  4.251894  0.0
C  C43  1  0.73082027  0.69028807  0.26003182  1  0.190258  0.556327  5.7e-05  4.251973  0.0
C  C44  1  0.92718991  0.31288972  0.87614245  1  0.048265  0.087357  -0.000283  3.915733  0.001
C  C45  1  0.07280581  0.68711093  0.12385911  1  0.048235  0.087348  -0.000283  3.915736  0.001
C  C46  1  0.84417222  0.46653778  0.84620331  1  -0.074087  -0.131496  -0.004543  3.922197  -0.005
C  C47  1  0.15582020  0.53346405  0.15380021  1  -0.074004  -0.131479  -0.004543  3.922292  -0.005
C  C48  1  0.71799949  0.53198721  0.91269162  1  0.009727  0.029025  0.002627  3.922984  0.003
C  C49  1  0.28199489  0.46800790  0.08731085  1  0.009628  0.028922  0.002628  3.922857  0.003
C  C50  1  0.68136419  0.44087691  0.00860646  1  -0.06839  -0.12736  -0.00442  3.930006  -0.005
C  C51  1  0.31863256  0.55911933  0.99139704  1  -0.068406  -0.127319  -0.004421  3.929902  -0.005
C  C52  1  0.76999314  0.28822853  0.03431197  1  0.055617  0.098781  5.1e-05  3.915822  0.001
C  C53  1  0.23000066  0.71176982  0.96568620  1  0.055665  0.098797  5.1e-05  3.915784  0.001
C  C54  1  0.62138709  0.69669552  0.87883374  1  0.195948  0.569655  -0.000102  4.227892  0.0
C  C55  1  0.37860730  0.30330189  0.12117157  1  0.195963  0.569674  -0.000102  4.227744  0.0
N  N56  1  0.92702970  0.03090400  0.65889506  1  -0.266473  -0.188184  0.049745  3.714331  0.062
N  N57  1  0.07297027  0.96909773  0.34110635  1  -0.266465  -0.188182  0.049745  3.714313  0.062
N  N58  1  0.00641319  0.02290060  0.74133861  1  -0.094244  -0.047711  0.000403  3.196676  0.001
N  N59  1  0.99358631  0.97710001  0.25866233  1  -0.094262  -0.047768  0.000403  3.196713  0.001
N  N60  1  0.93791695  0.01214666  0.84651586  1  -0.258001  -0.172107  -0.049853  3.706824  -0.063
N  N61  1  0.06208159  0.98785394  0.15348437  1  -0.257996  -0.172029  -0.04985  3.706775  -0.063
N  N62  1  0.08811960  0.77483696  0.57209087  1  -0.332173  -0.20529  0.069858  3.595706  0.09
N  N63  1  0.91188410  0.22516690  0.42790758  1  -0.332185  -0.205329  0.069858  3.595833  0.09
N  N64  1  0.88954723  0.22632091  0.96842636  1  -0.336478  -0.210347  -0.070226  3.601073  -0.09
N  N65  1  0.11045130  0.77368194  0.03157497  1  -0.336483  -0.210313  -0.070225  3.600963  -0.09
O  O66  1  0.65802172  0.77594244  0.78963255  1  -0.370186  -0.625147  0.000159  2.178818  0.0
O  O67  1  0.34197260  0.22405939  0.21037152  1  -0.370166  -0.625079  0.000159  2.17885  0.0
O  O68  1  0.50444450  0.75210692  0.93805258  1  -0.3661  -0.606942  0.000181  2.205274  0.0
O  O69  1  0.49555134  0.24788939  0.06195367  1  -0.366157  -0.607052  0.000181  2.205129  0.0
O  O70  1  0.34994250  0.26266920  0.82927953  1  -0.371428  -0.603067  -0.00018  2.188847  0.0
O  O71  1  0.65006173  0.73732908  0.17071865  1  -0.371395  -0.603041  -0.000179  2.188915  0.0
O  O72  1  0.24357023  0.22387275  0.69997097  1  -0.368966  -0.617241  -0.000224  2.141921  0.0
O  O73  1  0.75643164  0.77612670  0.30002902  1  -0.368977  -0.61727  -0.000224  2.141903  0.0
O  O74  1  0.57441191  0.07585106  0.66476932  1  -0.409276  -0.66597  2.7e-05  2.288873  0.0
O  O75  1  0.42558857  0.92414049  0.33522615  1  -0.409295  -0.665997  2.7e-05  2.288909  0.0
O  O76  1  0.75153039  0.01791192  0.52265822  1  -0.302741  -0.560898  -0.002237  2.184713  -0.002
O  O77  1  0.24847427  0.98208741  0.47733785  1  -0.302731  -0.560837  -0.002238  2.184707  -0.002
O  O78  1  0.61494742  0.98723496  0.93960159  1  -0.394741  -0.675769  0.000282  2.419637  0.0
O  O79  1  0.38505056  0.01276661  0.06039323  1  -0.394717  -0.675766  0.000282  2.41975  0.0
O  O80  1  0.77250060  0.98400903  0.04550475  1  -0.349591  -0.636473  0.001967  2.258926  0.002
O  O81  1  0.22749831  0.01599480  0.95449101  1  -0.349641  -0.636491  0.001967  2.258768  0.002
O  O82  1  0.39925544  0.90497312  0.67444153  1  -0.622205  -0.843166  -2.3e-05  2.020218  0.0
O  O83  1  0.60074315  0.09502529  0.32556017  1  -0.62224  -0.843148  -2.3e-05  2.020245  0.0
