# generated using pymatgen
data_CdH26C34Br2(N5O2)2
_symmetry_space_group_name_H-M   'P 1'
_cell_length_a   8.39352849
_cell_length_b   9.16449404
_cell_length_c   11.91159354
_cell_angle_alpha   78.35422524
_cell_angle_beta   75.34793170
_cell_angle_gamma   87.02503779
_symmetry_Int_Tables_number   1
_chemical_formula_structural   CdH26C34Br2(N5O2)2
_chemical_formula_sum   'Cd1 H26 C34 Br2 N10 O4'
_cell_volume   868.22253722
_cell_formula_units_Z   1
loop_
 _symmetry_equiv_pos_site_id
 _symmetry_equiv_pos_as_xyz
  1  'x, y, z'
loop_
 _atom_site_type_symbol
 _atom_site_label
 _atom_site_symmetry_multiplicity
 _atom_site_fract_x
 _atom_site_fract_y
 _atom_site_fract_z
 _atom_site_occupancy
 _atom_site_hle17_bader_spin_density
 _atom_site_hle17_ddec_charge
 _atom_site_hle17_ddec_spin_density
 _atom_site_hle17_ddec_sum_bond_order
 _atom_site_hle17_magmom
 _atom_site_hse06_10hf_bader_spin_density
 _atom_site_hse06_10hf_ddec_charge
 _atom_site_hse06_10hf_ddec_spin_density
 _atom_site_hse06_10hf_ddec_sum_bond_order
 _atom_site_hse06_10hf_magmom
 _atom_site_hse06_bader_spin_density
 _atom_site_hse06_ddec_charge
 _atom_site_hse06_ddec_spin_density
 _atom_site_hse06_ddec_sum_bond_order
 _atom_site_hse06_magmom
 _atom_site_pbe_bader_spin_density
 _atom_site_pbe_cm5_charge
 _atom_site_pbe_ddec_charge
 _atom_site_pbe_ddec_spin_density
 _atom_site_pbe_ddec_sum_bond_order
 _atom_site_pbe_magmom
Cd  Cd0  1  0.50000235  0.50000027  0.99999957  1  0  0.872537  0  1.949844  0  0  0.676178  0  2.406394  0  0  0.726648  0  2.370035  0  0  0.613927  0.638087  0  2.435282  0
H  H1  1  0.18981430  0.79214030  0.63617464  1  0  0.295874  0  0.889545  0  0  0.281444  0  0.947212  0  0  0.289364  0  0.940509  0  0  0.32039  0.275802  0  0.952017  0
H  H2  1  0.81018637  0.20785859  0.36382776  1  0  0.295882  0  0.88954  0  0  0.28145  0  0.947198  0  0  0.289372  0  0.940495  0  0  0.320391  0.275804  0  0.952008  0
H  H3  1  0.94809268  0.69512311  0.57960383  1  0  0.287817  0  0.906467  0  0  0.268153  0  0.974739  0  0  0.276274  0  0.967972  0  0  0.314929  0.262207  0  0.979955  0
H  H4  1  0.05190799  0.30487462  0.42039540  1  0  0.287801  0  0.906455  0  0  0.268128  0  0.974734  0  0  0.276249  0  0.967967  0  0  0.314923  0.262182  0  0.979946  0
H  H5  1  0.32796039  0.64117647  0.78334111  1  0  0.093548  0  0.932151  0  0  0.101  0  0.996103  0  0  0.103743  0  0.994316  0  0  0.117101  0.09904  0  0.997464  0
H  H6  1  0.67204150  0.35882463  0.21665902  1  0  0.09357  0  0.932077  0  0  0.101  0  0.996062  0  0  0.103742  0  0.994275  0  0  0.117098  0.099037  0  0.997423  0
H  H7  1  0.24485253  0.11542073  0.75882971  1  0  0.123943  0  0.945184  0  0  0.132245  0  1.00709  0  0  0.135584  0  1.004607  0  0  0.114757  0.129958  0  1.008626  0
H  H8  1  0.75514321  0.88458151  0.24117302  1  0  0.123929  0  0.945207  0  0  0.132266  0  1.007068  0  0  0.135604  0  1.004586  0  0  0.114759  0.129977  0  1.008603  0
H  H9  1  0.31689328  0.08944237  0.95278181  1  0  0.095723  0  1.002183  0  0  0.102323  0  1.07104  0  0  0.105702  0  1.069488  0  0  0.089971  0.098102  0  1.075524  0
H  H10  1  0.68310246  0.91055876  0.04722194  1  0  0.095725  0  1.002127  0  0  0.102275  0  1.07105  0  0  0.105652  0  1.069502  0  0  0.089968  0.098052  0  1.075536  0
H  H11  1  0.40882527  0.83754056  0.04756625  1  0  0.071865  0  0.958504  0  0  0.077422  0  1.031409  0  0  0.079508  0  1.030444  0  0  0.108621  0.076387  0  1.031224  0
H  H12  1  0.59117416  0.16245942  0.95243366  1  0  0.071877  0  0.958495  0  0  0.07743  0  1.031403  0  0  0.079516  0  1.030439  0  0  0.108613  0.076396  0  1.03122  0
H  H13  1  0.36019822  0.13980561  0.31914831  1  0  0.112291  0  0.95475  0  0  0.117473  0  1.022972  0  0  0.120706  0  1.022173  0  0  0.109101  0.115587  0  1.02273  0
H  H14  1  0.63980244  0.86019437  0.68085139  1  0  0.112296  0  0.954739  0  0  0.117472  0  1.022973  0  0  0.120707  0  1.022161  0  0  0.109097  0.115593  0  1.022713  0
H  H15  1  0.25664766  0.08093364  0.15335969  1  0  0.095967  0  0.991582  0  0  0.103216  0  1.057197  0  0  0.106462  0  1.055049  0  0  0.093035  0.100859  0  1.058819  0
H  H16  1  0.74334931  0.91906858  0.84664198  1  0  0.095973  0  0.991564  0  0  0.103221  0  1.057177  0  0  0.106467  0  1.055029  0  0  0.093035  0.100861  0  1.0588  0
H  H17  1  0.06683845  0.85787179  0.19738513  1  0  0.122463  0  0.926668  0  0  0.133162  0  0.98236  0  0  0.137052  0  0.980157  0  0  0.117737  0.130152  0  0.984466  0
H  H18  1  0.93315852  0.14212819  0.80261607  1  0  0.122452  0  0.926651  0  0  0.13316  0  0.982331  0  0  0.137053  0  0.980124  0  0  0.117742  0.130153  0  0.984439  0
H  H19  1  0.78574175  0.59978203  0.76537362  1  0  0.085354  0  0.980532  0  0  0.090807  0  1.051527  0  0  0.094602  0  1.048005  0  0  0.098274  0.088351  0  1.053284  0
H  H20  1  0.21426137  0.40021681  0.23462415  1  0  0.085333  0  0.980614  0  0  0.090809  0  1.051583  0  0  0.094602  0  1.048061  0  0  0.098275  0.088353  0  1.053332  0
H  H21  1  0.40293409  0.31067179  0.81063386  1  0  0.07615  0  0.989066  0  0  0.082051  0  1.060173  0  0  0.084785  0  1.058021  0  0  0.098739  0.080218  0  1.061581  0
H  H22  1  0.59706657  0.68932931  0.18936649  1  0  0.076208  0  0.98904  0  0  0.082117  0  1.060137  0  0  0.08485  0  1.057988  0  0  0.098769  0.080282  0  1.061544  0
H  H23  1  0.47800391  0.29698155  0.59486716  1  0  0.121797  0  0.957914  0  0  0.130371  0  1.0186  0  0  0.133837  0  1.017092  0  0  0.107874  0.127898  0  1.019594  0
H  H24  1  0.52199675  0.70301843  0.40513338  1  0  0.121739  0  0.957935  0  0  0.130391  0  1.018534  0  0  0.133805  0  1.017091  0  0  0.107881  0.127916  0  1.019531  0
H  H25  1  0.70917450  0.46019071  0.45694333  1  0  0.114346  0  0.957928  0  0  0.123447  0  1.018835  0  0  0.127526  0  1.01532  0  0  0.107868  0.120395  0  1.021683  0
H  H26  1  0.29082616  0.53980815  0.54305655  1  0  0.114345  0  0.957909  0  0  0.123445  0  1.018813  0  0  0.127525  0  1.015298  0  0  0.107868  0.120394  0  1.021664  0
C  C27  1  0.32763354  0.74362174  0.81709018  1  0  0.037814  0  3.670238  0  0  0.001417  0  3.923295  0  0  0.006309  0  3.939121  0  0  0.04629  -0.001668  0  3.912947  0
C  C28  1  0.67236465  0.25638047  0.18290960  1  0  0.037812  0  3.670132  0  0  0.001418  0  3.923214  0  0  0.006311  0  3.939036  0  0  0.046295  -0.00167  0  3.912864  0
C  C29  1  0.28398670  0.88041291  0.75487530  1  0  0.207956  0  3.79403  0  0  0.206807  0  4.042377  0  0  0.210649  0  4.063815  0  0  0.103883  0.203895  0  4.027704  0
C  C30  1  0.71601273  0.11958819  0.24512527  1  0  0.207916  0  3.794078  0  0  0.206761  0  4.042429  0  0  0.210607  0  4.063867  0  0  0.103857  0.20385  0  4.027744  0
C  C31  1  0.28119370  0.00783214  0.80339862  1  0  -0.095727  0  3.66436  0  0  -0.12148  0  3.910326  0  0  -0.120697  0  3.928127  0  0  -0.068806  -0.121368  0  3.898002  0
C  C32  1  0.71880204  0.99216897  0.19660345  1  0  -0.095752  0  3.66447  0  0  -0.121524  0  3.910413  0  0  -0.120741  0  3.928212  0  0  -0.068828  -0.121412  0  3.898082  0
C  C33  1  0.32336408  0.99270509  0.91105458  1  0  -0.110401  0  3.745287  0  0  -0.117282  0  3.987979  0  0  -0.123959  0  4.010958  0  0  -0.086023  -0.112683  0  3.974625  0
C  C34  1  0.67663165  0.00729712  0.08894648  1  0  -0.11035  0  3.745173  0  0  -0.117206  0  3.987889  0  0  -0.123881  0  4.010864  0  0  -0.086033  -0.112609  0  3.974536  0
C  C35  1  0.37049114  0.85356219  0.96502893  1  0  0.10698  0  3.721081  0  0  0.076617  0  3.971281  0  0  0.081579  0  3.991624  0  0  0.037038  0.073017  0  3.957394  0
C  C36  1  0.62950459  0.14644002  0.03497212  1  0  0.106841  0  3.721157  0  0  0.076494  0  3.971334  0  0  0.081456  0  3.991676  0  0  0.036972  0.072894  0  3.957448  0
C  C37  1  0.28277735  0.99319324  0.54812967  1  0  0.516906  0  3.834483  0  0  0.468088  0  4.128063  0  0  0.496633  0  4.126784  0  0  0.243249  0.448945  0  4.128479  0
C  C38  1  0.71722208  0.00680564  0.45187127  1  0  0.517013  0  3.834328  0  0  0.468203  0  4.127911  0  0  0.496749  0  4.12663  0  0  0.243298  0.449057  0  4.128325  0
C  C39  1  0.22394423  0.95989193  0.44666420  1  0  0.115923  0  3.765782  0  0  0.118896  0  4.018338  0  0  0.120016  0  4.036067  0  0  0.118137  0.117409  0  4.006932  0
C  C40  1  0.77606013  0.04010582  0.55333520  1  0  0.115989  0  3.765659  0  0  0.118923  0  4.018272  0  0  0.120044  0  4.036  0  0  0.118141  0.117439  0  4.006869  0
C  C41  1  0.27680383  0.04705960  0.33344280  1  0  -0.094078  0  3.659965  0  0  -0.11968  0  3.912199  0  0  -0.122203  0  3.931192  0  0  -0.071964  -0.118336  0  3.899225  0
C  C42  1  0.72319807  0.95293816  0.66655788  1  0  -0.094097  0  3.659871  0  0  -0.119693  0  3.912127  0  0  -0.122214  0  3.931122  0  0  -0.071957  -0.11835  0  3.899163  0
C  C43  1  0.22062743  0.01156684  0.24165882  1  0  -0.008274  0  3.691487  0  0  -0.022364  0  3.941132  0  0  -0.02175  0  3.959624  0  0  -0.066567  -0.022413  0  3.928083  0
C  C44  1  0.77937323  0.98843315  0.75834171  1  0  -0.008276  0  3.691471  0  0  -0.022356  0  3.941104  0  0  -0.021743  0  3.959597  0  0  -0.066548  -0.022398  0  3.928061  0
C  C45  1  0.11363018  0.89132095  0.26574124  1  0  -0.091714  0  3.656453  0  0  -0.116869  0  3.903765  0  0  -0.119379  0  3.922606  0  0  -0.066835  -0.115272  0  3.891256  0
C  C46  1  0.88636925  0.10867903  0.73425868  1  0  -0.091722  0  3.656399  0  0  -0.116897  0  3.9037  0  0  -0.11941  0  3.922541  0  0  -0.066876  -0.115305  0  3.891194  0
C  C47  1  0.06343913  0.81337729  0.38225918  1  0  0.105848  0  3.771963  0  0  0.109658  0  4.022898  0  0  0.109771  0  4.043477  0  0  0.114449  0.109095  0  4.009501  0
C  C48  1  0.93656277  0.18662156  0.61773964  1  0  0.105825  0  3.772003  0  0  0.109661  0  4.0229  0  0  0.109775  0  4.043485  0  0  0.114453  0.109107  0  4.009492  0
C  C49  1  0.93831552  0.68987947  0.41465100  1  0  0.504087  0  3.849955  0  0  0.455958  0  4.14398  0  0  0.483746  0  4.144768  0  0  0.239253  0.437456  0  4.14282  0
C  C50  1  0.06168638  0.31011937  0.58534699  1  0  0.504121  0  3.85008  0  0  0.455972  0  4.1441  0  0  0.48376  0  4.144888  0  0  0.239227  0.437469  0  4.142939  0
C  C51  1  0.76317736  0.54405489  0.59996931  1  0  0.21599  0  3.790459  0  0  0.214565  0  4.036578  0  0  0.219382  0  4.058464  0  0  0.103753  0.210346  0  4.021957  0
C  C52  1  0.23682455  0.45594175  0.40003071  1  0  0.215989  0  3.79044  0  0  0.214498  0  4.036636  0  0  0.219316  0  4.058522  0  0  0.103752  0.210278  0  4.022012  0
C  C53  1  0.71912741  0.53630693  0.72291969  1  0  0.020974  0  3.680747  0  0  -0.012927  0  3.930617  0  0  -0.010011  0  3.948617  0  0  0.036402  -0.01406  0  3.916841  0
C  C54  1  0.28087448  0.46369192  0.27707914  1  0  0.020948  0  3.680822  0  0  -0.012953  0  3.930704  0  0  -0.010035  0  3.948703  0  0  0.036372  -0.014085  0  3.916922  0
C  C55  1  0.50823342  0.37101632  0.74845315  1  0  0.08937  0  3.722665  0  0  0.056967  0  3.978758  0  0  0.061513  0  3.998289  0  0  0.026939  0.054235  0  3.964821  0
C  C56  1  0.49176847  0.62898365  0.25154633  1  0  0.089325  0  3.722582  0  0  0.056897  0  3.978735  0  0  0.061446  0  3.998252  0  0  0.026917  0.054169  0  3.964791  0
C  C57  1  0.54830924  0.36767242  0.62819250  1  0  -0.101187  0  3.740438  0  0  -0.113082  0  3.994021  0  0  -0.118407  0  4.016544  0  0  -0.087012  -0.109544  0  3.978583  0
C  C58  1  0.45169266  0.63232645  0.37180800  1  0  -0.101129  0  3.740311  0  0  -0.113078  0  3.993877  0  0  -0.118363  0  4.016433  0  0  -0.087012  -0.10954  0  3.978437  0
C  C59  1  0.67648304  0.45623491  0.55180647  1  0  -0.107951  0  3.68281  0  0  -0.135561  0  3.936609  0  0  -0.136047  0  3.954359  0  0  -0.078028  -0.135143  0  3.925218  0
C  C60  1  0.32352009  0.54376061  0.44819351  1  0  -0.107941  0  3.682727  0  0  -0.13553  0  3.936552  0  0  -0.136016  0  3.954288  0  0  -0.078052  -0.135114  0  3.925161  0
Br  Br61  1  0.78070371  0.65035889  0.97592707  1  0  -0.582921  0  0.841358  0  0  -0.53244  0  1.086116  0  0  -0.549421  0  1.065828  0  0  -0.32755  -0.519659  0  1.102425  0
Br  Br62  1  0.21929201  0.34964884  0.02406972  1  0  -0.582906  0  0.841335  0  0  -0.532445  0  1.086106  0  0  -0.549427  0  1.065816  0  0  -0.327555  -0.519667  0  1.102415  0
N  N63  1  0.37246349  0.73131462  0.91857398  1  0  -0.293387  0  3.282242  0  0  -0.21934  0  3.542423  0  0  -0.236673  0  3.563428  0  0  -0.321582  -0.206935  0  3.529675  0
N  N64  1  0.62753593  0.26868871  0.08142623  1  0  -0.293282  0  3.282263  0  0  -0.219225  0  3.542412  0  0  -0.236558  0  3.563418  0  0  -0.321526  -0.206821  0  3.52966  0
N  N65  1  0.24394163  0.88353059  0.64716182  1  0  -0.436551  0  3.377805  0  0  -0.385075  0  3.617753  0  0  -0.406929  0  3.627393  0  0  -0.3962  -0.370106  0  3.610902  0
N  N66  1  0.75605780  0.11647052  0.35283959  1  0  -0.436555  0  3.377693  0  0  -0.385059  0  3.617624  0  0  -0.406922  0  3.62727  0  0  -0.39613  -0.370086  0  3.610765  0
N  N67  1  0.11832734  0.84665673  0.47066725  1  0  -0.366735  0  3.182098  0  0  -0.334828  0  3.440106  0  0  -0.344874  0  3.457489  0  0  -0.310018  -0.327446  0  3.428714  0
N  N68  1  0.88167333  0.15333991  0.52933299  1  0  -0.36675  0  3.182126  0  0  -0.334832  0  3.440122  0  0  -0.344881  0  3.457507  0  0  -0.310001  -0.327449  0  3.428723  0
N  N69  1  0.89079431  0.64004013  0.53425774  1  0  -0.428248  0  3.415531  0  0  -0.377757  0  3.659166  0  0  -0.400017  0  3.670243  0  0  -0.397957  -0.361927  0  3.651721  0
N  N70  1  0.10920635  0.35995871  0.46574047  1  0  -0.42824  0  3.415471  0  0  -0.377699  0  3.659097  0  0  -0.399956  0  3.670168  0  0  -0.397933  -0.36187  0  3.651652  0
N  N71  1  0.59352929  0.45371177  0.79484734  1  0  -0.306591  0  3.282932  0  0  -0.229934  0  3.5406  0  0  -0.247713  0  3.563604  0  0  -0.325812  -0.217048  0  3.524116  0
N  N72  1  0.40647260  0.54628822  0.20515298  1  0  -0.306582  0  3.282894  0  0  -0.22992  0  3.540563  0  0  -0.247699  0  3.563567  0  0  -0.325803  -0.217037  0  3.524075  0
O  O73  1  0.35775113  0.10908123  0.53972288  1  0  -0.520289  0  1.940911  0  0  -0.479885  0  2.164652  0  0  -0.499708  0  2.160538  0  0  -0.283627  -0.466235  0  2.167004  0
O  O74  1  0.64225077  0.89091652  0.46027696  1  0  -0.520337  0  1.940866  0  0  -0.479953  0  2.164633  0  0  -0.499763  0  2.160488  0  0  -0.283667  -0.4663  0  2.166973  0
O  O75  1  0.88632160  0.64409343  0.33977204  1  0  -0.511217  0  1.892911  0  0  -0.471686  0  2.101895  0  0  -0.490296  0  2.09621  0  0  -0.286764  -0.458568  0  2.10511  0
O  O76  1  0.11367906  0.35590542  0.66022701  1  0  -0.511239  0  1.893013  0  0  -0.471697  0  2.101992  0  0  -0.490309  0  2.096318  0  0  -0.286753  -0.45858  0  2.10521  0
