# generated using pymatgen
data_ZnH12C18(N3O2)2
_symmetry_space_group_name_H-M   'P 1'
_cell_length_a   15.87638843
_cell_length_b   17.07192783
_cell_length_c   19.77940520
_cell_angle_alpha   89.99988863
_cell_angle_beta   90.00015897
_cell_angle_gamma   89.99997133
_symmetry_Int_Tables_number   1
_chemical_formula_structural   ZnH12C18(N3O2)2
_chemical_formula_sum   'Zn8 H96 C144 N48 O32'
_cell_volume   5361.02101154
_cell_formula_units_Z   8
loop_
 _symmetry_equiv_pos_site_id
 _symmetry_equiv_pos_as_xyz
  1  'x, y, z'
loop_
 _atom_site_type_symbol
 _atom_site_label
 _atom_site_symmetry_multiplicity
 _atom_site_fract_x
 _atom_site_fract_y
 _atom_site_fract_z
 _atom_site_occupancy
 _atom_site_pbe_bader_charge
 _atom_site_pbe_bader_spin_density
 _atom_site_pbe_cm5_charge
 _atom_site_pbe_ddec_charge
 _atom_site_pbe_ddec_spin_density
 _atom_site_pbe_ddec_sum_bond_order
 _atom_site_pbe_magmom
Zn  Zn0  1  0.52181399  0.99318448  0.21489852  1  1.266786  0  0.696311  0.762504  0  2.418845  0
Zn  Zn1  1  0.97818567  0.49318336  0.28510126  1  1.266916  0  0.696299  0.762433  0  2.418908  0
Zn  Zn2  1  0.52181448  0.50681757  0.78510061  1  1.266827  0  0.696288  0.762449  0  2.418895  0
Zn  Zn3  1  0.97818592  0.00681718  0.71489973  1  1.266769  0  0.696303  0.76248  0  2.418956  0
Zn  Zn4  1  0.47818694  0.00681663  0.78510098  1  1.266706  0  0.696301  0.76244  0  2.418938  0
Zn  Zn5  1  0.02181589  0.50681600  0.71490178  1  1.266897  0  0.696306  0.762527  0  2.418943  0
Zn  Zn6  1  0.47818519  0.49318414  0.21489991  1  1.266956  0  0.696296  0.762506  0  2.418776  0
Zn  Zn7  1  0.02181501  0.99318276  0.28510028  1  1.266856  0  0.696273  0.762445  0  2.418909  0
H  H8  1  0.41875972  0.25443033  0.11165022  1  0.184711  0  0.146909  0.118897  0  0.966453  0
H  H9  1  0.37734194  0.09943301  0.27519213  1  0.202522  0  0.160208  0.138082  0  0.946052  0
H  H10  1  0.35974454  0.34600923  0.20315435  1  0.13292  0  0.104257  0.118811  0  1.0525  0
H  H11  1  0.22709727  0.42127666  0.22588384  1  0.100099  0  0.101241  0.101813  0  1.031664  0
H  H12  1  0.09435939  0.20655222  0.26288347  1  0.120058  0  0.103878  0.110482  0  1.021557  0
H  H13  1  0.22402424  0.13007345  0.23555121  1  0.046424  0  0.102038  0.109745  0  1.042538  0
H  H14  1  0.69264387  0.00987323  0.11795628  1  0.140406  0  0.159969  0.134855  0  0.949352  0
H  H15  1  0.54182744  0.89609149  0.97091934  1  0.208107  0  0.137862  0.110842  0  1.032315  0
H  H16  1  0.61887819  0.99831316  0.90148803  1  0.135463  0  0.104714  0.11199  0  1.050656  0
H  H17  1  0.72997725  0.00702800  0.81397018  1  0.121383  0  0.104239  0.106096  0  1.045321  0
H  H18  1  0.91839101  0.94596686  0.96072527  1  0.095705  0  0.114232  0.121603  0  0.98411  0
H  H19  1  0.80601753  0.93173284  0.04935094  1  0.088153  0  0.111533  0.120561  0  0.992221  0
H  H20  1  0.08124250  0.75442694  0.38834834  1  0.184728  0  0.14689  0.118855  0  0.966457  0
H  H21  1  0.12265596  0.59943231  0.22480518  1  0.202274  0  0.160196  0.138113  0  0.946044  0
H  H22  1  0.14025763  0.84600661  0.29684305  1  0.132976  0  0.104276  0.118719  0  1.052521  0
H  H23  1  0.27290297  0.92127461  0.27411444  1  0.100185  0  0.101255  0.101876  0  1.031551  0
H  H24  1  0.40564033  0.70654843  0.23711720  1  0.120009  0  0.103879  0.110442  0  1.021583  0
H  H25  1  0.27597615  0.63007025  0.26444656  1  0.046378  0  0.102004  0.109721  0  1.04257  0
H  H26  1  0.80735605  0.50987619  0.38204583  1  0.14032  0  0.159994  0.134878  0  0.949359  0
H  H27  1  0.95817338  0.39609329  0.52908237  1  0.208037  0  0.137879  0.110859  0  1.032241  0
H  H28  1  0.88111817  0.49831309  0.59851300  1  0.135331  0  0.104695  0.111943  0  1.050605  0
H  H29  1  0.77001811  0.50702849  0.68602965  1  0.121396  0  0.104284  0.106194  0  1.045183  0
H  H30  1  0.58160664  0.44596588  0.53927129  1  0.095708  0  0.114294  0.121727  0  0.984016  0
H  H31  1  0.69398343  0.43173206  0.45064844  1  0.088124  0  0.111537  0.120521  0  0.992204  0
H  H32  1  0.41875981  0.24557340  0.88835053  1  0.184669  0  0.146935  0.118907  0  0.96644  0
H  H33  1  0.37734389  0.40056956  0.72480550  1  0.2023  0  0.160223  0.138148  0  0.946053  0
H  H34  1  0.35974247  0.15399218  0.79684577  1  0.132984  0  0.104261  0.118773  0  1.052531  0
H  H35  1  0.22709579  0.07872188  0.77411699  1  0.100093  0  0.101214  0.101756  0  1.031603  0
H  H36  1  0.09435767  0.29344814  0.73711859  1  0.120026  0  0.103871  0.110436  0  1.021608  0
H  H37  1  0.22402006  0.36992861  0.76444760  1  0.046414  0  0.102011  0.109772  0  1.042526  0
H  H38  1  0.69264381  0.49012452  0.88204508  1  0.140313  0  0.159991  0.1349  0  0.949342  0
H  H39  1  0.54182589  0.60390762  0.02908034  1  0.208089  0  0.137885  0.110859  0  1.032254  0
H  H40  1  0.61887882  0.50168825  0.09851132  1  0.135483  0  0.104691  0.1119  0  1.050741  0
H  H41  1  0.72997477  0.49297265  0.18603279  1  0.121293  0  0.104273  0.106199  0  1.045193  0
H  H42  1  0.91838889  0.55403149  0.03927676  1  0.095816  0  0.114224  0.121592  0  0.984179  0
H  H43  1  0.80601856  0.56826439  0.95065085  1  0.0882  0  0.111561  0.120603  0  0.992204  0
H  H44  1  0.08124289  0.74557180  0.61165132  1  0.184689  0  0.14694  0.118934  0  0.966419  0
H  H45  1  0.12265809  0.90056933  0.77519509  1  0.202248  0  0.160171  0.138086  0  0.946029  0
H  H46  1  0.14025649  0.65399503  0.70315725  1  0.132963  0  0.10428  0.118778  0  1.05251  0
H  H47  1  0.27290007  0.57872404  0.72588565  1  0.100161  0  0.101285  0.101875  0  1.031577  0
H  H48  1  0.40564311  0.79344898  0.76288066  1  0.119997  0  0.103898  0.11046  0  1.021577  0
H  H49  1  0.27597942  0.86992781  0.73555152  1  0.046443  0  0.10201  0.109772  0  1.042532  0
H  H50  1  0.80735696  0.99012573  0.61795545  1  0.140348  0  0.159976  0.134852  0  0.949355  0
H  H51  1  0.95817525  0.10390843  0.47092111  1  0.208157  0  0.137885  0.110849  0  1.03226  0
H  H52  1  0.88111922  0.00168691  0.40148777  1  0.135548  0  0.10473  0.111962  0  1.050677  0
H  H53  1  0.77002112  0.99296993  0.31396952  1  0.121411  0  0.104259  0.106185  0  1.045172  0
H  H54  1  0.58161165  0.05403191  0.46072578  1  0.095738  0  0.11424  0.121626  0  0.984138  0
H  H55  1  0.69398244  0.06826509  0.54935090  1  0.088156  0  0.111543  0.120585  0  0.992206  0
H  H56  1  0.58124373  0.74557313  0.88834776  1  0.1847  0  0.146902  0.118907  0  0.966527  0
H  H57  1  0.62265836  0.90056927  0.72480434  1  0.202411  0  0.160191  0.138118  0  0.946018  0
H  H58  1  0.64025639  0.65399305  0.79684162  1  0.132991  0  0.104275  0.11871  0  1.052503  0
H  H59  1  0.77290366  0.57872504  0.77411364  1  0.100157  0  0.101263  0.10185  0  1.031551  0
H  H60  1  0.90564280  0.79345007  0.73711553  1  0.119965  0  0.103854  0.110421  0  1.021569  0
H  H61  1  0.77597795  0.86993118  0.76444526  1  0.046338  0  0.101991  0.109686  0  1.042603  0
H  H62  1  0.30735580  0.99012731  0.88204474  1  0.140358  0  0.159982  0.134868  0  0.949354  0
H  H63  1  0.45817286  0.10391138  0.02908067  1  0.208099  0  0.137871  0.110837  0  1.032353  0
H  H64  1  0.38111896  0.00168854  0.09850945  1  0.135301  0  0.104718  0.112016  0  1.050528  0
H  H65  1  0.27002368  0.99297194  0.18603034  1  0.121374  0  0.104237  0.106066  0  1.045278  0
H  H66  1  0.08160803  0.05403601  0.03927423  1  0.095783  0  0.114283  0.121703  0  0.984083  0
H  H67  1  0.19398151  0.06827003  0.95064957  1  0.088116  0  0.111523  0.120505  0  0.992264  0
H  H68  1  0.91875969  0.24557359  0.61165318  1  0.184722  0  0.146918  0.118889  0  0.966548  0
H  H69  1  0.87734245  0.40056763  0.77519584  1  0.202424  0  0.160177  0.138071  0  0.946044  0
H  H70  1  0.85974456  0.15399451  0.70315645  1  0.132957  0  0.104279  0.118735  0  1.052533  0
H  H71  1  0.72709796  0.07872182  0.72588556  1  0.100101  0  0.101259  0.101873  0  1.031542  0
H  H72  1  0.59436060  0.29345093  0.76288382  1  0.120024  0  0.103847  0.110354  0  1.021596  0
H  H73  1  0.72402415  0.36993028  0.73555396  1  0.046365  0  0.102009  0.109674  0  1.042622  0
H  H74  1  0.19264173  0.49012669  0.61795569  1  0.140382  0  0.160008  0.134908  0  0.949312  0
H  H75  1  0.04182062  0.60390490  0.47092068  1  0.208144  0  0.137868  0.110814  0  1.032305  0
H  H76  1  0.11887772  0.50168686  0.40148903  1  0.135868  0  0.104686  0.111909  0  1.050702  0
H  H77  1  0.22997526  0.49297321  0.31396934  1  0.121344  0  0.10425  0.106165  0  1.045269  0
H  H78  1  0.41838736  0.55403523  0.46072568  1  0.095772  0  0.114197  0.121587  0  0.984119  0
H  H79  1  0.30601435  0.56826847  0.54935056  1  0.088117  0  0.111542  0.120593  0  0.992175  0
H  H80  1  0.58123923  0.75442889  0.11165099  1  0.18465  0  0.146927  0.118916  0  0.966454  0
H  H81  1  0.62265956  0.59943097  0.27519249  1  0.202478  0  0.160211  0.138101  0  0.946055  0
H  H82  1  0.64025657  0.84600660  0.20315373  1  0.132956  0  0.104259  0.118756  0  1.052585  0
H  H83  1  0.77290451  0.92127279  0.22587998  1  0.1002  0  0.101237  0.101793  0  1.031668  0
H  H84  1  0.90564326  0.70655004  0.26287940  1  0.120003  0  0.103891  0.110467  0  1.02155  0
H  H85  1  0.77597898  0.63007075  0.23555140  1  0.046399  0  0.101991  0.109751  0  1.042572  0
H  H86  1  0.30735586  0.50987484  0.11795594  1  0.140396  0  0.15999  0.134904  0  0.949299  0
H  H87  1  0.45817630  0.39609233  0.97092270  1  0.208173  0  0.137905  0.110869  0  1.032334  0
H  H88  1  0.38112148  0.49831345  0.90149122  1  0.135504  0  0.104704  0.111991  0  1.050673  0
H  H89  1  0.27002301  0.50702905  0.81397228  1  0.121436  0  0.104239  0.106053  0  1.045276  0
H  H90  1  0.08161015  0.44596611  0.96072628  1  0.095749  0  0.11423  0.12162  0  0.984141  0
H  H91  1  0.19398237  0.43173087  0.04935169  1  0.088138  0  0.111537  0.120534  0  0.992249  0
H  H92  1  0.91875993  0.25442639  0.38834868  1  0.184703  0  0.146945  0.118944  0  0.966448  0
H  H93  1  0.87734473  0.09943237  0.22480492  1  0.202367  0  0.160187  0.138067  0  0.946094  0
H  H94  1  0.85974318  0.34600726  0.29684276  1  0.132966  0  0.104279  0.118746  0  1.052556  0
H  H95  1  0.72709645  0.42127473  0.27411486  1  0.100158  0  0.101239  0.101827  0  1.031573  0
H  H96  1  0.59435845  0.20654979  0.23711732  1  0.120005  0  0.10385  0.110429  0  1.021582  0
H  H97  1  0.72402151  0.13006979  0.26444748  1  0.046388  0  0.101966  0.109704  0  1.042585  0
H  H98  1  0.19264397  0.00987363  0.38204658  1  0.140366  0  0.159994  0.13487  0  0.9494  0
H  H99  1  0.04182505  0.89609210  0.52907991  1  0.208089  0  0.137887  0.110877  0  1.032253  0
H  H100  1  0.11888171  0.99831011  0.59851324  1  0.135479  0  0.104713  0.111936  0  1.050726  0
H  H101  1  0.22997666  0.00702533  0.68603301  1  0.121279  0  0.104246  0.10617  0  1.045222  0
H  H102  1  0.41839054  0.94596393  0.53927574  1  0.095775  0  0.114292  0.121681  0  0.98407  0
H  H103  1  0.30601786  0.93173251  0.45065062  1  0.088187  0  0.111549  0.120575  0  0.992186  0
C  C104  1  0.42471392  0.20460288  0.14528778  1  0.960624  0  0.165842  0.108433  0  3.911753  0
C  C105  1  0.40234754  0.12591044  0.22962353  1  0.994351  0  0.180508  0.118651  0  3.848741  0
C  C106  1  0.29825517  0.23466446  0.21666388  1  0.226304  0  0.092081  0.16766  0  4.013108  0
C  C107  1  0.30033748  0.31630140  0.21342913  1  -0.003932  0  -0.093258  -0.169645  0  3.97396  0
C  C108  1  0.22687557  0.35759141  0.22753915  1  -0.005523  0  -0.082208  -0.076716  0  3.974986  0
C  C109  1  0.15261124  0.31832402  0.24547594  1  -0.085715  0  -0.013268  -0.026032  0  3.943315  0
C  C110  1  0.15246703  0.23641118  0.24910605  1  -0.0005  0  -0.077178  -0.062005  0  3.948984  0
C  C111  1  0.22509941  0.19394966  0.23455264  1  0.028237  0  -0.093972  -0.177185  0  3.98919  0
C  C112  1  0.07374761  0.36338923  0.26163606  1  1.603433  0  0.199055  0.57403  0  4.213741  0
C  C113  1  0.64072748  0.97974967  0.09367409  1  1.022822  0  0.173629  0.098995  0  3.865568  0
C  C114  1  0.56240036  0.92146754  0.01865612  1  0.921076  0  0.1536  0.080147  0  3.902996  0
C  C115  1  0.70616959  0.96224624  0.97939444  1  0.274418  0  0.088766  0.156648  0  4.039036  0
C  C116  1  0.68389048  0.98371080  0.91369576  1  -0.070411  0  -0.091256  -0.162365  0  3.976295  0
C  C117  1  0.74672458  0.98955728  0.86506140  1  -0.014681  0  -0.079179  -0.072295  0  3.959297  0
C  C118  1  0.83102527  0.97529875  0.88185675  1  0.011849  0  -0.01148  -0.024427  0  3.946623  0
C  C119  1  0.85232369  0.95593881  0.94856810  1  0.020768  0  -0.070845  -0.062466  0  3.950633  0
C  C120  1  0.78998214  0.94869530  0.99774040  1  -0.083888  0  -0.090482  -0.175088  0  3.998369  0
C  C121  1  0.89890838  0.98077855  0.82918840  1  1.534634  0  0.195134  0.563106  0  4.215643  0
C  C122  1  0.07528644  0.70459781  0.35470884  1  0.960831  0  0.165938  0.10853  0  3.91185  0
C  C123  1  0.09765160  0.62590848  0.27037475  1  0.994493  0  0.180413  0.118482  0  3.848813  0
C  C124  1  0.20174580  0.73466007  0.28333270  1  0.226296  0  0.092024  0.167654  0  4.013045  0
C  C125  1  0.19966533  0.81629877  0.28656579  1  -0.003849  0  -0.093205  -0.169401  0  3.97368  0
C  C126  1  0.27312659  0.85758760  0.27245722  1  -0.005444  0  -0.082247  -0.076876  0  3.974803  0
C  C127  1  0.34738905  0.81832022  0.25452201  1  -0.085834  0  -0.013208  -0.025886  0  3.94313  0
C  C128  1  0.34753205  0.73640856  0.25089204  1  -0.000742  0  -0.077239  -0.06202  0  3.949024  0
C  C129  1  0.27490032  0.69394763  0.26544350  1  0.028264  0  -0.093936  -0.177249  0  3.989435  0
C  C130  1  0.42625518  0.86338250  0.23836182  1  1.603394  0  0.198937  0.57381  0  4.213687  0
C  C131  1  0.85927471  0.47975711  0.40632824  1  1.0229  0  0.173677  0.098964  0  3.865497  0
C  C132  1  0.93760124  0.42147361  0.48134631  1  0.921137  0  0.153651  0.08015  0  3.902927  0
C  C133  1  0.79382804  0.46224755  0.52060614  1  0.27444  0  0.088687  0.156465  0  4.039083  0
C  C134  1  0.81610652  0.48371078  0.58630529  1  -0.070151  0  -0.091159  -0.162149  0  3.976177  0
C  C135  1  0.75327115  0.48955542  0.63493964  1  -0.014697  0  -0.079243  -0.072469  0  3.959302  0
C  C136  1  0.66896920  0.47529814  0.61814229  1  0.011867  0  -0.011508  -0.02445  0  3.946862  0
C  C137  1  0.64767269  0.45593778  0.55143047  1  0.020772  0  -0.070921  -0.062711  0  3.950726  0
C  C138  1  0.71001613  0.44869494  0.50225869  1  -0.08404  0  -0.090405  -0.174816  0  3.998152  0
C  C139  1  0.60109051  0.48078488  0.67080962  1  1.534574  0  0.195119  0.563209  0  4.215623  0
C  C140  1  0.42471323  0.29540143  0.85471248  1  0.961653  0  0.165893  0.108526  0  3.911691  0
C  C141  1  0.40234777  0.37409153  0.77037466  1  0.994477  0  0.180412  0.118452  0  3.84882  0
C  C142  1  0.29825236  0.26533815  0.78333661  1  0.226308  0  0.091993  0.167524  0  4.013134  0
C  C143  1  0.30033410  0.18369945  0.78657136  1  -0.003999  0  -0.093207  -0.169497  0  3.974043  0
C  C144  1  0.22687657  0.14241065  0.77246219  1  -0.005446  0  -0.082216  -0.076686  0  3.974967  0
C  C145  1  0.15261090  0.18167866  0.75452574  1  -0.085742  0  -0.013219  -0.026028  0  3.943162  0
C  C146  1  0.15246663  0.26359091  0.75089664  1  -0.000706  0  -0.077197  -0.061926  0  3.948946  0
C  C147  1  0.22509840  0.30605181  0.76544920  1  0.028291  0  -0.093909  -0.17721  0  3.989314  0
C  C148  1  0.07374849  0.13661407  0.73836090  1  1.603447  0  0.199038  0.573941  0  4.213937  0
C  C149  1  0.64072523  0.52024412  0.90632733  1  1.022918  0  0.173671  0.098914  0  3.865562  0
C  C150  1  0.56239897  0.57852746  0.98134360  1  0.92166  0  0.153634  0.080141  0  3.902901  0
C  C151  1  0.70616931  0.53775396  0.02060712  1  0.275037  0  0.088757  0.156642  0  4.038937  0
C  C152  1  0.68388917  0.51628941  0.08630626  1  -0.07051  0  -0.091232  -0.162213  0  3.97641  0
C  C153  1  0.74672093  0.51044349  0.13494126  1  -0.014482  0  -0.07919  -0.072448  0  3.95923  0
C  C154  1  0.83102407  0.52470257  0.11814509  1  0.011688  0  -0.011509  -0.024388  0  3.946639  0
C  C155  1  0.85232351  0.54406249  0.05143429  1  0.020612  0  -0.070837  -0.062456  0  3.950622  0
C  C156  1  0.78998116  0.55130369  0.00225984  1  -0.084347  0  -0.090498  -0.175163  0  3.998302  0
C  C157  1  0.89890484  0.51921864  0.17081460  1  1.534623  0  0.195015  0.562893  0  4.215885  0
C  C158  1  0.07528881  0.79540035  0.64529030  1  0.960821  0  0.165858  0.108464  0  3.911701  0
C  C159  1  0.09765485  0.87409376  0.72962546  1  0.994439  0  0.18048  0.118553  0  3.84865  0
C  C160  1  0.20174654  0.76533919  0.71666673  1  0.22629  0  0.092013  0.167653  0  4.013151  0
C  C161  1  0.19966359  0.68370108  0.71343313  1  -0.003809  0  -0.093236  -0.1695  0  3.973691  0
C  C162  1  0.27312491  0.64241046  0.72754389  1  -0.005514  0  -0.082246  -0.076811  0  3.974864  0
C  C163  1  0.34738931  0.68167664  0.74547723  1  -0.085811  0  -0.013273  -0.025982  0  3.943267  0
C  C164  1  0.34753479  0.76358888  0.74910670  1  -0.000527  0  -0.077199  -0.06192  0  3.948854  0
C  C165  1  0.27490237  0.80605102  0.73455407  1  0.02813  0  -0.093944  -0.177364  0  3.989306  0
C  C166  1  0.42625174  0.63660905  0.76163710  1  1.603275  0  0.199062  0.57402  0  4.213968  0
C  C167  1  0.85927390  0.02024699  0.59367349  1  1.022876  0  0.173626  0.099015  0  3.865418  0
C  C168  1  0.93760013  0.07852987  0.51865763  1  0.921623  0  0.153645  0.080177  0  3.903014  0
C  C169  1  0.79383186  0.03775307  0.47939242  1  0.275047  0  0.088724  0.156592  0  4.038926  0
C  C170  1  0.81610760  0.01628925  0.41369331  1  -0.070477  0  -0.091214  -0.162191  0  3.976408  0
C  C171  1  0.75327522  0.01044405  0.36505933  1  -0.014811  0  -0.079208  -0.072455  0  3.95927  0
C  C172  1  0.66897207  0.02470254  0.38185750  1  0.011926  0  -0.011546  -0.024544  0  3.946669  0
C  C173  1  0.64767703  0.04406115  0.44856877  1  0.020675  0  -0.070825  -0.062438  0  3.950811  0
C  C174  1  0.71001875  0.05130455  0.49774119  1  -0.084413  0  -0.090483  -0.175091  0  3.998288  0
C  C175  1  0.60109067  0.01921993  0.32918750  1  1.534584  0  0.19509  0.563049  0  4.215782  0
C  C176  1  0.57528827  0.79540000  0.85471071  1  0.960752  0  0.165871  0.10849  0  3.911819  0
C  C177  1  0.59765276  0.87409184  0.77037244  1  0.994235  0  0.180414  0.118459  0  3.848815  0
C  C178  1  0.70174513  0.76533842  0.78333310  1  0.226291  0  0.092082  0.167664  0  4.013176  0
C  C179  1  0.69966471  0.68370264  0.78656379  1  -0.003717  0  -0.093275  -0.169434  0  3.973722  0
C  C180  1  0.77312788  0.64241205  0.77245429  1  -0.005507  0  -0.082225  -0.076775  0  3.974809  0
C  C181  1  0.84739032  0.68167944  0.75452053  1  -0.085827  0  -0.013219  -0.025928  0  3.943242  0
C  C182  1  0.84753201  0.76359228  0.75088941  1  -0.000669  0  -0.077197  -0.061979  0  3.948884  0
C  C183  1  0.77489900  0.80605380  0.76544181  1  0.028225  0  -0.093954  -0.177222  0  3.989341  0
C  C184  1  0.92625584  0.63661657  0.73836142  1  1.603167  0  0.198873  0.573673  0  4.213927  0
C  C185  1  0.35927219  0.02025086  0.90632642  1  1.022896  0  0.173648  0.098986  0  3.865583  0
C  C186  1  0.43760057  0.07853182  0.98134439  1  0.920993  0  0.153605  0.080103  0  3.90305  0
C  C187  1  0.29382819  0.03775546  0.02060557  1  0.274414  0  0.088719  0.15658  0  4.038996  0
C  C188  1  0.31610856  0.01629149  0.08630425  1  -0.070214  0  -0.091223  -0.162368  0  3.97625  0
C  C189  1  0.25327635  0.01044559  0.13493911  1  -0.014709  0  -0.079165  -0.072201  0  3.959161  0
C  C190  1  0.16897377  0.02470588  0.11814325  1  0.011522  0  -0.011462  -0.02442  0  3.946618  0
C  C191  1  0.14767472  0.04406582  0.05143140  1  0.021082  0  -0.07098  -0.062819  0  3.950768  0
C  C192  1  0.21001564  0.05130757  0.00225911  1  -0.083964  0  -0.090372  -0.174762  0  3.998171  0
C  C193  1  0.10109255  0.01922140  0.17081312  1  1.534634  0  0.195033  0.563067  0  4.215856  0
C  C194  1  0.92471638  0.29539921  0.64529167  1  0.960789  0  0.165915  0.108552  0  3.911893  0
C  C195  1  0.90234996  0.37409146  0.72962779  1  0.994556  0  0.180445  0.118556  0  3.848684  0
C  C196  1  0.79825513  0.26533870  0.71666782  1  0.226246  0  0.092067  0.167629  0  4.01318  0
C  C197  1  0.80033623  0.18370117  0.71343473  1  -0.003806  0  -0.093251  -0.169453  0  3.973864  0
C  C198  1  0.72687686  0.14241117  0.72754279  1  -0.005512  0  -0.082227  -0.076848  0  3.97495  0
C  C199  1  0.65261251  0.18167914  0.74547901  1  -0.085679  0  -0.013207  -0.025985  0  3.943094  0
C  C200  1  0.65246951  0.26359197  0.74910898  1  -0.000713  0  -0.077266  -0.061956  0  3.948886  0
C  C201  1  0.72510250  0.30605290  0.73455752  1  0.028306  0  -0.093902  -0.177097  0  3.989456  0
C  C202  1  0.57374512  0.13661276  0.76163819  1  1.603523  0  0.199056  0.574082  0  4.213478  0
C  C203  1  0.14072370  0.52024576  0.59367379  1  1.022875  0  0.173636  0.098962  0  3.865553  0
C  C204  1  0.06239528  0.57852575  0.51865572  1  0.921224  0  0.15365  0.080225  0  3.902795  0
C  C205  1  0.20616722  0.53775239  0.47939437  1  0.27446  0  0.088737  0.156631  0  4.038925  0
C  C206  1  0.18388812  0.51628858  0.41369421  1  -0.070913  0  -0.091243  -0.162253  0  3.976338  0
C  C207  1  0.24672159  0.51044218  0.36506037  1  -0.014568  0  -0.079161  -0.072371  0  3.959366  0
C  C208  1  0.33102291  0.52470415  0.38185620  1  0.011754  0  -0.01147  -0.024336  0  3.946725  0
C  C209  1  0.35232131  0.54406334  0.44856802  1  0.020685  0  -0.070891  -0.062603  0  3.950748  0
C  C210  1  0.28998039  0.55130384  0.49774132  1  -0.083736  0  -0.09042  -0.175035  0  3.998266  0
C  C211  1  0.39890538  0.51922209  0.32918786  1  1.534629  0  0.195058  0.563011  0  4.216084  0
C  C212  1  0.57528644  0.70460144  0.14528955  1  0.960778  0  0.165857  0.108466  0  3.911816  0
C  C213  1  0.59765315  0.62590841  0.22962484  1  0.99428  0  0.180443  0.118615  0  3.848814  0
C  C214  1  0.70174605  0.73466120  0.21666290  1  0.22626  0  0.092005  0.167614  0  4.013179  0
C  C215  1  0.69966368  0.81629757  0.21342815  1  -0.003882  0  -0.093224  -0.169586  0  3.973892  0
C  C216  1  0.77312751  0.85758754  0.22753681  1  -0.005474  0  -0.082141  -0.076614  0  3.974953  0
C  C217  1  0.84738877  0.81832187  0.24546972  1  -0.085812  0  -0.013319  -0.026033  0  3.943335  0
C  C218  1  0.84753493  0.73640903  0.24910134  1  -0.000856  0  -0.077222  -0.062018  0  3.948874  0
C  C219  1  0.77490126  0.69394696  0.23455182  1  0.028474  0  -0.093919  -0.177244  0  3.989242  0
C  C220  1  0.92625559  0.86338763  0.26162849  1  1.603536  0  0.19908  0.574051  0  4.213506  0
C  C221  1  0.35927633  0.47975465  0.09367622  1  1.022668  0  0.173676  0.098992  0  3.865588  0
C  C222  1  0.43760196  0.42147015  0.01865641  1  0.921403  0  0.153651  0.080243  0  3.90277  0
C  C223  1  0.29383099  0.46224540  0.97939592  1  0.274476  0  0.088723  0.156696  0  4.038937  0
C  C224  1  0.31611050  0.48371170  0.91369729  1  -0.070453  0  -0.091237  -0.162425  0  3.976394  0
C  C225  1  0.25327622  0.48955880  0.86506380  1  -0.014444  0  -0.079137  -0.072189  0  3.959239  0
C  C226  1  0.16897497  0.47529679  0.88185694  1  0.011687  0  -0.011485  -0.024372  0  3.94657  0
C  C227  1  0.14767679  0.45593628  0.94857027  1  0.020769  0  -0.070938  -0.062707  0  3.950814  0
C  C228  1  0.21001788  0.44869333  0.99774270  1  -0.084074  0  -0.090402  -0.174896  0  3.998357  0
C  C229  1  0.10109294  0.48077955  0.82918996  1  1.534587  0  0.195082  0.563102  0  4.215709  0
C  C230  1  0.92471527  0.20460018  0.35470970  1  0.960813  0  0.16589  0.108476  0  3.91172  0
C  C231  1  0.90234986  0.12591028  0.27037303  1  0.99469  0  0.180484  0.118647  0  3.848766  0
C  C232  1  0.79825439  0.23466134  0.28333378  1  0.226264  0  0.092021  0.167662  0  4.013194  0
C  C233  1  0.80033608  0.31629828  0.28656688  1  -0.003879  0  -0.093226  -0.169472  0  3.97385  0
C  C234  1  0.72687601  0.35758831  0.27245764  1  -0.005474  0  -0.082207  -0.076754  0  3.974839  0
C  C235  1  0.65261162  0.31832214  0.25452328  1  -0.085785  0  -0.013269  -0.026056  0  3.94326  0
C  C236  1  0.65246803  0.23640872  0.25089331  1  -0.000865  0  -0.077177  -0.061917  0  3.948945  0
C  C237  1  0.72510045  0.19394775  0.26544492  1  0.028461  0  -0.093883  -0.177222  0  3.98943  0
C  C238  1  0.57374541  0.36338504  0.23836392  1  1.603531  0  0.199003  0.573944  0  4.213742  0
C  C239  1  0.14072640  0.97975178  0.40632753  1  1.022893  0  0.173647  0.098932  0  3.86552  0
C  C240  1  0.06239828  0.92147241  0.48134289  1  0.921673  0  0.153639  0.080123  0  3.902937  0
C  C241  1  0.20616970  0.96224395  0.52060810  1  0.274931  0  0.08876  0.15655  0  4.038976  0
C  C242  1  0.18389144  0.98370601  0.58630872  1  -0.070441  0  -0.091237  -0.162213  0  3.976373  0
C  C243  1  0.24672445  0.98955063  0.63494371  1  -0.01459  0  -0.079122  -0.072235  0  3.959154  0
C  C244  1  0.33102634  0.97528803  0.61814604  1  0.011678  0  -0.011574  -0.024701  0  3.946884  0
C  C245  1  0.35232453  0.95593469  0.55143275  1  0.020919  0  -0.070944  -0.062592  0  3.950755  0
C  C246  1  0.28998218  0.94869363  0.50226084  1  -0.084356  0  -0.090477  -0.175024  0  3.998306  0
C  C247  1  0.39890963  0.98076947  0.67081352  1  1.534548  0  0.195162  0.563184  0  4.215877  0
N  N248  1  0.48238699  0.14934373  0.14118160  1  -0.714243  0  -0.232661  -0.226233  0  3.210607  0
N  N249  1  0.46803245  0.10010026  0.19522926  1  -0.802472  0  -0.239774  -0.182726  0  3.549037  0
N  N250  1  0.37227010  0.19168630  0.19935711  1  -1.257471  0  -0.207607  -0.004749  0  3.770323  0
N  N251  1  0.51725606  0.92597372  0.07438828  1  -0.692914  0  -0.221459  -0.19441  0  3.176088  0
N  N252  1  0.56719822  0.96307140  0.12146657  1  -0.77435  0  -0.234056  -0.172325  0  3.547017  0
N  N253  1  0.64068203  0.95436772  0.02842190  1  -1.257392  0  -0.210921  -0.01029  0  3.783301  0
N  N254  1  0.01761339  0.64934219  0.35881613  1  -0.714287  0  -0.232712  -0.226272  0  3.210529  0
N  N255  1  0.03196544  0.60009884  0.30476805  1  -0.802507  0  -0.239715  -0.18263  0  3.548955  0
N  N256  1  0.12772901  0.69168484  0.30064106  1  -1.257482  0  -0.207639  -0.004763  0  3.770253  0
N  N257  1  0.98274743  0.42598458  0.42561566  1  -0.692833  0  -0.221586  -0.194509  0  3.17631  0
N  N258  1  0.93280588  0.46308238  0.37853731  1  -0.774533  0  -0.233997  -0.172195  0  3.546957  0
N  N259  1  0.85931829  0.45437033  0.47157947  1  -1.257373  0  -0.210978  -0.01029  0  3.783293  0
N  N260  1  0.48238692  0.35065938  0.85881778  1  -0.714314  0  -0.232727  -0.226344  0  3.210646  0
N  N261  1  0.46803342  0.39990169  0.80476958  1  -0.802456  0  -0.239717  -0.182578  0  3.549032  0
N  N262  1  0.37226922  0.30831569  0.80064304  1  -1.258243  0  -0.207624  -0.004757  0  3.770133  0
N  N263  1  0.51725322  0.57401662  0.92561438  1  -0.692892  0  -0.221545  -0.194446  0  3.176207  0
N  N264  1  0.56719523  0.53692008  0.87853570  1  -0.774501  0  -0.234041  -0.172256  0  3.547129  0
N  N265  1  0.64068062  0.54562958  0.97157901  1  -1.257889  0  -0.210944  -0.010234  0  3.783198  0
N  N266  1  0.01761446  0.85065950  0.64118188  1  -0.714186  0  -0.232705  -0.226315  0  3.210475  0
N  N267  1  0.03196730  0.89990285  0.69522999  1  -0.802477  0  -0.239707  -0.182592  0  3.548878  0
N  N268  1  0.12773092  0.80831563  0.69935871  1  -1.257466  0  -0.207625  -0.004788  0  3.770316  0
N  N269  1  0.98274652  0.07401889  0.57438736  1  -0.692913  0  -0.221586  -0.194462  0  3.176159  0
N  N270  1  0.93280263  0.03692286  0.62146509  1  -0.774464  0  -0.233976  -0.172294  0  3.546991  0
N  N271  1  0.85931976  0.04563084  0.52842075  1  -1.257891  0  -0.210926  -0.010312  0  3.783245  0
N  N272  1  0.51761646  0.85065914  0.85881638  1  -0.71416  0  -0.232672  -0.226283  0  3.21057  0
N  N273  1  0.53196911  0.89990203  0.80476873  1  -0.802456  0  -0.239694  -0.182547  0  3.549025  0
N  N274  1  0.62773020  0.80831657  0.80064037  1  -1.25744  0  -0.207608  -0.004799  0  3.77035  0
N  N275  1  0.48274487  0.07402388  0.92561274  1  -0.692871  0  -0.221443  -0.194283  0  3.176013  0
N  N276  1  0.43280271  0.03692679  0.87853395  1  -0.774393  0  -0.234094  -0.172402  0  3.546963  0
N  N277  1  0.35931701  0.04563339  0.97157761  1  -1.25727  0  -0.210933  -0.010286  0  3.783302  0
N  N278  1  0.98238943  0.35065892  0.64118590  1  -0.714243  0  -0.232762  -0.22636  0  3.21059  0
N  N279  1  0.96803486  0.39990228  0.69523348  1  -0.802559  0  -0.239741  -0.182653  0  3.549018  0
N  N280  1  0.87227129  0.30831627  0.69935996  1  -1.257641  0  -0.207576  -0.004762  0  3.770303  0
N  N281  1  0.01724972  0.57401654  0.57438789  1  -0.692625  0  -0.221561  -0.194444  0  3.176083  0
N  N282  1  0.06719379  0.53692107  0.62146573  1  -0.774633  0  -0.234049  -0.172361  0  3.547093  0
N  N283  1  0.14067823  0.54562844  0.52842206  1  -1.257834  0  -0.210916  -0.010294  0  3.783217  0
N  N284  1  0.51761086  0.64934408  0.14118425  1  -0.714271  0  -0.23266  -0.226231  0  3.210572  0
N  N285  1  0.53196688  0.60010002  0.19523194  1  -0.802439  0  -0.239729  -0.182718  0  3.549121  0
N  N286  1  0.62773108  0.69168367  0.19935697  1  -1.257477  0  -0.207643  -0.004818  0  3.770286  0
N  N287  1  0.48274897  0.42598040  0.07439119  1  -0.69277  0  -0.221612  -0.194569  0  3.175882  0
N  N288  1  0.43280507  0.46307986  0.12146684  1  -0.774568  0  -0.234091  -0.172353  0  3.547069  0
N  N289  1  0.35932094  0.45437095  0.02842453  1  -1.257748  0  -0.210859  -0.010267  0  3.783311  0
N  N290  1  0.98239088  0.14934278  0.35881408  1  -0.714283  0  -0.232672  -0.226218  0  3.210599  0
N  N291  1  0.96803678  0.10010002  0.30476597  1  -0.802531  0  -0.23981  -0.182798  0  3.549173  0
N  N292  1  0.87227064  0.19168373  0.30064079  1  -1.257722  0  -0.207624  -0.004812  0  3.770214  0
N  N293  1  0.01725252  0.92598047  0.42561264  1  -0.692973  0  -0.221586  -0.194504  0  3.17615  0
N  N294  1  0.06719515  0.96307708  0.37853491  1  -0.774466  0  -0.234052  -0.172278  0  3.547  0
N  N295  1  0.14068054  0.95436852  0.47157926  1  -1.257883  0  -0.210912  -0.010169  0  3.783106  0
O  O296  1  0.00484090  0.32905334  0.26872116  1  -1.186538  0  -0.329065  -0.560832  0  2.134473  0
O  O297  1  0.08429407  0.43874509  0.26737278  1  -1.17283  0  -0.340395  -0.561652  0  2.337822  0
O  O298  1  0.87332751  0.99711655  0.76789481  1  -1.164218  0  -0.344049  -0.563692  0  2.273538  0
O  O299  1  0.97430213  0.96984067  0.84442050  1  -1.154146  0  -0.332849  -0.548772  0  2.073655  0
O  O300  1  0.49516191  0.82904484  0.23127526  1  -1.186668  0  -0.32893  -0.560689  0  2.134399  0
O  O301  1  0.41570993  0.93873955  0.23262699  1  -1.172533  0  -0.340398  -0.561599  0  2.337881  0
O  O302  1  0.62667451  0.49711864  0.73210318  1  -1.16464  0  -0.344017  -0.563722  0  2.27344  0
O  O303  1  0.52569235  0.46984766  0.65558006  1  -1.153728  0  -0.332906  -0.54889  0  2.073637  0
O  O304  1  0.00484363  0.17095058  0.73127564  1  -1.186583  0  -0.329004  -0.560705  0  2.134563  0
O  O305  1  0.08429246  0.06125879  0.73262369  1  -1.172663  0  -0.340451  -0.561719  0  2.338027  0
O  O306  1  0.87332105  0.50288943  0.23210864  1  -1.164444  0  -0.344009  -0.56361  0  2.27337  0
O  O307  1  0.97430043  0.53015004  0.15558317  1  -1.153942  0  -0.332777  -0.548668  0  2.073816  0
O  O308  1  0.49515847  0.67094082  0.76871926  1  -1.186423  0  -0.329093  -0.560859  0  2.134665  0
O  O309  1  0.41570025  0.56125142  0.76737291  1  -1.172784  0  -0.340367  -0.561646  0  2.337861  0
O  O310  1  0.62667699  0.00289085  0.26789348  1  -1.164291  0  -0.344031  -0.563663  0  2.273497  0
O  O311  1  0.52569634  0.03015367  0.34441739  1  -1.154077  0  -0.332821  -0.548739  0  2.073774  0
O  O312  1  0.99516192  0.67095481  0.73127835  1  -1.186407  0  -0.328907  -0.560626  0  2.134494  0
O  O313  1  0.91571189  0.56126188  0.73262723  1  -1.172595  0  -0.340379  -0.56157  0  2.33802  0
O  O314  1  0.12667783  0.00288456  0.23210419  1  -1.164305  0  -0.344002  -0.56365  0  2.273516  0
O  O315  1  0.02569754  0.03015869  0.15558153  1  -1.15411  0  -0.332824  -0.548793  0  2.073776  0
O  O316  1  0.50483965  0.17095101  0.76872020  1  -1.186685  0  -0.328986  -0.560778  0  2.13427  0
O  O317  1  0.58429226  0.06125863  0.76737352  1  -1.172608  0  -0.340461  -0.561727  0  2.337955  0
O  O318  1  0.37332075  0.50289068  0.26789531  1  -1.164326  0  -0.344053  -0.5637  0  2.273585  0
O  O319  1  0.47430102  0.53015463  0.34441994  1  -1.154031  0  -0.332781  -0.548732  0  2.073824  0
O  O320  1  0.99516171  0.82905171  0.26871324  1  -1.186636  0  -0.329058  -0.560808  0  2.13427  0
O  O321  1  0.91570910  0.93874408  0.26736418  1  -1.172738  0  -0.340386  -0.561655  0  2.337759  0
O  O322  1  0.12667736  0.49711227  0.76789491  1  -1.164272  0  -0.34406  -0.563781  0  2.273413  0
O  O323  1  0.02569861  0.46984757  0.84442037  1  -1.154053  0  -0.332796  -0.548727  0  2.073726  0
O  O324  1  0.50483931  0.32904975  0.23128176  1  -1.18669  0  -0.328989  -0.56077  0  2.134479  0
O  O325  1  0.58429186  0.43874150  0.23262709  1  -1.172668  0  -0.340407  -0.561632  0  2.337893  0
O  O326  1  0.37332520  0.99710031  0.73210703  1  -1.164221  0  -0.343999  -0.563622  0  2.273516  0
O  O327  1  0.47430333  0.96983573  0.65558161  1  -1.154219  0  -0.332884  -0.548827  0  2.073792  0
