# generated using pymatgen
data_ZnH4C5BrN7
_symmetry_space_group_name_H-M   'P 1'
_cell_length_a   6.05220943
_cell_length_b   7.65859501
_cell_length_c   21.16358092
_cell_angle_alpha   90.00002298
_cell_angle_beta   89.99975713
_cell_angle_gamma   99.48876032
_symmetry_Int_Tables_number   1
_chemical_formula_structural   ZnH4C5BrN7
_chemical_formula_sum   'Zn4 H16 C20 Br4 N28'
_cell_volume   967.54048664
_cell_formula_units_Z   4
loop_
 _symmetry_equiv_pos_site_id
 _symmetry_equiv_pos_as_xyz
  1  'x, y, z'
loop_
 _atom_site_type_symbol
 _atom_site_label
 _atom_site_symmetry_multiplicity
 _atom_site_fract_x
 _atom_site_fract_y
 _atom_site_fract_z
 _atom_site_occupancy
 _atom_site_hle17_bader_spin_density
 _atom_site_hle17_ddec_charge
 _atom_site_hle17_ddec_spin_density
 _atom_site_hle17_ddec_sum_bond_order
 _atom_site_hle17_magmom
 _atom_site_hse06_10hf_bader_spin_density
 _atom_site_hse06_10hf_ddec_charge
 _atom_site_hse06_10hf_ddec_spin_density
 _atom_site_hse06_10hf_ddec_sum_bond_order
 _atom_site_hse06_10hf_magmom
 _atom_site_hse06_bader_spin_density
 _atom_site_hse06_ddec_charge
 _atom_site_hse06_ddec_spin_density
 _atom_site_hse06_ddec_sum_bond_order
 _atom_site_hse06_magmom
 _atom_site_pbe_bader_spin_density
 _atom_site_pbe_cm5_charge
 _atom_site_pbe_ddec_charge
 _atom_site_pbe_ddec_spin_density
 _atom_site_pbe_ddec_sum_bond_order
 _atom_site_pbe_magmom
Zn  Zn0  1  0.74111221  0.93759048  0.48147118  1  0  0.938621  0  2.0546  0  0  0.76986  0  2.532403  0  0  0.805119  0  2.493101  0  0  0.720969  0.745897  0  2.558877  0
Zn  Zn1  1  0.25888757  0.56240880  0.98147037  1  0  0.938669  0  2.054543  0  0  0.769908  0  2.532344  0  0  0.805169  0  2.493036  0  0  0.720996  0.745939  0  2.558825  0
Zn  Zn2  1  0.25889456  0.06241410  0.51853147  1  0  0.938795  0  2.054573  0  0  0.770041  0  2.532443  0  0  0.805319  0  2.493084  0  0  0.721103  0.746079  0  2.558932  0
Zn  Zn3  1  0.74110462  0.43758914  0.01852756  1  0  0.938685  0  2.054656  0  0  0.76993  0  2.532501  0  0  0.805198  0  2.493166  0  0  0.721019  0.745964  0  2.558986  0
H  H4  1  0.97172999  0.85603165  0.36270074  1  0  0.089391  0  0.941062  0  0  0.09358  0  1.013835  0  0  0.096661  0  1.010992  0  0  0.112425  0.091336  0  1.015935  0
H  H5  1  0.02828086  0.64397802  0.86270209  1  0  0.089408  0  0.941125  0  0  0.093562  0  1.013952  0  0  0.096653  0  1.011097  0  0  0.112429  0.091316  0  1.016055  0
H  H6  1  0.02826109  0.14396893  0.63729719  1  0  0.089335  0  0.940965  0  0  0.093486  0  1.013836  0  0  0.096574  0  1.01099  0  0  0.112378  0.091227  0  1.015948  0
H  H7  1  0.97173719  0.35603319  0.13729159  1  0  0.089359  0  0.940978  0  0  0.093499  0  1.01384  0  0  0.096597  0  1.010983  0  0  0.112378  0.091242  0  1.015952  0
H  H8  1  0.49753295  0.47295734  0.26103524  1  0  0.117448  0  0.938091  0  0  0.123862  0  1.004391  0  0  0.127028  0  1.001723  0  0  0.10843  0.12153  0  1.006366  0
H  H9  1  0.50246721  0.02704259  0.76103576  1  0  0.117542  0  0.938116  0  0  0.12395  0  1.00439  0  0  0.127115  0  1.001722  0  0  0.10845  0.121609  0  1.006362  0
H  H10  1  0.50245954  0.52702605  0.73895749  1  0  0.117654  0  0.938449  0  0  0.124096  0  1.00459  0  0  0.127274  0  1.001917  0  0  0.108403  0.12176  0  1.006563  0
H  H11  1  0.49753624  0.97296993  0.23896122  1  0  0.117483  0  0.938143  0  0  0.123928  0  1.004352  0  0  0.127092  0  1.001683  0  0  0.108431  0.121595  0  1.006325  0
H  H12  1  0.23301643  0.47611229  0.35221794  1  0  0.103399  0  0.977651  0  0  0.10633  0  1.049294  0  0  0.109308  0  1.04876  0  0  0.100968  0.104189  0  1.04986  0
H  H13  1  0.76697930  0.02388523  0.85221586  1  0  0.103412  0  0.977595  0  0  0.106331  0  1.049273  0  0  0.109311  0  1.048738  0  0  0.100952  0.10419  0  1.049838  0
H  H14  1  0.76699366  0.52388435  0.64778613  1  0  0.103445  0  0.977534  0  0  0.106266  0  1.049309  0  0  0.109243  0  1.048781  0  0  0.100967  0.104125  0  1.049876  0
H  H15  1  0.23301123  0.97611271  0.14778396  1  0  0.103386  0  0.977554  0  0  0.106292  0  1.049245  0  0  0.10927  0  1.048714  0  0  0.100938  0.104152  0  1.049808  0
H  H16  1  0.35276080  0.67027345  0.44495459  1  0  0.085002  0  0.941072  0  0  0.090929  0  1.00977  0  0  0.09349  0  1.007537  0  0  0.116663  0.089074  0  1.011369  0
H  H17  1  0.64725105  0.82972548  0.94495537  1  0  0.08506  0  0.940903  0  0  0.090936  0  1.009653  0  0  0.093496  0  1.007422  0  0  0.116684  0.089085  0  1.011252  0
H  H18  1  0.64726692  0.32972058  0.55504428  1  0  0.084988  0  0.940933  0  0  0.090876  0  1.009666  0  0  0.093438  0  1.007435  0  0  0.116629  0.089023  0  1.011264  0
H  H19  1  0.35275188  0.17026851  0.05504492  1  0  0.085044  0  0.941097  0  0  0.090953  0  1.009816  0  0  0.093515  0  1.007582  0  0  0.116661  0.0891  0  1.011415  0
C  C20  1  0.80953188  0.77035008  0.35877284  1  0  0.08286  0  3.695644  0  0  0.041041  0  3.951168  0  0  0.04791  0  3.967597  0  0  0.040483  0.036237  0  3.940954  0
C  C21  1  0.19046596  0.72965145  0.85877215  1  0  0.082919  0  3.696284  0  0  0.041136  0  3.951849  0  0  0.047996  0  3.968273  0  0  0.040563  0.036351  0  3.941599  0
C  C22  1  0.19048784  0.22965320  0.64123123  1  0  0.083075  0  3.694776  0  0  0.041281  0  3.95029  0  0  0.048131  0  3.966714  0  0  0.040654  0.036551  0  3.939951  0
C  C23  1  0.80951272  0.27034515  0.14122294  1  0  0.08296  0  3.69516  0  0  0.041214  0  3.95067  0  0  0.04807  0  3.967101  0  0  0.040615  0.036461  0  3.940361  0
C  C24  1  0.75349270  0.66458323  0.30561057  1  0  0.039973  0  3.713739  0  0  0.058921  0  3.982343  0  0  0.057146  0  4.004166  0  0  -0.012246  0.059639  0  3.967793  0
C  C25  1  0.24651919  0.83541454  0.80561499  1  0  0.040067  0  3.713375  0  0  0.058896  0  3.982094  0  0  0.057123  0  4.003913  0  0  -0.012272  0.059608  0  3.967548  0
C  C26  1  0.24654958  0.33543332  0.69439776  1  0  0.039715  0  3.714019  0  0  0.058672  0  3.982605  0  0  0.05692  0  4.0044  0  0  -0.012427  0.05936  0  3.968104  0
C  C27  1  0.75347824  0.16457679  0.19439428  1  0  0.039911  0  3.713833  0  0  0.058787  0  3.98253  0  0  0.056999  0  4.004368  0  0  -0.012337  0.059495  0  3.967992  0
C  C28  1  0.54532859  0.55563651  0.30221378  1  0  -0.035796  0  3.690879  0  0  -0.065951  0  3.942901  0  0  -0.062258  0  3.960206  0  0  -0.065536  -0.067986  0  3.931049  0
C  C29  1  0.45467411  0.94436373  0.80221093  1  0  -0.035846  0  3.690831  0  0  -0.065942  0  3.942876  0  0  -0.062247  0  3.960177  0  0  -0.065497  -0.067975  0  3.931037  0
C  C30  1  0.45468231  0.44437204  0.69779643  1  0  -0.036113  0  3.691907  0  0  -0.06625  0  3.943896  0  0  -0.062587  0  3.961204  0  0  -0.065643  -0.068279  0  3.932046  0
C  C31  1  0.54532440  0.05564084  0.19778794  1  0  -0.035777  0  3.691027  0  0  -0.065891  0  3.943067  0  0  -0.062193  0  3.960375  0  0  -0.065497  -0.067945  0  3.931264  0
C  C32  1  0.39827002  0.55752749  0.35283735  1  0  -0.094724  0  3.734566  0  0  -0.107262  0  3.988694  0  0  -0.114701  0  4.011451  0  0  -0.080697  -0.102612  0  3.973524  0
C  C33  1  0.60172372  0.94247641  0.85283205  1  0  -0.094705  0  3.734432  0  0  -0.107251  0  3.988498  0  0  -0.114692  0  4.011253  0  0  -0.08068  -0.102606  0  3.973328  0
C  C34  1  0.60172269  0.44248104  0.64717712  1  0  -0.094507  0  3.734256  0  0  -0.106955  0  3.988374  0  0  -0.114396  0  4.011143  0  0  -0.080588  -0.102312  0  3.973208  0
C  C35  1  0.39827314  0.05752815  0.14716635  1  0  -0.094702  0  3.734518  0  0  -0.107228  0  3.988643  0  0  -0.114672  0  4.011406  0  0  -0.080707  -0.102583  0  3.973472  0
C  C36  1  0.46315244  0.66555300  0.40450602  1  0  0.122295  0  3.672335  0  0  0.088289  0  3.922822  0  0  0.095602  0  3.94006  0  0  0.04261  0.083579  0  3.911098  0
C  C37  1  0.53684414  0.83444801  0.90450270  1  0  0.122216  0  3.671876  0  0  0.088296  0  3.922325  0  0  0.095604  0  3.939576  0  0  0.042604  0.083579  0  3.910615  0
C  C38  1  0.53685682  0.33444762  0.59550041  1  0  0.122195  0  3.671568  0  0  0.08823  0  3.922095  0  0  0.095554  0  3.939311  0  0  0.042647  0.083507  0  3.910394  0
C  C39  1  0.46313977  0.16554992  0.09549240  1  0  0.12212  0  3.672197  0  0  0.088143  0  3.922711  0  0  0.095458  0  3.93994  0  0  0.042572  0.08343  0  3.910996  0
Br  Br40  1  0.96671061  0.66860695  0.24009025  1  0  -0.038118  0  1.388845  0  0  -0.034156  0  1.666283  0  0  -0.041166  0  1.66202  0  0  0.067045  -0.028969  0  1.669518  0
Br  Br41  1  0.03328041  0.83139834  0.74008801  1  0  -0.038226  0  1.388392  0  0  -0.034241  0  1.665868  0  0  -0.041249  0  1.661601  0  0  0.066978  -0.029071  0  1.669126  0
Br  Br42  1  0.03328982  0.33139895  0.75991004  1  0  -0.038134  0  1.388862  0  0  -0.034192  0  1.666307  0  0  -0.041203  0  1.662036  0  0  0.06701  -0.029013  0  1.669565  0
Br  Br43  1  0.96669632  0.16861282  0.25990614  1  0  -0.038082  0  1.389125  0  0  -0.034119  0  1.666619  0  0  -0.041123  0  1.662362  0  0  0.067076  -0.028931  0  1.669864  0
N  N44  1  0.98211335  0.15406907  0.47357941  1  0  -0.637733  0  2.900787  0  0  -0.586625  0  3.242005  0  0  -0.612379  0  3.243356  0  0  -0.346374  -0.5692  0  3.240958  0
N  N45  1  0.01788519  0.34593011  0.97357466  1  0  -0.637446  0  2.901182  0  0  -0.586298  0  3.242347  0  0  -0.612056  0  3.243727  0  0  -0.346236  -0.568871  0  3.24128  0
N  N46  1  0.01789094  0.84593154  0.52642561  1  0  -0.637449  0  2.901036  0  0  -0.586292  0  3.242189  0  0  -0.612046  0  3.243563  0  0  -0.346248  -0.568867  0  3.241124  0
N  N47  1  0.98210810  0.65406518  0.02642374  1  0  -0.637703  0  2.900673  0  0  -0.586574  0  3.24186  0  0  -0.612334  0  3.243223  0  0  -0.346364  -0.569141  0  3.240794  0
N  N48  1  0.95570155  0.29528867  0.45150183  1  0  0.418954  0  4.202503  0  0  0.450711  0  4.483217  0  0  0.46613  0  4.51091  0  0  0.0978  0.440306  0  4.464579  0
N  N49  1  0.04429371  0.20472007  0.95150092  1  0  0.418682  0  4.202651  0  0  0.450398  0  4.483436  0  0  0.465815  0  4.511126  0  0  0.097625  0.439994  0  4.464791  0
N  N50  1  0.04430136  0.70472120  0.54849894  1  0  0.418723  0  4.202483  0  0  0.450442  0  4.483247  0  0  0.46586  0  4.510942  0  0  0.097679  0.440041  0  4.464602  0
N  N51  1  0.95569488  0.79528448  0.04850031  1  0  0.418981  0  4.202284  0  0  0.450725  0  4.483015  0  0  0.466143  0  4.510704  0  0  0.097757  0.440322  0  4.464376  0
N  N52  1  0.92977620  0.42996990  0.43044725  1  0  -0.320383  0  2.404474  0  0  -0.325154  0  2.630445  0  0  -0.329499  0  2.641929  0  0  -0.155678  -0.322092  0  2.62288  0
N  N53  1  0.07021879  0.07002331  0.93044495  1  0  -0.320401  0  2.40415  0  0  -0.325117  0  2.630084  0  0  -0.329465  0  2.641567  0  0  -0.155668  -0.322049  0  2.622515  0
N  N54  1  0.07022508  0.57002409  0.56955446  1  0  -0.320439  0  2.404089  0  0  -0.325155  0  2.630023  0  0  -0.329507  0  2.641508  0  0  -0.155716  -0.322093  0  2.622455  0
N  N55  1  0.92977202  0.92996801  0.06955534  1  0  -0.320416  0  2.404365  0  0  -0.325165  0  2.630322  0  0  -0.329511  0  2.641803  0  0  -0.155638  -0.322106  0  2.622758  0
N  N56  1  0.52113058  0.89697862  0.55323157  1  0  -0.622842  0  2.848911  0  0  -0.576599  0  3.176152  0  0  -0.601955  0  3.181086  0  0  -0.332502  -0.559338  0  3.172588  0
N  N57  1  0.47886460  0.60301537  0.05323063  1  0  -0.622844  0  2.848674  0  0  -0.576605  0  3.175924  0  0  -0.601936  0  3.180797  0  0  -0.332551  -0.559341  0  3.172366  0
N  N58  1  0.47886848  0.10302066  0.44676872  1  0  -0.62279  0  2.848656  0  0  -0.576529  0  3.175863  0  0  -0.601874  0  3.180775  0  0  -0.332489  -0.559261  0  3.172297  0
N  N59  1  0.52112676  0.39697860  0.94676777  1  0  -0.622729  0  2.848873  0  0  -0.576467  0  3.17608  0  0  -0.601815  0  3.180997  0  0  -0.332454  -0.559205  0  3.172516  0
N  N60  1  0.57858659  0.88912783  0.60776640  1  0  0.410571  0  4.211441  0  0  0.443289  0  4.491038  0  0  0.458336  0  4.520727  0  0  0.090551  0.433237  0  4.470887  0
N  N61  1  0.42140661  0.61086472  0.10776808  1  0  0.410399  0  4.211265  0  0  0.443124  0  4.490862  0  0  0.458173  0  4.520555  0  0  0.090469  0.433073  0  4.470709  0
N  N62  1  0.42140505  0.11086747  0.39223342  1  0  0.410337  0  4.211253  0  0  0.443058  0  4.490851  0  0  0.458104  0  4.520544  0  0  0.090402  0.433009  0  4.4707  0
N  N63  1  0.57858557  0.38913323  0.89223410  1  0  0.410391  0  4.211278  0  0  0.443116  0  4.490867  0  0  0.458166  0  4.520551  0  0  0.090425  0.433064  0  4.470716  0
N  N64  1  0.62869911  0.88169779  0.66056237  1  0  -0.348261  0  2.42833  0  0  -0.347849  0  2.665894  0  0  -0.353447  0  2.675999  0  0  -0.17365  -0.343867  0  2.659158  0
N  N65  1  0.37129495  0.61829058  0.16056199  1  0  -0.348082  0  2.428379  0  0  -0.347689  0  2.665956  0  0  -0.353289  0  2.676061  0  0  -0.173534  -0.343712  0  2.659222  0
N  N66  1  0.37128620  0.11829088  0.33943839  1  0  -0.348089  0  2.428258  0  0  -0.347715  0  2.665862  0  0  -0.353315  0  2.675969  0  0  -0.173537  -0.343735  0  2.659127  0
N  N67  1  0.62870357  0.38170605  0.83943594  1  0  -0.348183  0  2.428156  0  0  -0.347799  0  2.665724  0  0  -0.353403  0  2.675832  0  0  -0.17356  -0.34381  0  2.658982  0
N  N68  1  0.66565910  0.77018370  0.40715813  1  0  -0.310721  0  3.355685  0  0  -0.223294  0  3.628131  0  0  -0.241416  0  3.643849  0  0  -0.331225  -0.211028  0  3.617128  0
N  N69  1  0.33432964  0.72981212  0.90715403  1  0  -0.310811  0  3.355952  0  0  -0.2234  0  3.628371  0  0  -0.241524  0  3.644094  0  0  -0.331334  -0.211143  0  3.61738  0
N  N70  1  0.33434028  0.22979307  0.59283413  1  0  -0.310703  0  3.354941  0  0  -0.223301  0  3.627404  0  0  -0.241417  0  3.643123  0  0  -0.331276  -0.211061  0  3.616426  0
N  N71  1  0.66565234  0.27019243  0.09283161  1  0  -0.310709  0  3.355625  0  0  -0.223323  0  3.628108  0  0  -0.241439  0  3.643821  0  0  -0.331281  -0.211073  0  3.617116  0
