# generated using pymatgen
data_CoH36C52S(N4O3)2
_symmetry_space_group_name_H-M   'P 1'
_cell_length_a   12.43668384
_cell_length_b   13.87878130
_cell_length_c   14.47628013
_cell_angle_alpha   90.07942356
_cell_angle_beta   71.82726793
_cell_angle_gamma   81.51892829
_symmetry_Int_Tables_number   1
_chemical_formula_structural   CoH36C52S(N4O3)2
_chemical_formula_sum   'Co2 H72 C104 S2 N16 O12'
_cell_volume   2345.11166461
_cell_formula_units_Z   2
loop_
 _symmetry_equiv_pos_site_id
 _symmetry_equiv_pos_as_xyz
  1  'x, y, z'
loop_
 _atom_site_type_symbol
 _atom_site_label
 _atom_site_symmetry_multiplicity
 _atom_site_fract_x
 _atom_site_fract_y
 _atom_site_fract_z
 _atom_site_occupancy
 _atom_site_pbe_bader_charge
 _atom_site_pbe_bader_spin_density
 _atom_site_pbe_cm5_charge
 _atom_site_pbe_ddec_charge
 _atom_site_pbe_ddec_spin_density
 _atom_site_pbe_ddec_sum_bond_order
 _atom_site_pbe_magmom
Co  Co0  1  0.24388221  0.29095927  0.13726578  1  1.281545  2.610351  0.672027  0.80837  2.818047  2.529482  2.593
Co  Co1  1  0.75614352  0.70904817  0.86272417  1  1.281172  2.610385  0.672078  0.80863  2.818116  2.528944  2.593
H  H2  1  0.45410872  0.58749859  0.17420824  1  0.137607  0.000653  0.117232  0.115347  0.00023  1.062096  0.0
H  H3  1  0.54587419  0.41255530  0.82579199  1  0.137798  0.000653  0.117175  0.115149  0.00023  1.06206  0.0
H  H4  1  0.25037839  0.38667669  0.93026797  1  0.202821  0.000487  0.12881  0.106015  3e-06  1.078919  0.0
H  H5  1  0.74964131  0.61331024  0.06972994  1  0.208883  0.000484  0.128748  0.105891  3e-06  1.079017  0.0
H  H6  1  0.18755818  0.51251373  0.44717319  1  0.089788  2.4e-05  0.108015  0.116203  2e-06  1.031396  0.0
H  H7  1  0.81240713  0.48748687  0.55278029  1  0.088664  2.4e-05  0.107957  0.115971  2e-06  1.03158  0.0
H  H8  1  0.51201858  0.86691735  0.50024793  1  0.065902  2.7e-05  0.105442  0.107475  9e-06  0.987963  0.0
H  H9  1  0.48796620  0.13306420  0.49977388  1  0.066149  2.7e-05  0.105489  0.10754  9e-06  0.98799  0.0
H  H10  1  0.17567532  0.01393033  0.40509409  1  0.06007  3.2e-05  0.105247  0.11056  -3e-06  1.024144  0.0
H  H11  1  0.82432442  0.98608855  0.59492755  1  0.060171  3.2e-05  0.1053  0.110541  -3e-06  1.024394  0.0
H  H12  1  0.27200223  0.38003270  0.34307051  1  0.129126  0.000531  0.136282  0.09677  0.0  1.010371  0.0
H  H13  1  0.72805089  0.61994803  0.65686525  1  0.128211  0.00053  0.136278  0.096814  -0.0  1.010232  0.0
H  H14  1  0.23714361  0.17249415  0.34134405  1  0.165429  0.000496  0.127331  0.090144  9e-06  1.055015  0.0
H  H15  1  0.76283482  0.82751432  0.65869617  1  0.165756  0.000496  0.127332  0.090274  9e-06  1.054894  0.0
H  H16  1  0.54004787  0.96316516  0.35280088  1  0.089807  3e-06  0.107714  0.116788  -6e-06  1.011943  0.0
H  H17  1  0.45994924  0.03683395  0.64723257  1  0.089271  3e-06  0.10767  0.116679  -6e-06  1.011816  0.0
H  H18  1  0.41423280  0.45067619  0.05235360  1  0.069299  0.000744  0.11827  0.113996  0.000118  1.007329  0.0
H  H19  1  0.58580196  0.54938543  0.94760541  1  0.069424  0.000745  0.118334  0.114118  0.000118  1.007247  0.0
H  H20  1  0.80312228  0.23172721  0.93239613  1  0.095893  3.6e-05  0.107282  0.109494  3e-05  1.013183  0.0
H  H21  1  0.19690729  0.76825765  0.06757682  1  0.095658  3.6e-05  0.107502  0.109767  3e-05  1.013293  0.0
H  H22  1  0.03422846  0.43460799  0.52749926  1  0.138659  5.5e-05  0.105113  0.108296  1.6e-05  1.056022  0.0
H  H23  1  0.96580808  0.56539580  0.47251383  1  0.138668  5.5e-05  0.105197  0.108463  1.6e-05  1.055758  0.0
H  H24  1  0.41139975  0.57630130  0.68665728  1  0.064622  -3e-06  0.097082  0.096363  -9e-06  1.027806  0.0
H  H25  1  0.58857123  0.42366941  0.31329250  1  0.065733  -3e-06  0.097126  0.096403  -9e-06  1.027992  0.0
H  H26  1  0.04278627  0.64441475  0.08581082  1  0.126697  0.000826  0.119965  0.129118  0.000318  1.025262  0.0
H  H27  1  0.95723371  0.35558172  0.91417319  1  0.126825  0.000826  0.11995  0.129051  0.000318  1.025156  0.0
H  H28  1  0.54526286  0.21762150  0.73149695  1  0.108169  4.7e-05  0.101987  0.10296  -4e-06  1.03294  0.0
H  H29  1  0.45471098  0.78236801  0.26852456  1  0.108326  4.7e-05  0.102003  0.102918  -4e-06  1.032993  0.0
H  H30  1  0.05492885  0.49534701  0.21403602  1  0.162229  0.000711  0.112963  0.118783  0.00014  1.063843  0.0
H  H31  1  0.94506165  0.50464853  0.78595511  1  0.162034  0.00071  0.113018  0.119059  0.000139  1.063629  0.0
H  H32  1  0.75758315  0.18283982  0.65333326  1  0.124614  0.000155  0.101379  0.104848  7.4e-05  1.035939  0.0
H  H33  1  0.24238724  0.81714537  0.34666022  1  0.125013  0.000155  0.10145  0.104961  7.4e-05  1.035906  0.0
H  H34  1  0.03345569  0.16289892  0.38376642  1  0.064426  0.000147  0.10579  0.107849  3.9e-05  1.013457  0.0
H  H35  1  0.96656725  0.83714804  0.61618771  1  0.064966  0.000147  0.10564  0.107811  3.9e-05  1.013459  0.0
H  H36  1  0.14794009  0.91717206  0.55318215  1  0.105345  -2e-06  0.103089  0.106932  -8e-06  1.012647  0.0
H  H37  1  0.85204330  0.08282849  0.44683107  1  0.10549  -2e-06  0.103052  0.106909  -8e-06  1.012798  0.0
H  H38  1  0.46642626  0.10612134  0.05854127  1  0.106261  0.000647  0.116219  0.112277  0.000121  1.014312  0.0
H  H39  1  0.53358088  0.89392016  0.94150242  1  0.105468  0.000646  0.116421  0.112476  0.000121  1.014067  0.0
H  H40  1  0.98384078  0.35986746  0.68662474  1  0.124586  0.000161  0.115943  0.126921  7.2e-05  0.991211  0.0
H  H41  1  0.01613940  0.64011775  0.31338181  1  0.124425  0.000161  0.115869  0.126788  7.2e-05  0.991357  0.0
H  H42  1  0.16415051  0.60770302  0.59747212  1  0.092932  7e-06  0.10401  0.110173  -1e-06  1.020965  0.0
H  H43  1  0.83579178  0.39227912  0.40250459  1  0.092899  6e-06  0.104056  0.110316  -1e-06  1.020922  0.0
H  H44  1  0.24852761  0.19341549  0.93009348  1  0.191979  0.000328  0.131596  0.109334  -9.4e-05  1.05876  0.0
H  H45  1  0.75149521  0.80656559  0.06991321  1  0.193133  0.000329  0.131639  0.109294  -9.4e-05  1.058754  0.0
H  H46  1  0.51527494  0.60563783  0.31401305  1  0.094894  -1.6e-05  0.110135  0.122112  -2.6e-05  1.003802  0.0
H  H47  1  0.48470612  0.39434443  0.68600361  1  0.094312  -1.6e-05  0.110208  0.122144  -2.6e-05  1.00386  0.0
H  H48  1  0.48654164  0.70744123  0.46150934  1  0.071909  8e-06  0.101532  0.102158  1e-06  1.015126  0.0
H  H49  1  0.51341241  0.29254085  0.53851581  1  0.071303  8e-06  0.101445  0.101967  1e-06  1.015199  0.0
H  H50  1  0.35110895  0.49168786  0.84045086  1  0.084351  3e-06  0.100838  0.100299  -2.1e-05  1.052124  0.0
H  H51  1  0.64889426  0.50827572  0.15950275  1  0.08481  3e-06  0.100762  0.100321  -2.1e-05  1.052145  0.0
H  H52  1  0.09145330  0.11309094  0.21610648  1  0.150525  0.000581  0.114387  0.109904  6.3e-05  1.024392  0.0
H  H53  1  0.90857664  0.88690259  0.78390506  1  0.150797  0.000581  0.114445  0.11003  6.3e-05  1.024306  0.0
H  H54  1  0.31113875  0.88200049  0.94634802  1  0.07356  6e-06  0.101756  0.106162  -1.7e-05  1.042218  0.0
H  H55  1  0.68886348  0.11799507  0.05366323  1  0.073803  6e-06  0.101738  0.1061  -1.7e-05  1.041927  0.0
H  H56  1  0.08860004  0.76947454  0.77523316  1  0.087869  1.3e-05  0.103601  0.108175  -2.3e-05  1.010388  0.0
H  H57  1  0.91140139  0.23053773  0.22480181  1  0.087532  1.3e-05  0.103554  0.108078  -2.2e-05  1.010442  0.0
H  H58  1  0.98082851  0.08639615  0.54671049  1  0.079068  7e-06  0.103248  0.104228  3e-06  1.026051  0.0
H  H59  1  0.01913835  0.91362129  0.45323287  1  0.079106  7e-06  0.103213  0.104311  3e-06  1.026249  0.0
H  H60  1  0.02401438  0.68013292  0.92427372  1  0.139319  -3.6e-05  0.108353  0.119451  -5.9e-05  1.015873  0.0
H  H61  1  0.97601671  0.31986712  0.07576030  1  0.138868  -3.6e-05  0.108331  0.119416  -5.9e-05  1.015955  0.0
H  H62  1  0.10705170  0.95935757  0.08703614  1  0.123334  0.000728  0.117458  0.118019  0.000284  1.038322  0.0
H  H63  1  0.89293090  0.04064369  0.91298353  1  0.123231  0.000728  0.117448  0.117966  0.000284  1.038385  0.0
H  H64  1  0.36787223  0.78243104  0.79207036  1  0.105713  1.6e-05  0.103169  0.108383  -8e-06  1.005297  0.0
H  H65  1  0.63212623  0.21755424  0.20794819  1  0.105444  1.6e-05  0.103151  0.108237  -8e-06  1.005392  0.0
H  H66  1  0.51255290  0.95938811  0.17903385  1  0.137477  0.000704  0.123707  0.128053  0.00027  1.008715  0.0
H  H67  1  0.48747776  0.04065134  0.82101203  1  0.137191  0.000704  0.123702  0.128045  0.00027  1.008493  0.0
H  H68  1  0.58837294  0.26657455  0.00927369  1  0.114799  0.00026  0.10941  0.117564  0.000105  0.994361  0.0
H  H69  1  0.41165753  0.73342706  0.99072250  1  0.114967  0.00026  0.109349  0.117427  0.000105  0.994355  0.0
H  H70  1  0.14249419  0.11391822  0.82038535  1  0.137149  1.6e-05  0.105637  0.126419  4e-06  1.041563  0.0
H  H71  1  0.85748273  0.88605819  0.17962629  1  0.136649  1.6e-05  0.105579  0.126392  4e-06  1.041482  0.0
H  H72  1  0.19929324  0.01624020  0.66656951  1  0.079578  -4e-06  0.096767  0.099261  -7e-06  1.037474  0.0
H  H73  1  0.80068770  0.98373403  0.33344788  1  0.078933  -4e-06  0.096776  0.099128  -7e-06  1.037517  0.0
C  C74  1  0.41344281  0.52309619  0.18959112  1  0.280851  0.002726  -0.004294  -0.108431  0.00149  3.92165  0.002
C  C75  1  0.58655521  0.47694251  0.81038886  1  0.27957  0.002722  -0.004199  -0.108257  0.001489  3.921406  0.002
C  C76  1  0.19616295  0.43640442  0.99059625  1  0.910989  0.000181  0.132182  0.082872  -0.000708  3.890955  0.0
C  C77  1  0.80385332  0.56358177  0.00939644  1  0.905298  0.000182  0.132366  0.083037  -0.000709  3.891174  0.0
C  C78  1  0.18453614  0.58119915  0.89322193  1  0.284622  0.00053  0.095921  0.168748  0.000271  4.014479  0.0
C  C79  1  0.81546865  0.41878478  0.10677200  1  0.284204  0.00053  0.095903  0.168859  0.000272  4.013943  0.0
C  C80  1  0.25576757  0.68059275  0.72087944  1  -0.046144  0.000298  -0.010466  0.059857  0.000156  4.023473  0.0
C  C81  1  0.74420575  0.31939171  0.27912149  1  -0.046667  0.000298  -0.01037  0.059562  0.000156  4.023878  0.0
C  C82  1  0.32082963  0.66901751  0.53951623  1  -0.050647  9.9e-05  -0.011598  0.063768  2.9e-05  4.010816  0.0
C  C83  1  0.67912235  0.33096682  0.46048394  1  -0.050927  9.8e-05  -0.011598  0.06364  2.8e-05  4.011361  0.0
C  C84  1  0.25477934  0.55285268  0.45148359  1  -0.025826  0.000156  -0.09179  -0.164494  3.8e-05  3.980082  0.0
C  C85  1  0.74518035  0.44714930  0.54849016  1  -0.027708  0.000155  -0.091837  -0.164224  3.8e-05  3.980569  0.0
C  C86  1  0.43772976  0.89793275  0.47927000  1  -0.047543  8.3e-05  -0.082708  -0.112493  2.7e-05  3.976434  0.0
C  C87  1  0.56226018  0.10205321  0.52075308  1  -0.047627  8.3e-05  -0.082645  -0.112499  2.7e-05  3.976111  0.0
C  C88  1  0.29722751  0.73165352  0.62886863  1  -0.006144  -0.00029  -0.002285  -0.026058  -0.000333  3.936993  0.0
C  C89  1  0.70273091  0.26834618  0.37113245  1  -0.006493  -0.00029  -0.002462  -0.026249  -0.000333  3.936591  0.0
C  C90  1  0.35290106  0.55244790  0.37095867  1  0.270242  0.000386  0.092189  0.16213  0.000112  4.026098  0.0
C  C91  1  0.64707415  0.44754611  0.62902513  1  0.272582  0.000386  0.092374  0.161935  0.000112  4.025862  0.0
C  C92  1  0.28364772  0.88957286  0.71819582  1  -0.032895  -0.000159  -0.011177  0.0612  -0.00019  4.006336  0.0
C  C93  1  0.71634640  0.11040803  0.28182053  1  -0.032905  -0.000159  -0.011409  0.060639  -0.00019  4.006755  0.0
C  C94  1  0.24882294  0.98278681  0.42743727  1  0.026389  0.000165  -0.091134  -0.167081  5.6e-05  4.001564  0.0
C  C95  1  0.75117267  0.01722327  0.57258901  1  0.026558  0.000165  -0.091122  -0.166954  5.6e-05  4.001887  0.0
C  C96  1  0.35919104  0.99499372  0.37043479  1  0.326575  0.000628  0.093851  0.164388  0.000344  4.019798  0.001
C  C97  1  0.64080679  0.00501928  0.62959846  1  0.324064  0.000628  0.093472  0.163849  0.000344  4.020608  0.001
C  C98  1  0.03831088  0.30290069  0.44504519  1  -0.063157  0.004873  -0.009998  -0.019616  0.002516  3.946835  0.004
C  C99  1  0.96172407  0.69713239  0.55493450  1  -0.06253  0.004872  -0.010225  -0.019722  0.002517  3.94694  0.004
C  C100  1  0.55530482  0.24161570  0.87480687  1  -0.071617  0.004794  -0.01759  -0.033824  0.002294  3.974397  0.004
C  C101  1  0.44469811  0.75838497  0.12520417  1  -0.07229  0.004798  -0.01776  -0.034395  0.002296  3.974888  0.004
C  C102  1  0.31562100  0.41640222  0.27937854  1  0.994142  0.000105  0.146953  0.110834  -0.000786  3.902808  0.0
C  C103  1  0.68440920  0.58360171  0.72056866  1  0.994974  9.2e-05  0.146703  0.110478  -0.000799  3.902048  0.0
C  C104  1  0.30569526  0.13604725  0.27990907  1  0.917412  -0.002265  0.135709  0.090138  -0.003273  3.910943  -0.001
C  C105  1  0.69429949  0.86397445  0.72013473  1  0.91813  -0.002262  0.135458  0.089715  -0.00327  3.911423  -0.001
C  C106  1  0.45409324  0.95245173  0.39636993  1  -0.05137  0.000156  -0.086531  -0.154644  4e-05  3.969987  0.0
C  C107  1  0.54590389  0.04754228  0.60366006  1  -0.049333  0.000156  -0.086465  -0.154475  4e-05  3.970123  0.0
C  C108  1  0.32795159  0.88322329  0.53636931  1  0.011567  0.000105  -0.003586  0.076411  4.2e-05  3.994148  0.0
C  C109  1  0.67204321  0.11676710  0.46364546  1  0.012062  0.000106  -0.003614  0.076483  4.3e-05  3.994347  0.0
C  C110  1  0.79114750  0.20248188  0.78965812  1  -0.152561  -0.002631  -0.020521  -0.078242  -0.002986  3.987912  -0.002
C  C111  1  0.20885597  0.79749771  0.21032098  1  -0.152025  -0.002624  -0.020623  -0.078271  -0.002978  3.988473  -0.002
C  C112  1  0.39164209  0.45598510  0.13092469  1  0.450212  -2.8e-05  -0.000489  -0.02003  -0.001072  3.996119  0.0
C  C113  1  0.60837640  0.54405891  0.86903279  1  0.450793  -3.3e-05  -0.000566  -0.020206  -0.001075  3.996491  0.0
C  C114  1  0.74583506  0.22736998  0.88942509  1  0.03431  -7.8e-05  -0.082828  -0.098732  -0.00026  4.000257  0.0
C  C115  1  0.25417738  0.77261694  0.11055903  1  0.034706  -7.8e-05  -0.083074  -0.099076  -0.000259  4.000583  0.0
C  C116  1  0.02449562  0.35796119  0.53035501  1  -0.061886  0.000756  -0.079673  -0.089531  0.000317  3.946846  0.001
C  C117  1  0.97551148  0.64205489  0.46963893  1  -0.061646  0.000756  -0.07972  -0.089779  0.000317  3.946883  0.001
C  C118  1  0.30658735  0.82853213  0.62787208  1  -0.016197  0.000398  -0.007118  -0.039131  0.000194  3.928756  0.0
C  C119  1  0.69339535  0.17143628  0.37213858  1  -0.016773  0.000397  -0.006975  -0.038939  0.000194  3.928317  0.0
C  C120  1  0.06939379  0.35040899  0.34788110  1  1.577743  0.00409  0.199332  0.548319  0.002579  4.264882  0.003
C  C121  1  0.93067962  0.64963523  0.65211445  1  1.57772  0.004086  0.199614  0.548657  0.002576  4.265056  0.003
C  C122  1  0.32691913  0.59975188  0.73936515  1  -0.027377  -5.8e-05  -0.092245  -0.118888  -8.2e-05  3.994673  0.0
C  C123  1  0.67305587  0.40021951  0.26060835  1  -0.028873  -5.8e-05  -0.092289  -0.118748  -8.2e-05  3.994862  0.0
C  C124  1  0.21996744  0.00241492  0.89364899  1  0.320626  0.000781  0.090781  0.164454  0.000442  4.038842  0.001
C  C125  1  0.78002265  0.99757763  0.10636507  1  0.276923  0.000783  0.09082  0.164003  0.000442  4.039101  0.001
C  C126  1  0.97950360  0.21894308  0.62442687  1  -0.258084  -0.000253  -0.024078  -0.086759  -0.000298  4.007215  0.0
C  C127  1  0.02046062  0.78106257  0.37555042  1  -0.258702  -0.000252  -0.023913  -0.086682  -0.000297  4.007372  0.0
C  C128  1  0.08530358  0.56938674  0.07286078  1  0.239142  0.002599  -0.009267  -0.118531  0.001388  3.917258  0.002
C  C129  1  0.91472114  0.43060684  0.92712049  1  0.237623  0.002598  -0.009281  -0.118295  0.001388  3.917035  0.002
C  C130  1  0.60285630  0.21879008  0.77459352  1  -0.036652  -0.001431  -0.0845  -0.099378  -0.001756  3.987731  -0.001
C  C131  1  0.39712064  0.78120896  0.22542225  1  -0.036781  -0.001427  -0.084282  -0.098777  -0.001751  3.987036  -0.001
C  C132  1  0.09195152  0.49620002  0.13544803  1  0.421858  0.001321  -0.007394  -0.029781  1e-06  3.988647  0.001
C  C133  1  0.90804375  0.50378315  0.86453689  1  0.422575  0.001318  -0.007305  -0.030004  -0.0  3.988774  0.001
C  C134  1  0.72085817  0.19942408  0.73138367  1  -0.054788  0.001031  -0.085527  -0.087697  0.000441  3.982437  0.001
C  C135  1  0.27911410  0.80056110  0.26861549  1  -0.05499  0.00103  -0.085661  -0.088006  0.000441  3.982657  0.001
C  C136  1  0.02262425  0.20487811  0.45065851  1  0.009088  0.000104  -0.087702  -0.107196  -3.6e-05  3.986723  0.0
C  C137  1  0.97737800  0.79516286  0.54930643  1  0.008522  0.000103  -0.087631  -0.107252  -3.6e-05  3.987004  0.0
C  C138  1  0.23390301  0.92735898  0.50934612  1  -0.113998  3.3e-05  -0.087255  -0.11966  -3e-06  3.97638  0.0
C  C139  1  0.76609337  0.07263142  0.49066474  1  -0.113241  3.3e-05  -0.087193  -0.119565  -3e-06  3.976689  0.0
C  C140  1  0.42595206  0.09801613  0.13547218  1  0.421696  0.000219  -0.001458  -0.023994  -0.000635  3.9928  0.0
C  C141  1  0.57404646  0.90202677  0.86457745  1  0.425461  0.000223  -0.001766  -0.024375  -0.000629  3.992165  0.0
C  C142  1  0.99514313  0.31660128  0.62052429  1  0.023103  0.000259  -0.073407  -0.069903  7e-05  3.940936  0.0
C  C143  1  0.00484766  0.68340085  0.37946193  1  0.022927  0.00026  -0.073262  -0.069554  7e-05  3.941141  0.0
C  C144  1  0.24067440  0.60878491  0.53523437  1  0.012438  -0.000113  -0.083757  -0.098418  -0.000141  3.95111  0.0
C  C145  1  0.75928192  0.39120605  0.46475419  1  0.014235  -0.000113  -0.083615  -0.098473  -0.000141  3.95187  0.0
C  C146  1  0.20536222  0.15282387  0.99135200  1  0.932886  0.002702  0.137055  0.095189  0.001145  3.878279  0.002
C  C147  1  0.79465004  0.84716372  0.00865773  1  0.931341  0.002709  0.137072  0.095272  0.00115  3.878077  0.002
C  C148  1  0.43713638  0.60725393  0.37537918  1  -0.011319  0.00012  -0.091365  -0.166083  -4e-06  3.989598  0.0
C  C149  1  0.56283971  0.39273419  0.62462371  1  -0.011254  0.000119  -0.091496  -0.166118  -4e-06  3.989565  0.0
C  C150  1  0.42654667  0.26542827  0.91795068  1  1.558527  -0.002661  0.195104  0.53982  -0.003868  4.26652  0.0
C  C151  1  0.57346277  0.73455199  0.08205987  1  1.559365  -0.002652  0.195035  0.539537  -0.003857  4.266641  0.0
C  C152  1  0.42025607  0.66537317  0.45881915  1  -0.036678  -9.9e-05  -0.086966  -0.108958  -0.000144  3.975527  0.0
C  C153  1  0.57970148  0.33461554  0.54119531  1  -0.036176  -0.0001  -0.086862  -0.108485  -0.000144  3.975149  0.0
C  C154  1  0.29300408  0.55158473  0.82526747  1  -0.055037  0.000264  -0.095296  -0.16628  0.000117  4.000587  0.0
C  C155  1  0.70699189  0.44839479  0.17471725  1  -0.054222  0.000264  -0.095137  -0.16623  0.000116  4.000313  0.0
C  C156  1  0.12564543  0.10737219  0.13753480  1  0.387364  0.001141  -0.003292  -0.019847  -0.00021  4.006038  0.001
C  C157  1  0.87437585  0.89262640  0.86247648  1  0.387498  0.001141  -0.003193  -0.019813  -0.000207  4.0062  0.001
C  C158  1  0.28408756  0.90934801  0.88540069  1  -0.026457  0.000131  -0.093996  -0.169884  4.4e-05  4.00996  0.0
C  C159  1  0.71591512  0.09064607  0.11461595  1  -0.026212  0.000131  -0.094263  -0.170014  4.4e-05  4.01021  0.0
C  C160  1  0.14683760  0.70867955  0.78906131  1  -0.019483  -5.3e-05  -0.081624  -0.096982  -0.00013  3.942203  0.0
C  C161  1  0.85315893  0.29132399  0.21095365  1  -0.018882  -5.3e-05  -0.081672  -0.096816  -0.00013  3.942133  0.0
C  C162  1  0.99299477  0.16248075  0.54036604  1  -0.034036  -5.2e-05  -0.08693  -0.100442  -8.8e-05  4.016894  0.0
C  C163  1  0.00699192  0.83753823  0.45959302  1  -0.033355  -5.2e-05  -0.086971  -0.10052  -8.8e-05  4.017817  0.0
C  C164  1  0.11054698  0.65918608  0.87433749  1  -0.010274  0.000336  -0.087344  -0.151167  0.000153  3.949012  0.0
C  C165  1  0.88946459  0.34081535  0.12568142  1  -0.00966  0.000336  -0.087405  -0.151286  0.000153  3.948956  0.0
C  C166  1  0.13468828  0.02987422  0.07521381  1  0.27994  0.00266  -0.006401  -0.107954  0.001432  3.92327  0.002
C  C167  1  0.86531134  0.97011837  0.92480510  1  0.280921  0.00266  -0.006441  -0.108054  0.001432  3.923872  0.002
C  C168  1  0.31614441  0.85403465  0.79834279  1  -0.081232  0.000157  -0.086623  -0.106034  5.8e-05  3.984065  0.0
C  C169  1  0.68385018  0.14594404  0.20167481  1  -0.081362  0.000156  -0.086272  -0.105369  5.8e-05  3.984056  0.0
C  C170  1  0.45031556  0.02546513  0.19370520  1  0.275365  0.00249  -0.000819  -0.103434  0.001261  3.917658  0.002
C  C171  1  0.54969792  0.97457056  0.80634150  1  0.275371  0.00249  -0.000847  -0.103256  0.00126  3.917008  0.002
C  C172  1  0.62722194  0.24640813  0.93182523  1  -0.11791  -0.001535  -0.081146  -0.092134  -0.001837  3.958097  -0.001
C  C173  1  0.37279176  0.75358824  0.06817580  1  -0.118116  -0.001532  -0.081031  -0.091763  -0.001833  3.958127  -0.001
C  C174  1  0.19277305  0.04161383  0.81377222  1  -0.10141  -0.0001  -0.0944  -0.166768  -0.000146  3.994082  0.0
C  C175  1  0.80721085  0.95836261  0.18624431  1  -0.058769  -0.000102  -0.094323  -0.166602  -0.000146  3.994  0.0
C  C176  1  0.22512615  0.98568881  0.72698710  1  0.044351  0.000211  -0.091047  -0.110699  9.8e-05  3.973316  0.0
C  C177  1  0.77485948  0.01428764  0.27303031  1  0.046759  0.000211  -0.091044  -0.110362  9.7e-05  3.973105  0.0
S  S178  1  0.94099738  0.16466976  0.73811210  1  2.450492  -0.000445  0.47364  0.962767  -0.000588  5.747139  0.0
S  S179  1  0.05899464  0.83531202  0.26184197  1  2.450333  -0.000445  0.47384  0.963062  -0.000587  5.746524  0.0
N  N180  1  0.17113952  0.18301733  0.08464469  1  -1.192396  0.052549  -0.350025  -0.301062  0.027855  3.58577  0.044
N  N181  1  0.82889232  0.81697403  0.91535940  1  -1.192982  0.052549  -0.350119  -0.301274  0.027853  3.585669  0.044
N  N182  1  0.18592044  0.05950380  0.98244718  1  -1.283024  0.003603  -0.230646  0.006295  0.00163  3.809998  0.002
N  N183  1  0.81408077  0.94048882  0.01756781  1  -1.28375  0.003604  -0.23061  0.006677  0.001631  3.80995  0.002
N  N184  1  0.16164963  0.41384292  0.08333438  1  -1.201132  0.056378  -0.346197  -0.302111  0.029966  3.581281  0.047
N  N185  1  0.83835460  0.58614393  0.91665970  1  -1.200826  0.056379  -0.34642  -0.302293  0.029962  3.581296  0.047
N  N186  1  0.15290656  0.53095474  0.98067299  1  -1.265594  0.003185  -0.228071  0.008718  0.001466  3.796935  0.002
N  N187  1  0.84712428  0.46903520  0.01931757  1  -1.265662  0.003186  -0.228036  0.008595  0.001467  3.796638  0.002
N  N188  1  0.33035602  0.39003072  0.18776924  1  -1.196309  0.048839  -0.342735  -0.286336  0.02565  3.588825  0.041
N  N189  1  0.66969213  0.60998575  0.81217416  1  -1.196676  0.048826  -0.342669  -0.286231  0.025647  3.588484  0.041
N  N190  1  0.33613662  0.16652895  0.19006028  1  -1.182226  0.049555  -0.333231  -0.273819  0.02657  3.538505  0.042
N  N191  1  0.66384951  0.83349782  0.80998463  1  -1.186429  0.049563  -0.332941  -0.273564  0.026575  3.538315  0.042
N  N192  1  0.37287623  0.05016943  0.28590504  1  -1.249124  0.001831  -0.229233  0.002839  0.000685  3.795331  0.001
N  N193  1  0.62712687  0.94985817  0.71414188  1  -1.248873  0.00183  -0.228905  0.003192  0.000686  3.7954  0.001
N  N194  1  0.36404814  0.49774616  0.28459281  1  -1.275939  0.002466  -0.227002  0.009719  0.001008  3.787643  0.002
N  N195  1  0.63595276  0.50226703  0.71537597  1  -1.274843  0.002463  -0.226961  0.009995  0.001007  3.786498  0.002
O  O196  1  0.38744681  0.27244448  0.01096594  1  -1.156404  0.067916  -0.315316  -0.562937  0.035326  2.409458  0.059
O  O197  1  0.61256703  0.72754823  0.98904403  1  -1.156234  0.06787  -0.315271  -0.562762  0.035303  2.409155  0.059
O  O198  1  0.11877699  0.29067962  0.27367655  1  -1.175938  0.062523  -0.321855  -0.568088  0.032047  2.365555  0.052
O  O199  1  0.88123879  0.70936136  0.72631212  1  -1.176712  0.062537  -0.321807  -0.568254  0.032058  2.365919  0.052
O  O200  1  0.04626080  0.44155459  0.34902442  1  -1.147987  0.010241  -0.314534  -0.536172  0.004655  2.156647  0.009
O  O201  1  0.95390308  0.55849670  0.65098718  1  -1.147503  0.010237  -0.314679  -0.536338  0.004655  2.15701  0.009
O  O202  1  0.96106030  0.05957378  0.71788579  1  -1.293666  -0.000233  -0.314019  -0.523383  -0.000224  2.166552  0.0
O  O203  1  0.03893107  0.94041969  0.28206501  1  -1.293151  -0.000233  -0.314001  -0.523535  -0.000224  2.166223  0.0
O  O204  1  0.99536877  0.20574772  0.80131752  1  -1.310416  -9.5e-05  -0.309846  -0.520788  -9.2e-05  2.181423  0.0
O  O205  1  0.00463965  0.79422759  0.19862975  1  -1.311412  -9.5e-05  -0.310047  -0.521002  -9.2e-05  2.181663  0.0
O  O206  1  0.36935894  0.27713067  0.85917979  1  -1.198434  -0.002346  -0.341293  -0.559913  -0.003838  2.127335  -0.002
O  O207  1  0.63063350  0.72284726  0.14084603  1  -1.198996  -0.00234  -0.341233  -0.559738  -0.00383  2.127192  -0.002
