# generated using pymatgen
data_TlBH14(C8N3)2
_symmetry_space_group_name_H-M   'P 1'
_cell_length_a   5.81593921
_cell_length_b   10.01415954
_cell_length_c   13.90001567
_cell_angle_alpha   97.69535069
_cell_angle_beta   89.99996250
_cell_angle_gamma   90.00132479
_symmetry_Int_Tables_number   1
_chemical_formula_structural   TlBH14(C8N3)2
_chemical_formula_sum   'Tl2 B2 H28 C32 N12'
_cell_volume   802.27029023
_cell_formula_units_Z   2
loop_
 _symmetry_equiv_pos_site_id
 _symmetry_equiv_pos_as_xyz
  1  'x, y, z'
loop_
 _atom_site_type_symbol
 _atom_site_label
 _atom_site_symmetry_multiplicity
 _atom_site_fract_x
 _atom_site_fract_y
 _atom_site_fract_z
 _atom_site_occupancy
 _atom_site_hle17_bader_spin_density
 _atom_site_hle17_ddec_charge
 _atom_site_hle17_ddec_spin_density
 _atom_site_hle17_ddec_sum_bond_order
 _atom_site_hle17_magmom
 _atom_site_hse06_10hf_bader_spin_density
 _atom_site_hse06_10hf_ddec_charge
 _atom_site_hse06_10hf_ddec_spin_density
 _atom_site_hse06_10hf_ddec_sum_bond_order
 _atom_site_hse06_10hf_magmom
 _atom_site_hse06_bader_spin_density
 _atom_site_hse06_ddec_charge
 _atom_site_hse06_ddec_spin_density
 _atom_site_hse06_ddec_sum_bond_order
 _atom_site_hse06_magmom
 _atom_site_pbe_bader_spin_density
 _atom_site_pbe_cm5_charge
 _atom_site_pbe_ddec_charge
 _atom_site_pbe_ddec_spin_density
 _atom_site_pbe_ddec_sum_bond_order
 _atom_site_pbe_magmom
Tl  Tl0  1  0.12467328  0.21878950  0.25038452  1  0  0.699293  0  0.854693  0  0  0.543473  0  1.166939  0  0  0.577284  0  1.146296  0  0  0.386596  0.518911  0  1.181458  0
Tl  Tl1  1  0.62465143  0.78119249  0.74962445  1  0  0.699299  0  0.854644  0  0  0.543475  0  1.166892  0  0  0.577281  0  1.146253  0  0  0.386627  0.518917  0  1.18141  0
B  B2  1  0.44143295  0.50790785  0.21733842  1  0  0.308527  0  3.349804  0  0  0.124542  0  3.666024  0  0  0.140922  0  3.669611  0  0  -0.230484  0.113381  0  3.663612  0
B  B3  1  0.94144721  0.49209245  0.78266876  1  0  0.308718  0  3.349482  0  0  0.124719  0  3.665726  0  0  0.141121  0  3.669255  0  0  -0.230517  0.113571  0  3.663291  0
H  H4  1  0.87003145  0.59215305  0.30901165  1  0  0.111829  0  0.939783  0  0  0.124837  0  0.995319  0  0  0.127086  0  0.994332  0  0  0.125069  0.123278  0  0.995884  0
H  H5  1  0.37002914  0.40786521  0.69096633  1  0  0.111928  0  0.939794  0  0  0.124864  0  0.995407  0  0  0.127114  0  0.994419  0  0  0.125078  0.123307  0  0.995972  0
H  H6  1  0.67079744  0.32162890  0.90014848  1  0  0.130649  0  0.962447  0  0  0.142765  0  1.018126  0  0  0.145409  0  1.018205  0  0  0.110171  0.140898  0  1.018165  0
H  H7  1  0.17085629  0.67836542  0.09985580  1  0  0.130608  0  0.962442  0  0  0.142752  0  1.018093  0  0  0.145399  0  1.01817  0  0  0.110163  0.140883  0  1.018139  0
H  H8  1  0.99489842  0.45911028  0.46177840  1  0  0.128757  0  0.98502  0  0  0.137091  0  1.046217  0  0  0.139979  0  1.046677  0  0  0.103992  0.135102  0  1.045863  0
H  H9  1  0.49491030  0.54091231  0.53820741  1  0  0.128788  0  0.984949  0  0  0.137121  0  1.046141  0  0  0.139986  0  1.046609  0  0  0.104042  0.135145  0  1.045773  0
H  H10  1  0.77513766  0.49594624  0.06338360  1  0  0.099755  0  0.980887  0  0  0.108433  0  1.047725  0  0  0.110449  0  1.047224  0  0  0.118225  0.106881  0  1.048205  0
H  H11  1  0.27515478  0.50403412  0.93660292  1  0  0.09961  0  0.98109  0  0  0.10826  0  1.047941  0  0  0.110268  0  1.047459  0  0  0.118182  0.106711  0  1.048417  0
H  H12  1  0.71124084  0.01678306  0.93382766  1  0  0.057529  0  0.981182  0  0  0.06717  0  1.04779  0  0  0.068222  0  1.048569  0  0  0.104185  0.066363  0  1.047385  0
H  H13  1  0.21129923  0.98320102  0.06617429  1  0  0.057608  0  0.981016  0  0  0.067256  0  1.047636  0  0  0.068309  0  1.048416  0  0  0.104228  0.066449  0  1.047232  0
H  H14  1  0.94254874  0.18759913  0.03556664  1  0  0.096159  0  0.976614  0  0  0.105386  0  1.041415  0  0  0.108206  0  1.041058  0  0  0.104298  0.103357  0  1.041838  0
H  H15  1  0.44261136  0.81238295  0.96444284  1  0  0.096104  0  0.976732  0  0  0.105337  0  1.041509  0  0  0.108164  0  1.041157  0  0  0.104394  0.103306  0  1.041933  0
H  H16  1  0.94881105  0.30940427  0.57145688  1  0  0.109382  0  0.954338  0  0  0.120296  0  1.013719  0  0  0.123408  0  1.013612  0  0  0.107167  0.118016  0  1.013964  0
H  H17  1  0.44880105  0.69061518  0.42853105  1  0  0.109507  0  0.954417  0  0  0.120448  0  1.013724  0  0  0.123563  0  1.013616  0  0  0.107223  0.118172  0  1.013967  0
H  H18  1  0.30884080  0.16846411  0.43474114  1  0  0.090805  0  0.988207  0  0  0.102512  0  1.05457  0  0  0.104997  0  1.054132  0  0  0.099192  0.100663  0  1.055102  0
H  H19  1  0.80883886  0.83156333  0.56527453  1  0  0.090958  0  0.988329  0  0  0.102662  0  1.054676  0  0  0.105149  0  1.054235  0  0  0.09927  0.10082  0  1.055183  0
H  H20  1  0.88069733  0.15380337  0.69170784  1  0  0.069238  0  0.959628  0  0  0.077258  0  1.025029  0  0  0.079533  0  1.023784  0  0  0.106914  0.075612  0  1.026017  0
H  H21  1  0.38068054  0.84621487  0.30828551  1  0  0.069102  0  0.959874  0  0  0.077043  0  1.025342  0  0  0.079336  0  1.02408  0  0  0.106855  0.0754  0  1.026325  0
H  H22  1  0.26858449  0.01901192  0.56050653  1  0  0.057579  0  0.982257  0  0  0.06424  0  1.052288  0  0  0.065497  0  1.052979  0  0  0.101687  0.063362  0  1.051789  0
H  H23  1  0.76858022  0.98101788  0.43950556  1  0  0.05751  0  0.982477  0  0  0.064229  0  1.052428  0  0  0.065491  0  1.053107  0  0  0.101666  0.06334  0  1.051958  0
H  H24  1  0.20989712  0.96882636  0.71899427  1  0  0.060208  0  0.972108  0  0  0.067614  0  1.04336  0  0  0.069406  0  1.042047  0  0  0.106736  0.066331  0  1.044312  0
H  H25  1  0.70990564  0.03115415  0.28102236  1  0  0.060196  0  0.972106  0  0  0.067561  0  1.043423  0  0  0.069351  0  1.042116  0  0  0.106681  0.066277  0  1.044374  0
H  H26  1  0.46236444  0.13648344  0.81080601  1  0  0.108293  0  0.970574  0  0  0.115791  0  1.036189  0  0  0.119233  0  1.035107  0  0  0.10517  0.113345  0  1.037061  0
H  H27  1  0.96238342  0.86349758  0.18920095  1  0  0.108433  0  0.970691  0  0  0.115883  0  1.036359  0  0  0.119331  0  1.035262  0  0  0.105175  0.113434  0  1.037233  0
H  H28  1  0.51214597  0.61975949  0.20834110  1  0  -0.191967  0  0.946976  0  0  -0.150084  0  1.04284  0  0  -0.154752  0  1.043904  0  0  0.037847  -0.146891  0  1.042031  0
H  H29  1  0.01216092  0.38024456  0.79164245  1  0  -0.192049  0  0.947013  0  0  -0.150158  0  1.042913  0  0  -0.154832  0  1.043972  0  0  0.03784  -0.14697  0  1.042107  0
H  H30  1  0.23976826  0.50740547  0.24016299  1  0  -0.204358  0  0.978907  0  0  -0.159573  0  1.076652  0  0  -0.164404  0  1.076959  0  0  0.040027  -0.156194  0  1.076245  0
H  H31  1  0.73979614  0.49258403  0.75983594  1  0  -0.20435  0  0.978851  0  0  -0.159541  0  1.076565  0  0  -0.164385  0  1.076887  0  0  0.040065  -0.156166  0  1.07616  0
C  C32  1  0.37204179  0.27370720  0.99356820  1  0  0.120245  0  3.843442  0  0  0.112388  0  4.10306  0  0  0.116143  0  4.124198  0  0  0.080851  0.109909  0  4.08872  0
C  C33  1  0.87210411  0.72628213  0.00643176  1  0  0.119824  0  3.843543  0  0  0.112072  0  4.102985  0  0  0.115837  0  4.124104  0  0  0.080752  0.109582  0  4.08867  0
C  C34  1  0.66828733  0.34498012  0.41854633  1  0  0.109752  0  3.879844  0  0  0.106518  0  4.131578  0  0  0.110493  0  4.153615  0  0  0.079959  0.104083  0  4.116285  0
C  C35  1  0.16828383  0.65503564  0.58144807  1  0  0.109739  0  3.880283  0  0  0.106542  0  4.131921  0  0  0.110515  0  4.153957  0  0  0.079944  0.104099  0  4.116645  0
C  C36  1  0.63586076  0.25239545  0.48999619  1  0  0.084169  0  3.79693  0  0  0.097712  0  4.025356  0  0  0.102274  0  4.045557  0  0  0.010363  0.094638  0  4.011588  0
C  C37  1  0.13584727  0.74761579  0.50999909  1  0  0.084164  0  3.797134  0  0  0.097758  0  4.025434  0  0  0.102321  0  4.045638  0  0  0.01031  0.094685  0  4.011672  0
C  C38  1  0.78557489  0.50997097  0.33837851  1  0  0.01011  0  3.715465  0  0  -0.030931  0  3.96916  0  0  -0.024991  0  3.986472  0  0  0.02236  -0.034384  0  3.957007  0
C  C39  1  0.28559637  0.49004710  0.66161324  1  0  0.009981  0  3.715674  0  0  -0.030983  0  3.969336  0  0  -0.025044  0  3.986638  0  0  0.022316  -0.034439  0  3.957186  0
C  C40  1  0.57787517  0.33619860  0.96829453  1  0  -0.24103  0  3.748984  0  0  -0.257545  0  4.005447  0  0  -0.265508  0  4.025343  0  0  -0.111957  -0.252055  0  3.991784  0
C  C41  1  0.07789973  0.66376634  0.03170779  1  0  -0.240728  0  3.748881  0  0  -0.25731  0  4.005289  0  0  -0.26528  0  4.025185  0  0  -0.111723  -0.251813  0  3.991627  0
C  C42  1  0.84584280  0.44124545  0.41502648  1  0  -0.269818  0  3.793269  0  0  -0.282504  0  4.047316  0  0  -0.292089  0  4.069546  0  0  -0.120927  -0.276261  0  4.032105  0
C  C43  1  0.34583007  0.55875966  0.58494943  1  0  -0.2699  0  3.793343  0  0  -0.282606  0  4.047371  0  0  -0.292157  0  4.069639  0  0  -0.120997  -0.276369  0  4.032151  0
C  C44  1  0.63309917  0.42585171  0.04980267  1  0  0.031493  0  3.671288  0  0  -0.013424  0  3.927795  0  0  -0.006582  0  3.943748  0  0  0.024246  -0.017594  0  3.916717  0
C  C45  1  0.13313597  0.57414021  0.95019251  1  0  0.031699  0  3.671454  0  0  -0.013204  0  3.927999  0  0  -0.006364  0  3.94396  0  0  0.024237  -0.017376  0  3.916919  0
C  C46  1  0.22901670  0.17536049  0.93470333  1  0  0.096661  0  3.781671  0  0  0.108598  0  4.012721  0  0  0.114275  0  4.031835  0  0  0.014968  0.104836  0  3.999832  0
C  C47  1  0.72907223  0.82461301  0.06530649  1  0  0.096689  0  3.781926  0  0  0.108631  0  4.012804  0  0  0.114314  0  4.031907  0  0  0.014796  0.104869  0  3.999923  0
C  C48  1  0.88081408  0.04404273  0.90924869  1  0  0.119318  0  3.762519  0  0  0.094788  0  4.010379  0  0  0.101488  0  4.028532  0  0  0.037501  0.090266  0  3.998166  0
C  C49  1  0.38088532  0.95594195  0.09075094  1  0  0.119196  0  3.76227  0  0  0.094629  0  4.010162  0  0  0.101325  0  4.028317  0  0  0.037367  0.09011  0  3.997944  0
C  C50  1  0.01144393  0.13917142  0.96690400  1  0  -0.161929  0  3.727884  0  0  -0.177308  0  3.969565  0  0  -0.183798  0  3.988483  0  0  -0.085247  -0.17303  0  3.957042  0
C  C51  1  0.51150462  0.86080750  0.03310548  1  0  -0.161729  0  3.728179  0  0  -0.177097  0  3.969823  0  0  -0.183609  0  3.988762  0  0  -0.085126  -0.172811  0  3.957293  0
C  C52  1  0.79588804  0.24602709  0.56504014  1  0  -0.155153  0  3.684541  0  0  -0.170129  0  3.924764  0  0  -0.176973  0  3.944628  0  0  -0.084126  -0.165626  0  3.911454  0
C  C53  1  0.29588523  0.75398335  0.43495171  1  0  -0.155445  0  3.68427  0  0  -0.170452  0  3.924477  0  0  -0.177304  0  3.944353  0  0  -0.084219  -0.165955  0  3.91117  0
C  C54  1  0.44181961  0.16868637  0.48978736  1  0  -0.166163  0  3.723115  0  0  -0.183891  0  3.964722  0  0  -0.190724  0  3.985308  0  0  -0.090125  -0.179391  0  3.950922  0
C  C55  1  0.94181365  0.83133088  0.51022751  1  0  -0.166265  0  3.7231  0  0  -0.184037  0  3.964673  0  0  -0.190871  0  3.985257  0  0  -0.090119  -0.179534  0  3.950876  0
C  C56  1  0.75771021  0.15825668  0.63296399  1  0  0.117402  0  3.755074  0  0  0.093091  0  4.013533  0  0  0.099693  0  4.029628  0  0  0.038858  0.088791  0  4.002561  0
C  C57  1  0.25770050  0.84177610  0.36703450  1  0  0.117846  0  3.754841  0  0  0.093611  0  4.013274  0  0  0.100197  0  4.029363  0  0  0.039056  0.089309  0  4.002303  0
C  C58  1  0.41924173  0.08414209  0.56082596  1  0  0.10629  0  3.779156  0  0  0.086012  0  4.031696  0  0  0.091901  0  4.049983  0  0  0.033187  0.082027  0  4.019255  0
C  C59  1  0.91923288  0.91588932  0.43918852  1  0  0.10634  0  3.778973  0  0  0.086042  0  4.031504  0  0  0.091933  0  4.049789  0  0  0.033223  0.082054  0  4.019056  0
C  C60  1  0.15637956  0.01768065  0.79041472  1  0  0.098707  0  3.798331  0  0  0.076049  0  4.049329  0  0  0.082189  0  4.068539  0  0  0.03492  0.072157  0  4.035882  0
C  C61  1  0.65641039  0.98230363  0.20959887  1  0  0.098557  0  3.797765  0  0  0.07592  0  4.048737  0  0  0.082055  0  4.067943  0  0  0.035001  0.072031  0  4.035287  0
C  C62  1  0.29893751  0.11267780  0.84273580  1  0  -0.17455  0  3.720294  0  0  -0.191473  0  3.965449  0  0  -0.199302  0  3.986202  0  0  -0.08861  -0.186275  0  3.951272  0
C  C63  1  0.79896375  0.88730181  0.15727568  1  0  -0.174532  0  3.720194  0  0  -0.191426  0  3.965276  0  0  -0.199261  0  3.986037  0  0  -0.088561  -0.186226  0  3.951098  0
N  N64  1  0.51289353  0.35534309  0.34720172  1  0  -0.306429  0  2.966101  0  0  -0.266167  0  3.219933  0  0  -0.278213  0  3.239986  0  0  -0.213042  -0.257268  0  3.205659  0
N  N65  1  0.01289033  0.64465160  0.65279087  1  0  -0.306552  0  2.965932  0  0  -0.266293  0  3.219757  0  0  -0.278344  0  3.239812  0  0  -0.213064  -0.257394  0  3.20549  0
N  N66  1  0.30857982  0.32414933  0.08518601  1  0  -0.31248  0  2.981965  0  0  -0.273089  0  3.237986  0  0  -0.285194  0  3.258512  0  0  -0.216806  -0.264424  0  3.223835  0
N  N67  1  0.80861152  0.67584628  0.91481311  1  0  -0.312157  0  2.981858  0  0  -0.272813  0  3.237854  0  0  -0.284921  0  3.25838  0  0  -0.216763  -0.264146  0  3.223708  0
N  N68  1  0.58625231  0.45636008  0.29912386  1  0  -0.066701  0  3.533525  0  0  0.035056  0  3.751742  0  0  0.022274  0  3.779247  0  0  -0.121613  0.043579  0  3.732994  0
N  N69  1  0.08626623  0.54363593  0.70086706  1  0  -0.066616  0  3.533104  0  0  0.035108  0  3.751381  0  0  0.022332  0  3.778864  0  0  -0.12159  0.043632  0  3.73263  0
N  N70  1  0.46871848  0.41682809  0.11833772  1  0  -0.068546  0  3.525876  0  0  0.035757  0  3.741515  0  0  0.022492  0  3.768895  0  0  -0.121873  0.044496  0  3.722868  0
N  N71  1  0.96873584  0.58316441  0.88166708  1  0  -0.068941  0  3.526127  0  0  0.035364  0  3.741795  0  0  0.022097  0  3.76917  0  0  -0.121934  0.044104  0  3.723149  0
N  N72  1  0.57392023  0.07640313  0.63187958  1  0  -0.356546  0  3.116701  0  0  -0.309501  0  3.383184  0  0  -0.322445  0  3.399438  0  0  -0.327558  -0.300525  0  3.371959  0
N  N73  1  0.07390239  0.92362522  0.36812620  1  0  -0.356767  0  3.116689  0  0  -0.309746  0  3.383234  0  0  -0.322695  0  3.399496  0  0  -0.327686  -0.300766  0  3.372004  0
N  N74  1  0.95018598  0.98162852  0.82242709  1  0  -0.346437  0  3.162385  0  0  -0.281708  0  3.420859  0  0  -0.297816  0  3.438771  0  0  -0.322139  -0.270324  0  3.408176  0
N  N75  1  0.45021844  0.01835403  0.17757830  1  0  -0.346418  0  3.161905  0  0  -0.281672  0  3.420351  0  0  -0.297782  0  3.438278  0  0  -0.322174  -0.270288  0  3.407662  0
