# generated using pymatgen
data_CdH8C12S2(BrN2)2
_symmetry_space_group_name_H-M   'P 1'
_cell_length_a   5.78861793
_cell_length_b   9.62085488
_cell_length_c   14.90483639
_cell_angle_alpha   101.74189885
_cell_angle_beta   90.00039297
_cell_angle_gamma   89.99927453
_symmetry_Int_Tables_number   1
_chemical_formula_structural   CdH8C12S2(BrN2)2
_chemical_formula_sum   'Cd2 H16 C24 S4 Br4 N8'
_cell_volume   812.70212165
_cell_formula_units_Z   2
loop_
 _symmetry_equiv_pos_site_id
 _symmetry_equiv_pos_as_xyz
  1  'x, y, z'
loop_
 _atom_site_type_symbol
 _atom_site_label
 _atom_site_symmetry_multiplicity
 _atom_site_fract_x
 _atom_site_fract_y
 _atom_site_fract_z
 _atom_site_occupancy
 _atom_site_hle17_bader_spin_density
 _atom_site_hle17_ddec_charge
 _atom_site_hle17_ddec_spin_density
 _atom_site_hle17_ddec_sum_bond_order
 _atom_site_hle17_magmom
 _atom_site_hse06_10hf_bader_spin_density
 _atom_site_hse06_10hf_ddec_charge
 _atom_site_hse06_10hf_ddec_spin_density
 _atom_site_hse06_10hf_ddec_sum_bond_order
 _atom_site_hse06_10hf_magmom
 _atom_site_hse06_bader_spin_density
 _atom_site_hse06_ddec_charge
 _atom_site_hse06_ddec_spin_density
 _atom_site_hse06_ddec_sum_bond_order
 _atom_site_hse06_magmom
 _atom_site_pbe_bader_spin_density
 _atom_site_pbe_cm5_charge
 _atom_site_pbe_ddec_charge
 _atom_site_pbe_ddec_spin_density
 _atom_site_pbe_ddec_sum_bond_order
 _atom_site_pbe_magmom
Cd  Cd0  1  0.49999851  0.49999858  0.50000043  1  0  0.963341  0  1.989859  0  0  0.782886  0  2.456182  0  0  0.827746  0  2.41947  0  0  0.725092  0.751708  0  2.480757  0
Cd  Cd1  1  0.00000864  0.99999784  0.00000239  1  0  0.963315  0  1.989849  0  0  0.782854  0  2.45617  0  0  0.827714  0  2.419461  0  0  0.725074  0.751672  0  2.480756  0
H  H2  1  0.73315472  0.80859578  0.54038484  1  0  0.079912  0  0.973463  0  0  0.082894  0  1.048343  0  0  0.085916  0  1.045727  0  0  0.100711  0.080709  0  1.050216  0
H  H3  1  0.23316420  0.69139000  0.95961793  1  0  0.079948  0  0.973504  0  0  0.082908  0  1.048394  0  0  0.085927  0  1.045781  0  0  0.100711  0.080724  0  1.050275  0
H  H4  1  0.26684057  0.19139614  0.45961060  1  0  0.079888  0  0.973349  0  0  0.082864  0  1.048246  0  0  0.085884  0  1.045634  0  0  0.10069  0.08068  0  1.050122  0
H  H5  1  0.76684319  0.30861451  0.04038930  1  0  0.079804  0  0.973336  0  0  0.082784  0  1.048205  0  0  0.085804  0  1.045593  0  0  0.100671  0.080598  0  1.050075  0
H  H6  1  0.32857073  0.12229776  0.72392401  1  0  0.105365  0  0.956151  0  0  0.110558  0  1.027964  0  0  0.114139  0  1.024804  0  0  0.096765  0.107953  0  1.030268  0
H  H7  1  0.82856167  0.37769877  0.77607373  1  0  0.105343  0  0.956049  0  0  0.110554  0  1.027835  0  0  0.114136  0  1.024673  0  0  0.096743  0.107945  0  1.030141  0
H  H8  1  0.67140729  0.87769850  0.27606532  1  0  0.105287  0  0.956072  0  0  0.110568  0  1.027789  0  0  0.114149  0  1.024628  0  0  0.096751  0.10796  0  1.0301  0
H  H9  1  0.17142844  0.62230687  0.22392896  1  0  0.105251  0  0.95626  0  0  0.110517  0  1.027983  0  0  0.1141  0  1.024827  0  0  0.096721  0.10791  0  1.030296  0
H  H10  1  0.05557599  0.92691023  0.74074964  1  0  0.104981  0  0.959053  0  0  0.110757  0  1.026524  0  0  0.113733  0  1.026101  0  0  0.099232  0.108613  0  1.026995  0
H  H11  1  0.55557352  0.57310008  0.75925616  1  0  0.104907  0  0.95913  0  0  0.110696  0  1.026588  0  0  0.11367  0  1.026171  0  0  0.099235  0.108569  0  1.027038  0
H  H12  1  0.94441412  0.07308491  0.25924356  1  0  0.10496  0  0.959079  0  0  0.110734  0  1.026555  0  0  0.11371  0  1.026131  0  0  0.099216  0.108594  0  1.027024  0
H  H13  1  0.44442004  0.42690980  0.24074711  1  0  0.104932  0  0.95913  0  0  0.110716  0  1.026589  0  0  0.113687  0  1.026175  0  0  0.099252  0.108576  0  1.027055  0
H  H14  1  0.13293650  0.68027082  0.65254314  1  0  0.077335  0  0.968708  0  0  0.085339  0  1.034964  0  0  0.086763  0  1.034673  0  0  0.107183  0.084252  0  1.035256  0
H  H15  1  0.63294943  0.81973036  0.84746961  1  0  0.077285  0  0.968875  0  0  0.085304  0  1.035106  0  0  0.086716  0  1.034816  0  0  0.107233  0.084217  0  1.035402  0
H  H16  1  0.86706916  0.31972416  0.34746077  1  0  0.077346  0  0.968795  0  0  0.085362  0  1.035035  0  0  0.086783  0  1.034746  0  0  0.107203  0.084276  0  1.035329  0
H  H17  1  0.36706141  0.18027737  0.15253538  1  0  0.077362  0  0.968797  0  0  0.085361  0  1.035046  0  0  0.086777  0  1.034762  0  0  0.107216  0.084276  0  1.03534  0
C  C18  1  0.99450151  0.56747993  0.40185710  1  0  0.297257  0  4.015684  0  0  0.278809  0  4.313521  0  0  0.300571  0  4.327112  0  0  0.141695  0.264016  0  4.303975  0
C  C19  1  0.49451782  0.93252418  0.09814969  1  0  0.297213  0  4.015771  0  0  0.278758  0  4.313625  0  0  0.300523  0  4.327208  0  0  0.141658  0.263963  0  4.304078  0
C  C20  1  0.00549896  0.43251497  0.59815217  1  0  0.297094  0  4.015656  0  0  0.278635  0  4.313526  0  0  0.3004  0  4.327113  0  0  0.141623  0.26384  0  4.303978  0
C  C21  1  0.50549302  0.06747942  0.90184735  1  0  0.297165  0  4.015696  0  0  0.278705  0  4.313562  0  0  0.300473  0  4.327139  0  0  0.141676  0.263909  0  4.304018  0
C  C22  1  0.58566374  0.83837493  0.58571517  1  0  0.063953  0  3.737182  0  0  0.026655  0  3.989665  0  0  0.033556  0  4.006218  0  0  0.029089  0.022266  0  3.978363  0
C  C23  1  0.08567285  0.66161505  0.91428522  1  0  0.063824  0  3.737353  0  0  0.026551  0  3.989845  0  0  0.033445  0  4.006408  0  0  0.029071  0.022157  0  3.978549  0
C  C24  1  0.41434364  0.16161596  0.41427812  1  0  0.063986  0  3.737049  0  0  0.02671  0  3.98952  0  0  0.03362  0  4.006056  0  0  0.029161  0.022322  0  3.978213  0
C  C25  1  0.91435354  0.33839477  0.08572207  1  0  0.064059  0  3.736973  0  0  0.026849  0  3.989365  0  0  0.033746  0  4.005931  0  0  0.029236  0.02247  0  3.978042  0
C  C26  1  0.55076487  0.97849539  0.63124700  1  0  0.035819  0  3.71884  0  0  0.055014  0  3.987306  0  0  0.053723  0  4.009175  0  0  -0.01699  0.055391  0  3.972763  0
C  C27  1  0.05076749  0.52149584  0.86875684  1  0  0.035767  0  3.718636  0  0  0.054976  0  3.987089  0  0  0.053691  0  4.008955  0  0  -0.017042  0.055357  0  3.972534  0
C  C28  1  0.44921660  0.02148903  0.36875210  1  0  0.035537  0  3.718316  0  0  0.054737  0  3.986836  0  0  0.053441  0  4.008722  0  0  -0.017183  0.055118  0  3.972288  0
C  C29  1  0.94923644  0.47851834  0.13124366  1  0  0.035636  0  3.71825  0  0  0.054823  0  3.986764  0  0  0.053533  0  4.008646  0  0  -0.017148  0.055198  0  3.972215  0
C  C30  1  0.35894150  0.01356683  0.68774312  1  0  -0.053914  0  3.730119  0  0  -0.081805  0  3.981254  0  0  -0.079328  0  3.9997  0  0  -0.076282  -0.08313  0  3.968824  0
C  C31  1  0.85893424  0.48643260  0.81226044  1  0  -0.053942  0  3.729899  0  0  -0.081828  0  3.98105  0  0  -0.079353  0  3.999496  0  0  -0.076281  -0.083145  0  3.968611  0
C  C32  1  0.64106762  0.98643361  0.31225148  1  0  -0.053714  0  3.729852  0  0  -0.08166  0  3.981009  0  0  -0.079185  0  3.999462  0  0  -0.076195  -0.082983  0  3.968574  0
C  C33  1  0.14107314  0.51358257  0.18774490  1  0  -0.05375  0  3.729825  0  0  -0.081714  0  3.981036  0  0  -0.07921  0  3.999409  0  0  -0.076223  -0.083054  0  3.968651  0
C  C34  1  0.20662560  0.90462297  0.69642422  1  0  -0.095119  0  3.723616  0  0  -0.104154  0  3.973401  0  0  -0.110535  0  3.994349  0  0  -0.083663  -0.10018  0  3.959453  0
C  C35  1  0.70662193  0.59537465  0.80358080  1  0  -0.094951  0  3.72344  0  0  -0.104001  0  3.973258  0  0  -0.110381  0  3.994203  0  0  -0.08363  -0.100042  0  3.959291  0
C  C36  1  0.79336796  0.09536365  0.30356982  1  0  -0.095156  0  3.723692  0  0  -0.104192  0  3.973513  0  0  -0.110574  0  3.994463  0  0  -0.08367  -0.100219  0  3.959557  0
C  C37  1  0.29336646  0.40463204  0.19642271  1  0  -0.095068  0  3.723641  0  0  -0.104111  0  3.973465  0  0  -0.110492  0  3.994422  0  0  -0.083696  -0.100133  0  3.959503  0
C  C38  1  0.25002558  0.76736559  0.64812521  1  0  0.114342  0  3.695277  0  0  0.08393  0  3.942711  0  0  0.090833  0  3.961344  0  0  0.036961  0.079481  0  3.929982  0
C  C39  1  0.75002851  0.73263491  0.85188095  1  0  0.114447  0  3.695194  0  0  0.084029  0  3.942659  0  0  0.09095  0  3.961276  0  0  0.03698  0.079577  0  3.929939  0
C  C40  1  0.74998526  0.23263269  0.35187110  1  0  0.114414  0  3.694636  0  0  0.083979  0  3.94208  0  0  0.090891  0  3.960703  0  0  0.036964  0.079527  0  3.929359  0
C  C41  1  0.24998060  0.26737063  0.14812776  1  0  0.114377  0  3.695106  0  0  0.083962  0  3.942569  0  0  0.090872  0  3.961197  0  0  0.036977  0.079509  0  3.929844  0
S  S42  1  0.74181159  0.62339376  0.37625206  1  0  -0.333796  0  2.184907  0  0  -0.303448  0  2.523781  0  0  -0.319573  0  2.516081  0  0  -0.135497  -0.29202  0  2.528801  0
S  S43  1  0.24181595  0.87660259  0.12374514  1  0  -0.333779  0  2.184814  0  0  -0.303413  0  2.523689  0  0  -0.319538  0  2.515987  0  0  -0.13546  -0.29198  0  2.528706  0
S  S44  1  0.25819752  0.37659176  0.62374452  1  0  -0.333752  0  2.185064  0  0  -0.303389  0  2.523925  0  0  -0.319513  0  2.516223  0  0  -0.135487  -0.291965  0  2.528941  0
S  S45  1  0.75818625  0.12340521  0.87625516  1  0  -0.333795  0  2.184958  0  0  -0.303432  0  2.523815  0  0  -0.319556  0  2.516106  0  0  -0.135482  -0.292001  0  2.528827  0
Br  Br46  1  0.76576883  0.11937402  0.61348822  1  0  -0.034681  0  1.35476  0  0  -0.025716  0  1.625139  0  0  -0.032653  0  1.622307  0  0  0.060851  -0.02081  0  1.627376  0
Br  Br47  1  0.26578609  0.38062605  0.88651391  1  0  -0.034633  0  1.354727  0  0  -0.02568  0  1.625109  0  0  -0.032619  0  1.622279  0  0  0.060873  -0.020778  0  1.627341  0
Br  Br48  1  0.23421437  0.88061903  0.38650268  1  0  -0.034471  0  1.354798  0  0  -0.025528  0  1.62521  0  0  -0.032461  0  1.622381  0  0  0.060965  -0.020623  0  1.627448  0
Br  Br49  1  0.73419883  0.61938067  0.11348759  1  0  -0.034603  0  1.354683  0  0  -0.025653  0  1.625082  0  0  -0.032593  0  1.622249  0  0  0.060881  -0.020744  0  1.627323  0
N  N50  1  0.17765091  0.52383268  0.41782663  1  0  -0.531105  0  2.908544  0  0  -0.474783  0  3.187941  0  0  -0.496155  0  3.195759  0  0  -0.398415  -0.460128  0  3.182397  0
N  N51  1  0.67765757  0.97616834  0.08217109  1  0  -0.531073  0  2.9088  0  0  -0.474747  0  3.188185  0  0  -0.496118  0  3.196  0  0  -0.398398  -0.460092  0  3.182642  0
N  N52  1  0.82234956  0.47615496  0.58217024  1  0  -0.530989  0  2.908296  0  0  -0.474647  0  3.187665  0  0  -0.496018  0  3.195483  0  0  -0.398375  -0.459996  0  3.182122  0
N  N53  1  0.32235154  0.02383841  0.91782840  1  0  -0.531001  0  2.908446  0  0  -0.474669  0  3.187835  0  0  -0.496038  0  3.195645  0  0  -0.398419  -0.460016  0  3.182295  0
N  N54  1  0.43632886  0.73492236  0.59377596  1  0  -0.31202  0  3.271349  0  0  -0.235511  0  3.531695  0  0  -0.254891  0  3.552976  0  0  -0.324171  -0.222277  0  3.516853  0
N  N55  1  0.93634785  0.76506742  0.90622439  1  0  -0.312002  0  3.271389  0  0  -0.235525  0  3.531775  0  0  -0.254905  0  3.553051  0  0  -0.324214  -0.222299  0  3.516947  0
N  N56  1  0.56365607  0.26507374  0.40622408  1  0  -0.312102  0  3.271086  0  0  -0.23561  0  3.53148  0  0  -0.25499  0  3.55276  0  0  -0.324223  -0.222383  0  3.516646  0
N  N57  1  0.06366299  0.23493396  0.09377839  1  0  -0.312038  0  3.271319  0  0  -0.235562  0  3.531691  0  0  -0.254945  0  3.552974  0  0  -0.324215  -0.222333  0  3.516848  0
