# generated using pymatgen
data_Co3H34C36(N5O9)2
_symmetry_space_group_name_H-M   'P 1'
_cell_length_a   10.38382125
_cell_length_b   12.02185784
_cell_length_c   12.45452050
_cell_angle_alpha   67.38054141
_cell_angle_beta   70.26097369
_cell_angle_gamma   65.28631679
_symmetry_Int_Tables_number   1
_chemical_formula_structural   Co3H34C36(N5O9)2
_chemical_formula_sum   'Co3 H34 C36 N10 O18'
_cell_volume   1274.34160064
_cell_formula_units_Z   1
loop_
 _symmetry_equiv_pos_site_id
 _symmetry_equiv_pos_as_xyz
  1  'x, y, z'
loop_
 _atom_site_type_symbol
 _atom_site_label
 _atom_site_symmetry_multiplicity
 _atom_site_fract_x
 _atom_site_fract_y
 _atom_site_fract_z
 _atom_site_occupancy
 _atom_site_pbe_bader_charge
 _atom_site_pbe_bader_spin_density
 _atom_site_pbe_cm5_charge
 _atom_site_pbe_ddec_charge
 _atom_site_pbe_ddec_spin_density
 _atom_site_pbe_ddec_sum_bond_order
 _atom_site_pbe_magmom
Co  Co0  1  0.83603601  0.41223174  0.91063646  1  1.230081  2.575311  0.667482  0.852621  2.747162  2.562969  2.527
Co  Co1  1  0.16224851  0.58760334  0.08972242  1  1.228801  -2.552166  0.667576  0.860897  -2.758925  2.540382  -2.5
Co  Co2  1  0.50345632  0.49975819  0.99810625  1  1.312169  2.596546  0.628732  0.995689  2.805383  2.302785  2.584
H  H3  1  0.49487522  0.20447595  0.01019749  1  0.135917  8e-05  0.113976  0.13012  -5.3e-05  1.028494  0.0
H  H4  1  0.50435781  0.79574856  0.98985647  1  0.137716  6.1e-05  0.113872  0.129656  -7.5e-05  1.029008  0.0
H  H5  1  0.08721661  0.52675048  0.84192473  1  0.12589  0.00084  0.124961  0.125695  0.000185  0.994722  0.001
H  H6  1  0.91175893  0.47341895  0.15825185  1  0.130439  -0.000816  0.125123  0.125505  -0.000182  0.99497  -0.001
H  H7  1  0.90414053  0.07753372  0.25996673  1  0.094875  0.000111  0.115349  0.098276  3.2e-05  1.000148  0.0
H  H8  1  0.09646175  0.92219932  0.74008677  1  0.093543  -0.000102  0.114989  0.098018  -5e-05  1.001245  0.0
H  H9  1  0.89526200  0.22768095  0.26304635  1  0.115525  0.000112  0.115257  0.093397  1.1e-05  0.994385  0.0
H  H10  1  0.10482700  0.77228389  0.73690270  1  0.117322  9.5e-05  0.114966  0.092854  9.8e-05  0.995248  0.0
H  H11  1  0.36485545  0.37072523  0.87706296  1  0.197778  0.000592  0.126044  0.141511  0.000157  1.045938  0.0
H  H12  1  0.63415073  0.62950322  0.12295015  1  0.195168  -0.000589  0.125667  0.141336  -0.000376  1.047545  0.0
H  H13  1  0.60084337  0.35854564  0.66611593  1  0.026134  -0.000468  0.10949  0.133036  -0.000244  0.951251  0.0
H  H14  1  0.39954243  0.64101501  0.33366656  1  0.024675  -1.1e-05  0.109045  0.132615  2e-06  0.952524  0.0
H  H15  1  0.61547651  0.21693585  0.78608640  1  0.087367  0.001053  0.099894  0.116665  0.000425  1.011506  0.001
H  H16  1  0.38495659  0.78267965  0.21382256  1  0.08558  -0.00129  0.099547  0.115894  -0.000544  1.012724  -0.001
H  H17  1  0.29921976  0.99130171  0.94002753  1  0.105715  -2.2e-05  0.115247  0.127258  -5e-06  0.9899  0.0
H  H18  1  0.70006269  0.00892683  0.05992579  1  0.106204  0.000208  0.115019  0.126706  0.000114  0.989814  0.0
H  H19  1  0.08877989  0.14659135  0.00025700  1  0.175022  0.000605  0.146612  0.123871  0.00011  0.989688  0.0
H  H20  1  0.91053079  0.85344451  0.00012593  1  0.177295  -0.000552  0.146533  0.123977  -8.1e-05  0.990765  -0.001
H  H21  1  0.87075151  0.29267543  0.59908012  1  0.098482  0.000152  0.122356  0.110381  3.5e-05  0.968147  0.0
H  H22  1  0.12960813  0.70726139  0.40088560  1  0.098191  -0.000149  0.122059  0.109772  -3.9e-05  0.968916  0.0
H  H23  1  0.89083576  0.15960445  0.72809179  1  0.112178  9.3e-05  0.119945  0.10769  -2.6e-05  0.970033  0.0
H  H24  1  0.10962925  0.84029725  0.27188706  1  0.116296  -7.6e-05  0.119549  0.107057  2.8e-05  0.97085  0.0
H  H25  1  0.64153218  0.15370100  0.27242299  1  0.071007  0.001335  0.106219  0.130046  0.000484  0.979468  0.001
H  H26  1  0.35916159  0.84526880  0.72776937  1  0.061922  0.00036  0.105896  0.129239  0.000151  0.979876  0.0
H  H27  1  0.62117046  0.30375084  0.28636831  1  0.078438  0.000941  0.107301  0.136273  0.000298  0.957814  0.001
H  H28  1  0.37874481  0.69525337  0.71434544  1  0.075401  -0.000962  0.105731  0.134373  -0.000419  0.958976  -0.001
H  H29  1  0.60514675  0.87519130  0.77013509  1  0.06943  -1.1e-05  0.103559  0.123014  -3.3e-05  0.996812  0.0
H  H30  1  0.39524638  0.12541747  0.22951744  1  0.070992  -0.000456  0.10334  0.122705  -0.000189  0.998551  0.0
H  H31  1  0.61988260  0.81493337  0.65583088  1  0.057202  0.000588  0.109079  0.131634  0.000203  0.961208  0.0
H  H32  1  0.38047260  0.18591148  0.34365083  1  0.057236  -0.000994  0.107669  0.130709  -0.000405  0.962385  0.0
H  H33  1  0.88416745  0.78343002  0.73697271  1  0.114254  0.000234  0.114721  0.093536  5.8e-05  1.006018  0.0
H  H34  1  0.11618312  0.21637150  0.26319605  1  0.120426  -0.000239  0.114457  0.093402  -6.4e-05  1.006964  0.0
H  H35  1  0.88647815  0.75697459  0.60532271  1  0.122693  2.8e-05  0.119668  0.10707  -4e-05  0.971138  0.0
H  H36  1  0.11398868  0.24277621  0.39482426  1  0.133912  -6e-06  0.119733  0.106684  4.1e-05  0.971752  0.0
C  C37  1  0.81468180  0.02139091  0.66633145  1  1.812323  0.000236  0.340371  0.543574  0.000148  4.171306  0.0
C  C38  1  0.18592124  0.97842702  0.33367611  1  1.814723  7.9e-05  0.342031  0.545968  3.6e-05  4.169827  0.0
C  C39  1  0.81300554  0.19735832  0.48057431  1  1.796061  0.000186  0.337418  0.542843  0.000113  4.178137  0.0
C  C40  1  0.18757995  0.80245152  0.51938828  1  1.794992  6e-05  0.337693  0.543907  3.4e-05  4.177528  0.0
C  C41  1  0.81715681  0.98991923  0.48121370  1  1.804311  0.000212  0.334853  0.53893  0.000145  4.187573  0.0
C  C42  1  0.18342826  0.00985686  0.51883483  1  1.805355  4.4e-05  0.335401  0.539981  2e-05  4.186174  0.0
C  C43  1  0.49680654  0.11529379  0.00509285  1  -0.056291  0.001871  -0.087714  -0.153896  0.000963  3.969617  0.001
C  C44  1  0.50243176  0.88494103  0.99493404  1  -0.021992  -0.001475  -0.08801  -0.152803  -0.00078  3.969062  -0.001
C  C45  1  0.38307432  0.11093501  0.97237229  1  0.323355  -0.001032  0.097939  0.164191  -0.000453  4.012134  -0.001
C  C46  1  0.61615974  0.88928941  0.02767097  1  0.260836  0.001253  0.098792  0.164895  0.000556  4.01184  0.001
C  C47  1  0.67521086  0.35389469  0.80899374  1  1.559323  -0.003453  0.225192  0.65047  -0.000683  4.094589  -0.003
C  C48  1  0.32498951  0.64585646  0.19070263  1  1.567439  -0.000429  0.224989  0.652129  -0.000855  4.095413  -0.001
C  C49  1  0.12948153  0.42441748  0.88010654  1  0.374797  0.004227  0.008341  -0.013352  0.002417  3.975093  0.004
C  C50  1  0.86947681  0.57577606  0.12009311  1  0.379988  -0.003982  0.005963  -0.014451  -0.002435  3.976696  -0.004
C  C51  1  0.83666313  0.15979048  0.29429599  1  0.288407  0.000938  -0.057494  -0.025308  0.000438  3.900787  0.001
C  C52  1  0.16375372  0.83990215  0.70578354  1  0.293127  -0.000253  -0.058242  -0.026562  -5.2e-05  3.902025  0.0
C  C53  1  0.26706599  0.34831987  0.89542841  1  0.295676  0.001695  0.00385  -0.095108  0.000912  3.866807  0.001
C  C54  1  0.73194870  0.65192696  0.10460185  1  0.289593  -0.001539  0.003327  -0.095921  -0.00087  3.866261  -0.001
C  C55  1  0.66955542  0.28783674  0.72951204  1  -0.019975  0.010057  -0.156575  -0.308823  0.005345  3.89265  0.008
C  C56  1  0.33077519  0.71184147  0.27036129  1  -0.001295  -0.001524  -0.157487  -0.31024  -0.000724  3.894614  -0.001
C  C57  1  0.73863838  0.27203729  0.11572810  1  1.541826  0.009279  0.21566  0.647255  0.006641  4.086414  0.005
C  C58  1  0.26118117  0.72796514  0.88487320  1  1.541984  0.005981  0.215237  0.647182  0.003048  4.087597  0.006
C  C59  1  0.38618545  0.99576011  0.96690259  1  0.000196  0.001555  -0.080601  -0.141152  0.000776  3.961299  0.001
C  C60  1  0.61308039  0.00448018  0.03308392  1  0.049839  -0.001304  -0.08038  -0.139836  -0.000651  3.960153  -0.001
C  C61  1  0.12546399  0.22858737  0.95948636  1  0.979288  0.006624  0.152598  0.111958  0.003789  3.869523  0.005
C  C62  1  0.87365222  0.77156849  0.04086027  1  0.98075  -0.004538  0.151438  0.110971  -0.002686  3.871828  -0.003
C  C63  1  0.82055091  0.22291897  0.66475642  1  0.311412  0.001562  -0.059758  -0.022686  0.000826  3.894409  0.001
C  C64  1  0.17992728  0.77692009  0.33517653  1  0.286975  0.000542  -0.059336  -0.02075  0.000337  3.895093  0.001
C  C65  1  0.69487997  0.22408408  0.24957108  1  -0.035026  0.002893  -0.162785  -0.315345  0.001603  3.891754  0.002
C  C66  1  0.30530561  0.77517995  0.75086838  1  -0.025943  -0.001187  -0.161882  -0.312771  -0.000721  3.891539  -0.001
C  C67  1  0.67452028  0.80169102  0.72389520  1  -0.03517  0.009695  -0.159822  -0.313904  0.005152  3.893211  0.007
C  C68  1  0.32573594  0.19885450  0.27579109  1  -0.038464  -0.000665  -0.159102  -0.314346  -0.000281  3.892662  0.0
C  C69  1  0.68223790  0.67205110  0.81383265  1  1.56972  -0.002273  0.224622  0.651396  -3e-06  4.10472  -0.003
C  C70  1  0.31749227  0.32866686  0.18564757  1  1.578753  -0.001255  0.225034  0.65058  -0.001328  4.103834  0.0
C  C71  1  0.82449280  0.81462897  0.66740157  1  0.251938  0.001721  -0.063481  -0.024473  0.000901  3.907402  0.001
C  C72  1  0.17604322  0.18528557  0.33260291  1  0.235599  0.000336  -0.064048  -0.024251  0.000234  3.905861  0.0
N  N73  1  0.26348692  0.22391005  0.94507840  1  -1.258698  0.008553  -0.217637  0.019308  0.004071  3.77452  0.007
N  N74  1  0.73561543  0.77629767  0.05506306  1  -1.26059  -0.007703  -0.217868  0.0188  -0.003744  3.775301  -0.006
N  N75  1  0.04208108  0.34901525  0.92047601  1  -1.244732  0.065326  -0.366159  -0.318668  0.034065  3.664534  0.039
N  N76  1  0.95688021  0.65114453  0.07992023  1  -1.246189  -0.064918  -0.366872  -0.321534  -0.034081  3.677046  -0.039
N  N77  1  0.81787645  0.94725313  0.60211623  1  -1.198374  0.000635  -0.255356  -0.247029  0.000281  3.629817  0.0
N  N78  1  0.18305135  0.05249048  0.39785796  1  -1.192812  0.000316  -0.257014  -0.249417  0.000168  3.628226  0.0
N  N79  1  0.81627532  0.14428298  0.60100840  1  -1.206421  0.000642  -0.253118  -0.242387  0.000287  3.625028  0.0
N  N80  1  0.18442368  0.85549442  0.39894073  1  -1.205453  0.000301  -0.254  -0.245171  0.000155  3.625937  0.0
N  N81  1  0.81844347  0.11464254  0.42409986  1  -1.20347  0.000248  -0.255764  -0.246391  9.4e-05  3.62151  0.0
N  N82  1  0.18225517  0.88508176  0.57591440  1  -1.213213  -0.00013  -0.256144  -0.246808  -6.7e-05  3.621219  0.0
O  O83  1  0.80861000  0.59298171  0.82636236  1  -1.152557  0.087642  -0.310126  -0.5381  0.044907  2.369516  0.071
O  O84  1  0.19070903  0.40634706  0.17224086  1  -1.156415  -0.077293  -0.313213  -0.540604  -0.040014  2.363225  -0.059
O  O85  1  0.82033413  0.19753818  0.05472425  1  -1.158283  0.05447  -0.299177  -0.522767  0.027071  2.076651  0.045
O  O86  1  0.17797902  0.80317989  0.94479262  1  -1.162548  -0.024649  -0.300018  -0.524809  -0.012509  2.07734  -0.02
O  O87  1  0.70087833  0.39713517  0.06727871  1  -1.146763  0.129287  -0.329941  -0.607183  0.068603  2.472767  0.104
O  O88  1  0.30049964  0.60302353  0.93427720  1  -1.1462  -0.055537  -0.328866  -0.606949  -0.027834  2.45748  -0.043
O  O89  1  0.79780981  0.36282585  0.79717419  1  -1.133968  0.097717  -0.307699  -0.525639  0.049963  2.369554  0.078
O  O90  1  0.20158588  0.63893942  0.20172233  1  -1.138362  -0.08263  -0.31045  -0.53113  -0.042687  2.364381  -0.062
O  O91  1  0.55933128  0.39436529  0.88162387  1  -1.171966  0.059467  -0.30618  -0.578486  0.032447  2.394664  0.052
O  O92  1  0.44133259  0.60419738  0.11914593  1  -1.177067  0.04784  -0.306345  -0.577955  0.026461  2.3762  0.04
O  O93  1  0.56349421  0.65156071  0.87046734  1  -1.170724  0.059943  -0.308174  -0.580604  0.032782  2.387861  0.052
O  O94  1  0.43568465  0.35031799  0.12997572  1  -1.181215  0.043114  -0.307457  -0.57853  0.024117  2.363848  0.037
O  O95  1  0.81745934  0.92208786  0.42836450  1  -1.125045  0.000219  -0.285419  -0.468925  8.6e-05  2.072325  0.0
O  O96  1  0.18270917  0.07778126  0.57179975  1  -1.126175  6.9e-05  -0.28655  -0.470292  3.8e-05  2.071813  0.0
O  O97  1  0.81239387  0.98017192  0.77365864  1  -1.138838  0.000187  -0.276477  -0.480002  7.2e-05  2.158974  0.0
O  O98  1  0.18784052  0.01980195  0.22641284  1  -1.137963  9.9e-05  -0.277186  -0.480746  4.9e-05  2.15999  0.0
O  O99  1  0.80852211  0.30813256  0.42699031  1  -1.130366  0.000189  -0.283297  -0.473243  8.1e-05  2.086179  0.0
O  O100  1  0.19182076  0.69171841  0.57302464  1  -1.131295  2.4e-05  -0.284183  -0.474176  1e-06  2.085465  0.0
