# generated using pymatgen
data_DyPH15C7NO7
_symmetry_space_group_name_H-M   'P 1'
_cell_length_a   5.34800309
_cell_length_b   12.68813446
_cell_length_c   19.84460351
_cell_angle_alpha   89.99993159
_cell_angle_beta   89.20774888
_cell_angle_gamma   90.00061087
_symmetry_Int_Tables_number   1
_chemical_formula_structural   DyPH15C7NO7
_chemical_formula_sum   'Dy4 P4 H60 C28 N4 O28'
_cell_volume   1346.45030449
_cell_formula_units_Z   4
loop_
 _symmetry_equiv_pos_site_id
 _symmetry_equiv_pos_as_xyz
  1  'x, y, z'
loop_
 _atom_site_type_symbol
 _atom_site_label
 _atom_site_symmetry_multiplicity
 _atom_site_fract_x
 _atom_site_fract_y
 _atom_site_fract_z
 _atom_site_occupancy
 _atom_site_pbe_bader_charge
 _atom_site_pbe_bader_spin_density
 _atom_site_pbe_cm5_charge
 _atom_site_pbe_ddec_charge
 _atom_site_pbe_ddec_spin_density
 _atom_site_pbe_ddec_sum_bond_order
 _atom_site_pbe_magmom
Dy  Dy0  1  0.87456903  0.64039025  0.52482569  1  2.166061  0  1.547103  2.132367  0  2.112113  0
Dy  Dy1  1  0.12545106  0.14040043  0.97517497  1  2.166089  0  1.547066  2.132541  0  2.111799  0
Dy  Dy2  1  0.12544269  0.35959556  0.47517707  1  2.166243  0  1.547079  2.132413  0  2.112101  0
Dy  Dy3  1  0.87456697  0.85960744  0.02482484  1  2.165926  0  1.547082  2.132409  0  2.112039  0
P  P4  1  0.61764889  0.52267746  0.40886112  1  3.320372  0  0.322953  1.34591  0  5.37869  0
P  P5  1  0.38236560  0.02268574  0.09114020  1  3.32057  0  0.322752  1.345364  0  5.379146  0
P  P6  1  0.38236180  0.47731780  0.59113809  1  3.320607  0  0.322905  1.345712  0  5.378809  0
P  P7  1  0.61764124  0.97731662  0.90885946  1  3.320541  0  0.32281  1.345581  0  5.378969  0
H  H8  1  0.91722685  0.57685720  0.32163825  1  -0.007754  0  0.101076  0.087802  0  1.029165  0
H  H9  1  0.77893719  0.45466636  0.30632438  1  0.099609  0  0.122072  0.139162  0  1.008299  0
H  H10  1  0.73824529  0.72912984  0.26140985  1  0.010214  0  0.088642  0.057063  0  1.000628  0
H  H11  1  0.53388421  0.72185005  0.33292600  1  0.014401  0  0.10088  0.084757  0  1.006089  0
H  H12  1  0.16303985  0.72179492  0.25849117  1  0.02106  0  0.085398  0.073226  0  1.028669  0
H  H13  1  0.35907004  0.83060098  0.24010200  1  0.013154  0  0.093085  0.088464  0  1.027407  0
H  H14  1  0.55678795  0.73598084  0.14568273  1  0.088496  0  0.114472  0.102977  0  0.990386  0
H  H15  1  0.41456364  0.55931156  0.11051041  1  0.006887  0  0.092415  0.092113  0  0.99369  0
H  H16  1  0.20036733  0.55436386  0.18006786  1  0.050376  0  0.090194  0.084254  0  0.999886  0
H  H17  1  0.58883502  0.45945320  0.20736614  1  -0.005204  0  0.102193  0.078336  0  0.996108  0
H  H18  1  0.77227666  0.57230238  0.18629878  1  0.015152  0  0.090018  0.057313  0  0.990773  0
H  H19  1  0.28203899  0.67720688  0.43039991  1  0.649625  0  0.299331  0.415529  0  0.917976  0
H  H20  1  0.04588314  0.67313015  0.38296222  1  0.591947  0  0.311023  0.387147  0  0.931326  0
H  H21  1  0.69414321  0.84440570  0.48008522  1  0.617478  0  0.335838  0.420871  0  0.858827  0
H  H22  1  0.48575839  0.79700655  0.53112616  1  0.664247  0  0.295528  0.398989  0  0.942128  0
H  H23  1  0.08276394  0.07685762  0.17835814  1  -0.007714  0  0.101099  0.087823  0  1.029083  0
H  H24  1  0.22106124  0.95466387  0.19367172  1  0.099603  0  0.122067  0.139163  0  1.008269  0
H  H25  1  0.26174345  0.22912620  0.23859544  1  0.0103  0  0.088648  0.057038  0  1.000664  0
H  H26  1  0.46611193  0.22185066  0.16707890  1  0.014545  0  0.100877  0.08476  0  1.006061  0
H  H27  1  0.83695244  0.22179230  0.24151419  1  0.021082  0  0.085374  0.073132  0  1.028733  0
H  H28  1  0.64090699  0.33060216  0.25990808  1  0.013126  0  0.093039  0.08844  0  1.027364  0
H  H29  1  0.44321704  0.23598565  0.35432581  1  0.087754  0  0.114486  0.103004  0  0.990426  0
H  H30  1  0.58536870  0.05931063  0.38949380  1  0.007092  0  0.092339  0.091956  0  0.993662  0
H  H31  1  0.79958457  0.05434907  0.31994015  1  0.050374  0  0.090106  0.084224  0  0.999768  0
H  H32  1  0.41109408  0.95945528  0.29263862  1  -0.005131  0  0.102206  0.078384  0  0.996067  0
H  H33  1  0.22767248  0.07231181  0.31369907  1  0.015108  0  0.090099  0.057417  0  0.990707  0
H  H34  1  0.71797637  0.17721909  0.06959823  1  0.649662  0  0.299349  0.415605  0  0.917904  0
H  H35  1  0.95412548  0.17313544  0.11703229  1  0.592034  0  0.311025  0.387184  0  0.931279  0
H  H36  1  0.30587623  0.34440433  0.01991331  1  0.617064  0  0.335885  0.420916  0  0.858771  0
H  H37  1  0.51425973  0.29700984  0.96886775  1  0.664203  0  0.295543  0.398976  0  0.942117  0
H  H38  1  0.08278371  0.42314043  0.67836146  1  -0.007687  0  0.101057  0.087748  0  1.029139  0
H  H39  1  0.22106801  0.54533363  0.69367425  1  0.099569  0  0.122055  0.139154  0  1.008321  0
H  H40  1  0.26179014  0.27086542  0.73858767  1  0.01043  0  0.088623  0.057017  0  1.000657  0
H  H41  1  0.46615422  0.27815782  0.66707460  1  0.014407  0  0.100894  0.084701  0  1.006346  0
H  H42  1  0.83699733  0.27822478  0.74150689  1  0.021047  0  0.085395  0.073195  0  1.028482  0
H  H43  1  0.64099445  0.16940611  0.75989137  1  0.013246  0  0.093064  0.088421  0  1.02749  0
H  H44  1  0.44326336  0.26401678  0.85431097  1  0.088307  0  0.114532  0.103011  0  0.990436  0
H  H45  1  0.58543351  0.44068921  0.88949064  1  0.006857  0  0.092405  0.092123  0  0.993641  0
H  H46  1  0.79963017  0.44564559  0.81993167  1  0.050158  0  0.09018  0.084346  0  0.999702  0
H  H47  1  0.41113727  0.54054207  0.79263709  1  -0.005107  0  0.10222  0.078365  0  0.996028  0
H  H48  1  0.22772132  0.42768264  0.81369874  1  0.01541  0  0.090007  0.057263  0  0.990798  0
H  H49  1  0.71795665  0.32278681  0.56959960  1  0.649625  0  0.29936  0.415607  0  0.91787  0
H  H50  1  0.95410852  0.32687457  0.61703824  1  0.591942  0  0.310988  0.387076  0  0.931453  0
H  H51  1  0.30585822  0.15559350  0.51992144  1  0.617507  0  0.3358  0.420853  0  0.858827  0
H  H52  1  0.51424610  0.20298319  0.46887549  1  0.664111  0  0.295543  0.398958  0  0.942158  0
H  H53  1  0.91722428  0.92314158  0.82163319  1  -0.007701  0  0.101044  0.08775  0  1.029063  0
H  H54  1  0.77892741  0.04533060  0.80632567  1  0.09964  0  0.12207  0.139196  0  1.008352  0
H  H55  1  0.73823701  0.77087457  0.76140487  1  0.010423  0  0.088656  0.057046  0  1.000633  0
H  H56  1  0.53387811  0.77814697  0.83292053  1  0.014532  0  0.100874  0.084695  0  1.006109  0
H  H57  1  0.16303116  0.77819665  0.75848869  1  0.021022  0  0.08541  0.073203  0  1.028707  0
H  H58  1  0.35908257  0.66939625  0.74009336  1  0.013105  0  0.093057  0.08845  0  1.027401  0
H  H59  1  0.55677018  0.76402853  0.64567762  1  0.088117  0  0.114472  0.102984  0  0.990415  0
H  H60  1  0.41452822  0.94069646  0.61051144  1  0.006916  0  0.092427  0.092154  0  0.993681  0
H  H61  1  0.20034101  0.94563515  0.68007053  1  0.050151  0  0.090163  0.084259  0  0.999862  0
H  H62  1  0.58879045  0.04055101  0.70737151  1  -0.00529  0  0.102123  0.078252  0  0.996148  0
H  H63  1  0.77225470  0.92770709  0.68629698  1  0.015182  0  0.089972  0.057175  0  0.990787  0
H  H64  1  0.28203865  0.82278800  0.93039851  1  0.649611  0  0.299334  0.415609  0  0.917881  0
H  H65  1  0.04588231  0.82686692  0.88296334  1  0.59198  0  0.311034  0.387193  0  0.93127  0
H  H66  1  0.69414625  0.65560275  0.98008354  1  0.617564  0  0.335856  0.420893  0  0.858815  0
H  H67  1  0.48577232  0.70299487  0.03112822  1  0.664315  0  0.295524  0.399013  0  0.942108  0
C  C68  1  0.73325613  0.53542595  0.32222368  1  -0.165842  0  -0.06454  -0.358146  0  3.942312  0
C  C69  1  0.55525091  0.69767797  0.28007260  1  0.359661  0  -0.075612  -0.065719  0  3.933025  0
C  C70  1  0.34724117  0.74442910  0.23776742  1  0.000823  0  -0.1631  -0.173126  0  3.939845  0
C  C71  1  0.37419132  0.70765237  0.16486187  1  0.018779  0  -0.087597  -0.115356  0  3.865729  0
C  C72  1  0.38108677  0.58652662  0.16241397  1  -0.052377  0  -0.158958  -0.175236  0  3.921918  0
C  C73  1  0.58856397  0.54598759  0.20738464  1  0.335545  0  -0.067129  -0.045065  0  3.930759  0
C  C74  1  0.18075339  0.75163638  0.11758601  1  1.498928  0  0.207656  0.597738  0  4.137573  0
C  C75  1  0.26673549  0.03542563  0.17777277  1  -0.166073  0  -0.064612  -0.358128  0  3.942224  0
C  C76  1  0.44474077  0.19767994  0.21993277  1  0.359488  0  -0.075621  -0.065708  0  3.933039  0
C  C77  1  0.65275145  0.24442876  0.26223893  1  0.000735  0  -0.163034  -0.172963  0  3.939683  0
C  C78  1  0.62579549  0.20765174  0.33514140  1  0.019298  0  -0.087646  -0.115533  0  3.865562  0
C  C79  1  0.61887774  0.08652438  0.33759165  1  -0.05292  0  -0.158787  -0.174855  0  3.921229  0
C  C80  1  0.41139475  0.04599081  0.29261741  1  0.33568  0  -0.067241  -0.045398  0  3.930973  0
C  C81  1  0.81927089  0.25162391  0.38242176  1  1.499725  0  0.207572  0.597717  0  4.137941  0
C  C82  1  0.26675106  0.46457483  0.67777447  1  -0.165886  0  -0.064587  -0.358118  0  3.942057  0
C  C83  1  0.44476923  0.30232281  0.71992623  1  0.35947  0  -0.075579  -0.065571  0  3.93296  0
C  C84  1  0.65280395  0.25557956  0.76222872  1  0.000589  0  -0.163031  -0.172896  0  3.939805  0
C  C85  1  0.62585277  0.29235235  0.83513072  1  0.019257  0  -0.087782  -0.115628  0  3.865964  0
C  C86  1  0.61892368  0.41347574  0.83758624  1  -0.052219  0  -0.158919  -0.175323  0  3.92164  0
C  C87  1  0.41142793  0.45400846  0.79261482  1  0.335215  0  -0.067122  -0.045013  0  3.93061  0
C  C88  1  0.81928457  0.24836991  0.88241659  1  1.498688  0  0.207693  0.597877  0  4.137839  0
C  C89  1  0.73324443  0.96456963  0.82222198  1  -0.165776  0  -0.064585  -0.358199  0  3.942273  0
C  C90  1  0.55525065  0.80232005  0.78006870  1  0.359416  0  -0.075565  -0.065453  0  3.932828  0
C  C91  1  0.34723553  0.75556887  0.73776551  1  0.000867  0  -0.163104  -0.173105  0  3.939929  0
C  C92  1  0.37417679  0.79234904  0.66486183  1  0.018928  0  -0.087654  -0.115534  0  3.865463  0
C  C93  1  0.38105627  0.91347798  0.66241511  1  -0.052167  0  -0.158934  -0.175275  0  3.921757  0
C  C94  1  0.58854184  0.95401706  0.70738635  1  0.335411  0  -0.066953  -0.044677  0  3.93065  0
C  C95  1  0.18072812  0.74835953  0.61757931  1  1.499714  0  0.207732  0.597902  0  4.13759  0
N  N96  1  0.55322159  0.58228670  0.27693163  1  -1.062141  0  -0.340968  -0.103356  0  3.495058  0
N  N97  1  0.44675658  0.08228551  0.22307115  1  -1.061926  0  -0.340992  -0.103347  0  3.495217  0
N  N98  1  0.44678909  0.41771566  0.72306757  1  -1.062177  0  -0.341029  -0.103452  0  3.494904  0
N  N99  1  0.55320486  0.91771211  0.77693042  1  -1.062219  0  -0.340991  -0.103518  0  3.495206  0
O  O100  1  0.55670494  0.63312142  0.43855329  1  -1.463252  0  -0.429734  -0.861292  0  2.2495  0
O  O101  1  0.84300707  0.48551722  0.45138525  1  -1.459098  0  -0.535882  -0.96949  0  2.440989  0
O  O102  1  0.40157885  0.44480185  0.40976038  1  -1.455025  0  -0.474308  -0.842205  0  2.248491  0
O  O103  1  0.98827017  0.80093621  0.13825978  1  -1.181824  0  -0.360483  -0.602783  0  2.181364  0
O  O104  1  0.21783608  0.73993821  0.05337517  1  -1.175255  0  -0.369727  -0.640534  0  2.262938  0
O  O105  1  0.09962560  0.69980081  0.42641490  1  -1.243668  0  -0.638122  -0.842948  0  2.026088  0
O  O106  1  0.67353811  0.80941937  0.52337713  1  -1.271739  0  -0.633608  -0.848804  0  2.026958  0
O  O107  1  0.44329493  0.13313477  0.06145023  1  -1.463347  0  -0.429596  -0.861058  0  2.249229  0
O  O108  1  0.15700985  0.98552501  0.04861511  1  -1.458542  0  -0.535865  -0.969394  0  2.441116  0
O  O109  1  0.59842513  0.94481154  0.09024288  1  -1.454898  0  -0.474307  -0.842047  0  2.24862  0
O  O110  1  0.01175992  0.30091698  0.36174448  1  -1.181694  0  -0.360514  -0.602881  0  2.181203  0
O  O111  1  0.78219451  0.23991991  0.44662058  1  -1.175923  0  -0.36959  -0.640331  0  2.263598  0
O  O112  1  0.90039278  0.19980911  0.07358073  1  -1.24384  0  -0.638133  -0.843122  0  2.025953  0
O  O113  1  0.32648076  0.30942416  0.97662283  1  -1.271302  0  -0.633665  -0.848845  0  2.026814  0
O  O114  1  0.44330106  0.36686990  0.56144989  1  -1.463339  0  -0.429675  -0.861187  0  2.249304  0
O  O115  1  0.15699977  0.51447568  0.54861441  1  -1.458731  0  -0.535906  -0.969486  0  2.441178  0
O  O116  1  0.59842949  0.55518869  0.59024082  1  -1.454914  0  -0.474332  -0.842079  0  2.248617  0
O  O117  1  0.01179547  0.19907244  0.86173663  1  -1.181395  0  -0.360592  -0.603062  0  2.180992  0
O  O118  1  0.78219800  0.26006336  0.94661223  1  -1.175515  0  -0.369616  -0.640341  0  2.263902  0
O  O119  1  0.90038250  0.30019918  0.57358730  1  -1.243646  0  -0.638114  -0.842974  0  2.026113  0
O  O120  1  0.32646952  0.19057904  0.47662709  1  -1.271589  0  -0.633563  -0.848725  0  2.02709  0
O  O121  1  0.55669673  0.86686680  0.93855023  1  -1.46329  0  -0.429659  -0.861144  0  2.249242  0
O  O122  1  0.84301112  0.01447419  0.95138020  1  -1.45912  0  -0.535819  -0.969482  0  2.441134  0
O  O123  1  0.40157749  0.05519002  0.90975874  1  -1.454844  0  -0.474304  -0.842064  0  2.248539  0
O  O124  1  0.98823765  0.69907040  0.63826262  1  -1.181886  0  -0.360551  -0.602891  0  2.181162  0
O  O125  1  0.21781057  0.76006274  0.55337855  1  -1.175774  0  -0.369713  -0.640477  0  2.263442  0
O  O126  1  0.09961639  0.80019877  0.92641694  1  -1.243702  0  -0.63815  -0.843101  0  2.026021  0
O  O127  1  0.67354895  0.69057977  0.02337512  1  -1.271931  0  -0.633655  -0.848824  0  2.026957  0
