# generated using pymatgen
data_CuH12C15N2ClO2
_symmetry_space_group_name_H-M   'P 1'
_cell_length_a   7.01418957
_cell_length_b   10.18996930
_cell_length_c   11.21278149
_cell_angle_alpha   70.35759113
_cell_angle_beta   77.56598809
_cell_angle_gamma   79.76466617
_symmetry_Int_Tables_number   1
_chemical_formula_structural   CuH12C15N2ClO2
_chemical_formula_sum   'Cu2 H24 C30 N4 Cl2 O4'
_cell_volume   732.23859080
_cell_formula_units_Z   2
loop_
 _symmetry_equiv_pos_site_id
 _symmetry_equiv_pos_as_xyz
  1  'x, y, z'
loop_
 _atom_site_type_symbol
 _atom_site_label
 _atom_site_symmetry_multiplicity
 _atom_site_fract_x
 _atom_site_fract_y
 _atom_site_fract_z
 _atom_site_occupancy
 _atom_site_hle17_ddec_charge
 _atom_site_hle17_ddec_spin_density
 _atom_site_hle17_ddec_sum_bond_order
 _atom_site_hle17_magmom
 _atom_site_hse06_10hf_ddec_charge
 _atom_site_hse06_10hf_ddec_spin_density
 _atom_site_hse06_10hf_ddec_sum_bond_order
 _atom_site_hse06_10hf_magmom
 _atom_site_hse06_ddec_charge
 _atom_site_hse06_ddec_spin_density
 _atom_site_hse06_ddec_sum_bond_order
 _atom_site_hse06_magmom
 _atom_site_pbe_cm5_charge
 _atom_site_pbe_ddec_charge
 _atom_site_pbe_ddec_spin_density
 _atom_site_pbe_ddec_sum_bond_order
 _atom_site_pbe_magmom
Cu  Cu0  1  0.65834350  0.35594256  0.06406129  1  0.777211  0.65424  1.916074  0.475  0.753859  0.747869  2.327116  0.589  0.84706  0.815784  2.246756  0.674  0.652729  0.704184  0.707048  2.377056  0.541
Cu  Cu1  1  0.34166942  0.64406282  0.93593541  1  0.777287  0.654241  1.915925  0.475  0.753886  0.747865  2.327032  0.589  0.847226  0.815805  2.24654  0.674  0.652762  0.704226  0.707045  2.376965  0.541
H  H2  1  0.87864206  0.54237318  0.80158342  1  0.1087  0.000827  0.941179  0.002  0.115234  0.000826  1.003567  0.002  0.118381  0.000596  0.999814  0.001  0.118647  0.112862  0.000977  1.006308  0.002
H  H3  1  0.12136809  0.45762193  0.19841028  1  0.108546  0.000833  0.94115  0.002  0.115113  0.000828  1.003515  0.002  0.118255  0.000598  0.999763  0.001  0.118616  0.112746  0.000979  1.006238  0.002
H  H4  1  0.04821447  0.49415149  0.59802116  1  0.104717  0.000346  0.957429  0.0  0.118375  0.000407  1.013  0.0  0.120707  0.000317  1.013449  0.0  0.112058  0.116662  0.000531  1.0129  0.001
H  H5  1  0.95178868  0.50584151  0.40197584  1  0.104763  0.000344  0.957289  0.0  0.118391  0.000407  1.012886  0.0  0.120718  0.000317  1.013345  0.0  0.112082  0.116679  0.000531  1.012784  0.001
H  H6  1  0.07632804  0.25133584  0.58135012  1  0.102672  0.000217  0.921465  0.0  0.119342  3e-05  0.971529  0.0  0.122563  -9e-06  0.96876  0.0  0.114761  0.11688  2.8e-05  0.973602  0.0
H  H7  1  0.92367767  0.74865896  0.41865497  1  0.102592  0.000219  0.921423  0.0  0.119273  3e-05  0.97148  0.0  0.122494  -9e-06  0.968712  0.0  0.114747  0.116814  2.8e-05  0.97355  0.0
H  H8  1  0.01113747  0.99087732  0.69901620  1  0.111132  0.000433  0.936029  0.001  0.124179  0.00041  0.9905  0.0  0.127216  0.000272  0.989645  0.0  0.108147  0.121599  0.000328  0.991739  0.0
H  H9  1  0.98887499  0.00911092  0.30099699  1  0.111044  0.000433  0.935818  0.001  0.124094  0.000411  0.990309  0.0  0.127134  0.000272  0.989447  0.0  0.108056  0.121514  0.000328  0.991545  0.0
H  H10  1  0.87327226  0.81545162  0.89305460  1  0.126045  0.001252  0.948246  0.001  0.13477  0.001013  1.012717  0.001  0.138047  0.000666  1.010589  0.001  0.104658  0.132045  0.001461  1.014356  0.001
H  H11  1  0.12673878  0.18454609  0.10695521  1  0.126069  0.001251  0.94827  0.001  0.134749  0.001013  1.012814  0.001  0.138025  0.000666  1.010687  0.001  0.104678  0.132026  0.001462  1.014444  0.001
H  H12  1  0.67414173  0.75830592  0.12326940  1  0.113455  0.000777  0.971122  0.001  0.125053  0.000554  1.031882  0.0  0.128918  0.000376  1.028178  0.0  0.09783  0.122915  0.00087  1.033167  0.0
H  H13  1  0.32586254  0.24169825  0.87673502  1  0.113385  0.00078  0.971118  0.001  0.125025  0.000554  1.031845  0.0  0.128901  0.000376  1.028114  0.0  0.097839  0.1229  0.00087  1.033119  0.0
H  H14  1  0.49644246  0.84890067  0.30459692  1  0.098525  0.000657  0.968897  0.001  0.110327  0.000692  1.028408  0.001  0.112896  0.000511  1.028693  0.001  0.105731  0.10787  0.000609  1.028884  0.001
H  H15  1  0.50353202  0.15110816  0.69540027  1  0.098527  0.000655  0.968987  0.001  0.110356  0.000693  1.028458  0.001  0.112911  0.000511  1.028759  0.001  0.105778  0.107895  0.000609  1.028934  0.001
H  H16  1  0.48733598  0.10559344  0.28009155  1  0.094529  0.001229  0.91968  0.002  0.10768  0.001251  0.970753  0.002  0.110456  0.000897  0.967987  0.002  0.126426  0.104855  0.001176  0.973357  0.002
H  H17  1  0.51266508  0.89441299  0.71990819  1  0.094596  0.001224  0.919707  0.002  0.107725  0.00125  0.970774  0.002  0.110501  0.000896  0.968007  0.002  0.12646  0.104897  0.001175  0.973374  0.002
H  H18  1  0.73803187  0.30580608  0.49863545  1  0.078079  0.001152  0.957442  0.001  0.089184  0.001015  1.026909  0.001  0.089552  0.000661  1.027433  0.001  0.085073  0.089316  0.001288  1.025978  0.001
H  H19  1  0.26195505  0.69418808  0.50136246  1  0.078007  0.001147  0.957471  0.001  0.089138  0.001015  1.026945  0.001  0.089511  0.000661  1.027467  0.001  0.085045  0.089273  0.001288  1.026009  0.001
H  H20  1  0.50215725  0.26398606  0.49882868  1  0.082291  -0.000873  0.938929  -0.001  0.098407  -0.000226  0.997281  0.0  0.100304  -0.0002  0.996075  0.0  0.090477  0.097512  -0.000228  0.997661  0.0
H  H21  1  0.49782872  0.73600516  0.50116393  1  0.082322  -0.00088  0.938869  -0.001  0.098442  -0.000226  0.997234  0.0  0.100329  -0.0002  0.99604  0.0  0.090523  0.097553  -0.000228  0.997608  0.0
H  H22  1  0.62565618  0.55983781  0.36794891  1  0.056686  3.7e-05  0.945991  0.0  0.076079  4e-06  1.006754  0.0  0.075702  -5e-06  1.008589  0.0  0.083288  0.076033  1.5e-05  1.005936  0.0
H  H23  1  0.37433248  0.44015395  0.63205837  1  0.056713  2.5e-05  0.945851  0.0  0.076027  4e-06  1.006682  0.0  0.075651  -5e-06  1.008515  0.0  0.083254  0.075979  1.5e-05  1.005868  0.0
H  H24  1  0.39079835  0.50891766  0.39130046  1  0.063506  0.00014  0.948499  0.0  0.080055  0.000171  1.011696  0.0  0.080356  0.000109  1.013216  0.0  0.082831  0.079872  0.000229  1.010543  0.0
H  H25  1  0.60918923  0.49108165  0.60869858  1  0.063584  0.000137  0.948405  0.0  0.080091  0.000171  1.011585  0.0  0.080394  0.000109  1.0131  0.0  0.082844  0.079908  0.000229  1.010428  0.0
C  C26  1  0.88844534  0.43870395  0.79109593  1  0.174411  -0.011007  3.627089  -0.008  0.145302  -0.003827  3.878782  -0.003  0.158435  -0.005213  3.891497  -0.004  0.071971  0.136379  -0.00255  3.871466  -0.002
C  C27  1  0.11156372  0.56130782  0.20889680  1  0.174474  -0.011014  3.62731  -0.008  0.145372  -0.003826  3.878995  -0.003  0.158521  -0.00521  3.891701  -0.004  0.071994  0.136452  -0.00255  3.871669  -0.002
C  C28  1  0.98463723  0.40945360  0.67719734  1  -0.115919  0.006652  3.720919  0.007  -0.128117  0.003373  3.972375  0.004  -0.134415  0.003046  3.989915  0.004  -0.07722  -0.124301  0.003613  3.96102  0.004
C  C29  1  0.01537860  0.59054251  0.32279624  1  -0.115895  0.006652  3.720879  0.007  -0.128088  0.003374  3.972358  0.004  -0.134385  0.003046  3.989887  0.004  -0.077169  -0.124274  0.003614  3.961005  0.004
C  C30  1  0.99967221  0.27566729  0.66844938  1  -0.058102  -0.009854  3.701966  -0.006  -0.083625  -0.004218  3.954855  -0.002  -0.07923  -0.004785  3.969575  -0.003  -0.062813  -0.086248  -0.003708  3.944559  -0.002
C  C31  1  0.00033172  0.72432035  0.33155260  1  -0.058086  -0.009854  3.701938  -0.006  -0.083619  -0.004217  3.954835  -0.002  -0.079224  -0.004782  3.969553  -0.003  -0.062891  -0.086243  -0.003707  3.944542  -0.002
C  C32  1  0.91813724  0.16821204  0.77513271  1  0.023866  0.003779  3.8076  0.004  0.039992  0.002146  4.040169  0.003  0.037451  0.001793  4.064657  0.002  -0.001892  0.041823  0.002231  4.023246  0.003
C  C33  1  0.08186376  0.83178485  0.22487330  1  0.023942  0.003772  3.807322  0.004  0.040075  0.002146  4.039856  0.003  0.037534  0.001791  4.064345  0.002  -0.001783  0.041907  0.00223  4.022937  0.003
C  C34  1  0.93335752  0.02392922  0.78135773  1  -0.102446  0.000767  3.717342  0.001  -0.12469  0.000643  3.971645  0.001  -0.128948  0.000501  3.995276  0.001  -0.082747  -0.121898  0.000586  3.956362  0.001
C  C35  1  0.06665212  0.97606887  0.21864055  1  -0.102346  0.000778  3.717537  0.001  -0.124585  0.000643  3.971841  0.001  -0.128852  0.000501  3.995478  0.001  -0.082701  -0.121799  0.000587  3.956571  0.001
C  C36  1  0.85641838  0.92499134  0.89016510  1  -0.081653  0.002761  3.68102  0.003  -0.107005  0.002266  3.937491  0.003  -0.109517  0.001658  3.959713  0.002  -0.078115  -0.10572  0.002049  3.923233  0.002
C  C37  1  0.14357932  0.07499808  0.10984790  1  -0.081694  0.002758  3.681467  0.003  -0.107078  0.002266  3.937977  0.003  -0.10959  0.001657  3.960202  0.002  -0.07811  -0.105798  0.002048  3.923718  0.002
C  C38  1  0.75390031  0.96314840  0.00111468  1  0.026415  0.004636  3.770792  0.005  0.044404  0.002695  4.000341  0.003  0.041467  0.002212  4.02369  0.003  -0.000392  0.04628  0.002705  3.984331  0.003
C  C39  1  0.24610575  0.03685376  0.99888739  1  0.026475  0.004641  3.770588  0.005  0.04457  0.002699  4.000047  0.003  0.041635  0.002212  4.023396  0.003  -0.000302  0.046451  0.002708  3.984032  0.003
C  C40  1  0.66600759  0.86874949  0.11602824  1  -0.036283  -0.008811  3.650457  -0.005  -0.063971  -0.003091  3.898673  -0.001  -0.059125  -0.004047  3.913835  -0.002  -0.064019  -0.06724  -0.002488  3.887477  -0.001
C  C41  1  0.33399004  0.13125070  0.88397281  1  -0.036204  -0.008825  3.650725  -0.005  -0.063972  -0.003091  3.898969  -0.001  -0.059125  -0.004042  3.914137  -0.002  -0.064  -0.067247  -0.002487  3.887763  -0.001
C  C42  1  0.56897616  0.91857280  0.21619132  1  -0.128707  0.007603  3.748521  0.008  -0.142589  0.004088  4.005372  0.005  -0.151113  0.003596  4.026341  0.005  -0.086105  -0.13725  0.004151  3.992138  0.005
C  C43  1  0.43101011  0.08143464  0.78381364  1  -0.128734  0.007616  3.748949  0.008  -0.142665  0.004087  4.00581  0.005  -0.151179  0.003594  4.026783  0.005  -0.08619  -0.137327  0.00415  3.99257  0.005
C  C44  1  0.56152691  0.06115261  0.20399027  1  0.154936  -0.010734  3.674452  -0.008  0.126274  -0.003117  3.926374  -0.002  0.138602  -0.004831  3.941513  -0.004  0.063247  0.118321  -0.002295  3.917288  -0.002
C  C45  1  0.43847708  0.93885389  0.79600639  1  0.154809  -0.010748  3.674192  -0.008  0.126235  -0.003119  3.92602  -0.002  0.138563  -0.004832  3.94116  -0.004  0.063205  0.118294  -0.002296  3.916924  -0.002
C  C46  1  0.73741660  0.10503883  0.99702121  1  0.121236  -0.002527  3.782268  -0.002  0.115454  0.0001  4.02113  0.0  0.120498  -0.001151  4.044895  -0.001  0.11421  0.112278  0.001018  4.005555  0.001
C  C47  1  0.26258783  0.89495507  0.00297983  1  0.121139  -0.002527  3.782559  -0.002  0.115299  9.8e-05  4.021438  0.0  0.120341  -0.001151  4.045213  -0.001  0.114131  0.11212  0.001016  4.00587  0.001
C  C48  1  0.82168883  0.20762181  0.88473947  1  0.130376  -0.001915  3.756507  -0.001  0.124921  0.000275  3.994658  0.001  0.129916  -0.00074  4.017991  0.0  0.115228  0.121664  0.000884  3.979351  0.001
C  C49  1  0.17831548  0.79238256  0.11525864  1  0.130397  -0.001906  3.756142  -0.001  0.124988  0.000276  3.994253  0.001  0.129985  -0.000738  4.017591  0.0  0.115205  0.121729  0.000884  3.978961  0.001
C  C50  1  0.68833358  0.31443035  0.31419273  1  0.659054  -0.007989  3.886184  -0.009  0.624978  -0.001167  4.192333  -0.003  0.660241  -0.002011  4.18921  -0.003  0.185797  0.60131  -0.000321  4.193496  -0.002
C  C51  1  0.31165845  0.68557853  0.68579768  1  0.658879  -0.007996  3.885886  -0.009  0.624778  -0.001167  4.192108  -0.003  0.660044  -0.002009  4.188996  -0.003  0.185696  0.601108  -0.00032  4.193284  -0.002
C  C52  1  0.61419365  0.33557639  0.44552415  1  -0.248433  0.012039  3.68832  0.013  -0.285332  0.006751  3.939082  0.007  -0.290719  0.004436  3.947847  0.005  -0.170012  -0.281388  0.008716  3.931854  0.009
C  C53  1  0.38578873  0.66441878  0.55447585  1  -0.248325  0.012051  3.688226  0.013  -0.285311  0.006751  3.938996  0.007  -0.290699  0.004434  3.947779  0.005  -0.170069  -0.281366  0.008715  3.931764  0.009
C  C54  1  0.52377858  0.48657619  0.43512935  1  -0.085783  -0.000247  3.68997  0.0  -0.12357  0.00011  3.949017  0.0  -0.123703  -2e-05  3.963579  0.0  -0.169826  -0.123297  0.000236  3.938857  0.0
C  C55  1  0.47620656  0.51341999  0.56487090  1  -0.085857  -0.000225  3.68972  0.0  -0.123424  0.000109  3.948613  0.0  -0.123552  -2.1e-05  3.963177  0.0  -0.169707  -0.123147  0.000235  3.93845  0.0
N  N56  1  0.80786546  0.33988939  0.89153082  1  -0.313389  0.059903  3.310643  0.076  -0.267133  0.047255  3.599777  0.064  -0.29676  0.040003  3.618925  0.058  -0.332008  -0.250671  0.051324  3.589776  0.066
N  N57  1  0.19214043  0.66010447  0.10847094  1  -0.313434  0.059906  3.310605  0.076  -0.267211  0.047257  3.599754  0.064  -0.296873  0.040003  3.618916  0.058  -0.332051  -0.250752  0.051329  3.589754  0.066
N  N58  1  0.64487344  0.15112784  0.09738595  1  -0.311065  0.068188  3.355114  0.086  -0.264115  0.054282  3.646194  0.073  -0.29396  0.045533  3.666424  0.066  -0.340779  -0.248087  0.058632  3.635219  0.075
N  N59  1  0.35512692  0.84887318  0.90262075  1  -0.3109  0.068196  3.355064  0.086  -0.263983  0.054282  3.646163  0.073  -0.293856  0.045532  3.666413  0.066  -0.340726  -0.247973  0.058634  3.635201  0.075
Cl  Cl60  1  0.69954286  0.58296664  0.01772735  1  -0.51094  0.10847  1.041242  0.136  -0.51605  0.066858  1.346857  0.09  -0.55037  0.048707  1.318328  0.072  -0.284049  -0.496207  0.077679  1.365452  0.098
Cl  Cl61  1  0.30047591  0.41703877  0.98226679  1  -0.5109  0.108474  1.041202  0.136  -0.515984  0.066857  1.346755  0.09  -0.550319  0.048705  1.318207  0.072  -0.284047  -0.496153  0.077677  1.365362  0.098
O  O62  1  0.55123629  0.34171561  0.24447642  1  -0.591796  0.116566  2.031851  0.156  -0.571666  0.070762  2.313499  0.103  -0.620274  0.052874  2.310138  0.084  -0.34147  -0.539914  0.082224  2.315134  0.114
O  O63  1  0.44875444  0.65829226  0.75551356  1  -0.591721  0.116555  2.031852  0.156  -0.57152  0.070754  2.313471  0.103  -0.620157  0.052865  2.310111  0.084  -0.341393  -0.539773  0.082214  2.315117  0.114
O  O64  1  0.86550392  0.27681708  0.28074572  1  -0.623357  0.001282  1.873172  0.004  -0.596074  -0.000197  2.096745  0.002  -0.620718  -0.001546  2.087249  0.0  -0.341707  -0.578508  0.000987  2.102327  0.003
O  O65  1  0.13448459  0.72320539  0.71924311  1  -0.623424  0.00129  1.872885  0.004  -0.59612  -0.000196  2.096441  0.002  -0.620776  -0.001545  2.086965  0.0  -0.341731  -0.57855  0.000988  2.102034  0.003
