# generated using pymatgen
data_AlH3C10N3O11
_symmetry_space_group_name_H-M   'P 1'
_cell_length_a   6.80064561
_cell_length_b   11.27737920
_cell_length_c   11.20999889
_cell_angle_alpha   81.10226184
_cell_angle_beta   70.62982977
_cell_angle_gamma   70.60446643
_symmetry_Int_Tables_number   1
_chemical_formula_structural   AlH3C10N3O11
_chemical_formula_sum   'Al2 H6 C20 N6 O22'
_cell_volume   764.08103370
_cell_formula_units_Z   2
loop_
 _symmetry_equiv_pos_site_id
 _symmetry_equiv_pos_as_xyz
  1  'x, y, z'
loop_
 _atom_site_type_symbol
 _atom_site_label
 _atom_site_symmetry_multiplicity
 _atom_site_fract_x
 _atom_site_fract_y
 _atom_site_fract_z
 _atom_site_occupancy
 _atom_site_pbe_bader_charge
 _atom_site_pbe_bader_spin_density
 _atom_site_pbe_cm5_charge
 _atom_site_pbe_ddec_charge
 _atom_site_pbe_ddec_spin_density
 _atom_site_pbe_ddec_sum_bond_order
 _atom_site_pbe_magmom
Al  Al0  1  0.49764014  0.50303663  0.50727555  1  2.505572  0  0.403027  1.632952  0  2.540313  0
Al  Al1  1  0.00024759  0.50011015  0.50675892  1  2.506194  0  0.401901  1.649097  0  2.53304  0
H  H2  1  0.21757663  0.41779322  0.65437100  1  0.625692  0  0.33201  0.413749  0  0.904924  0
H  H3  1  0.79727534  0.56452201  0.35327112  1  0.620751  0  0.324681  0.397597  0  0.934502  0
H  H4  1  0.73026679  0.54126212  0.11738269  1  0.197468  0  0.121317  0.125386  0  1.081704  0
H  H5  1  0.27758136  0.45343172  0.89358364  1  0.191641  0  0.123086  0.123953  0  1.083098  0
H  H6  1  0.25019970  0.23713003  0.34275386  1  0.162001  0  0.123994  0.136472  0  1.028885  0
H  H7  1  0.46063729  0.77115246  0.32298893  1  0.117763  0  0.128279  0.142555  0  0.99569  0
C  C8  1  0.86168879  0.27662450  0.50533565  1  1.637458  0  0.27096  0.638094  0  4.112041  0
C  C9  1  0.63109591  0.50826201  0.73019582  1  1.637613  0  0.284104  0.659732  0  4.057726  0
C  C10  1  0.13488744  0.72672823  0.50028861  1  1.617655  0  0.270685  0.641874  0  4.099161  0
C  C11  1  0.36990990  0.49420881  0.28148713  1  1.640183  0  0.280467  0.659247  0  4.062105  0
C  C12  1  0.56903711  0.49928261  0.87159764  1  0.038706  0  0.017369  -0.041468  0  3.884303  0
C  C13  1  0.43424981  0.50049040  0.13985005  1  0.052559  0  0.009308  -0.053197  0  3.918214  0
C  C14  1  0.69573057  0.51980898  0.93779329  1  0.241068  0  0.104746  0.084543  0  3.897732  0
C  C15  1  0.31112152  0.47619774  0.07351383  1  0.201952  0  0.09722  0.067496  0  3.924216  0
C  C16  1  0.63016086  0.52337417  0.06839137  1  0.020094  0  -0.060861  -0.112692  0  3.901946  0
C  C17  1  0.37495477  0.47407086  0.94284385  1  0.084652  0  -0.056491  -0.105122  0  3.896381  0
C  C18  1  0.93692244  0.13533741  0.50022675  1  0.089577  0  0.024599  -0.06586  0  3.843375  0
C  C19  1  0.14552999  0.07010528  0.41966000  1  0.033384  0  0.021322  0.087292  0  3.907435  0
C  C20  1  0.79487052  0.06796437  0.56836490  1  0.250952  0  0.097373  0.015414  0  3.897766  0
C  C21  1  0.29136157  0.13557221  0.34060712  1  0.144959  0  -0.056359  -0.125124  0  3.878769  0
C  C22  1  0.48466247  0.07126982  0.25775976  1  0.208635  0  0.090925  0.033218  0  3.940863  0
C  C23  1  0.06064540  0.86860221  0.49264460  1  0.102603  0  0.017403  -0.083671  0  3.850823  0
C  C24  1  0.85379584  0.93632202  0.56213000  1  0.247111  0  0.099777  0.025701  0  3.901939  0
C  C25  1  0.20722049  0.93572058  0.41529580  1  0.011381  0  0.025361  0.096638  0  3.907276  0
C  C26  1  0.40915695  0.87278003  0.32850197  1  0.176071  0  -0.056694  -0.127561  0  3.873527  0
C  C27  1  0.54247193  0.93965558  0.25062436  1  0.118409  0  0.094216  0.043789  0  3.943402  0
N  N28  1  0.91902114  0.52461656  0.87072277  1  0.382681  0  0.060518  0.508115  0  4.209908  0
N  N29  1  0.09532340  0.46155605  0.14204135  1  0.385387  0  0.063262  0.519604  0  4.203795  0
N  N30  1  0.69221941  0.87097474  0.63981041  1  0.426629  0  0.062219  0.505388  0  4.253485  0
N  N31  1  0.57760620  0.13425467  0.65315176  1  0.425549  0  0.064853  0.513851  0  4.226476  0
N  N32  1  0.61972131  0.14422220  0.16799545  1  0.3945  0  0.062157  0.513092  0  4.2349  0
N  N33  1  0.75419838  0.86963962  0.16533203  1  0.422853  0  0.061627  0.515871  0  4.235429  0
O  O34  1  0.67576460  0.33012325  0.48875249  1  -1.244888  0  -0.226242  -0.574366  0  2.361287  0
O  O35  1  0.81141651  0.53086646  0.67289281  1  -1.258725  0  -0.223591  -0.589907  0  2.409356  0
O  O36  1  0.01025725  0.67249175  0.48392479  1  -1.241084  0  -0.224432  -0.568974  0  2.346985  0
O  O37  1  0.49237421  0.51761233  0.33297221  1  -1.244064  0  -0.220039  -0.564526  0  2.343135  0
O  O38  1  0.31848307  0.67615901  0.52050100  1  -1.23704  0  -0.217158  -0.558091  0  2.348009  0
O  O39  1  0.19488262  0.46555519  0.33966154  1  -1.265901  0  -0.22992  -0.600381  0  2.414774  0
O  O40  1  0.98906080  0.32687656  0.52475962  1  -1.234912  0  -0.219073  -0.556411  0  2.326687  0
O  O41  1  0.50075585  0.49391390  0.67887588  1  -1.241443  0  -0.213266  -0.559855  0  2.358326  0
O  O42  1  0.24523490  0.44991305  0.56614393  1  -1.425316  0  -0.453529  -0.991298  0  2.153138  0
O  O43  1  0.75560132  0.55181045  0.44556851  1  -1.425705  0  -0.456586  -0.984086  0  2.146812  0
O  O44  1  0.96049284  0.62444440  0.85901060  1  -0.394951  0  -0.074076  -0.247855  0  1.944119  0
O  O45  1  0.05355175  0.42007554  0.83749831  1  -0.456319  0  -0.102364  -0.311053  0  1.995835  0
O  O46  1  0.95098717  0.56101739  0.18134511  1  -0.472262  0  -0.097011  -0.308687  0  2.087299  0
O  O47  1  0.06822044  0.35758545  0.15096960  1  -0.416732  0  -0.08899  -0.270394  0  1.908566  0
O  O48  1  0.68381873  0.84854467  0.75251693  1  -0.402784  0  -0.106271  -0.288124  0  1.890542  0
O  O49  1  0.58010415  0.84681242  0.58607653  1  -0.400008  0  -0.087026  -0.269369  0  1.95166  0
O  O50  1  0.41710834  0.11892249  0.63660776  1  -0.419348  0  -0.102423  -0.286839  0  1.902062  0
O  O51  1  0.57518743  0.19847186  0.73369915  1  -0.428913  0  -0.102384  -0.285279  0  1.90221  0
O  O52  1  0.64288474  0.23255202  0.20983754  1  -0.44676  0  -0.119183  -0.316462  0  1.951955  0
O  O53  1  0.69511670  0.11351831  0.05680395  1  -0.41401  0  -0.112328  -0.29637  0  1.881771  0
O  O54  1  0.74974811  0.80060531  0.09174677  1  -0.404439  0  -0.104726  -0.289881  0  1.940144  0
O  O55  1  0.91922222  0.88405942  0.17754545  1  -0.444099  0  -0.12774  -0.31782  0  1.869022  0
