# generated using pymatgen
data_YH13C21(N3O10)2
_symmetry_space_group_name_H-M   'P 1'
_cell_length_a   9.21887665
_cell_length_b   11.55445410
_cell_length_c   13.71460000
_cell_angle_alpha   107.68947522
_cell_angle_beta   90.55220953
_cell_angle_gamma   93.42420114
_symmetry_Int_Tables_number   1
_chemical_formula_structural   YH13C21(N3O10)2
_chemical_formula_sum   'Y2 H26 C42 N12 O40'
_cell_volume   1388.71504960
_cell_formula_units_Z   2
loop_
 _symmetry_equiv_pos_site_id
 _symmetry_equiv_pos_as_xyz
  1  'x, y, z'
loop_
 _atom_site_type_symbol
 _atom_site_label
 _atom_site_symmetry_multiplicity
 _atom_site_fract_x
 _atom_site_fract_y
 _atom_site_fract_z
 _atom_site_occupancy
 _atom_site_hle17_bader_spin_density
 _atom_site_hle17_ddec_charge
 _atom_site_hle17_ddec_spin_density
 _atom_site_hle17_ddec_sum_bond_order
 _atom_site_hle17_magmom
 _atom_site_hse06_10hf_bader_spin_density
 _atom_site_hse06_10hf_ddec_charge
 _atom_site_hse06_10hf_ddec_spin_density
 _atom_site_hse06_10hf_ddec_sum_bond_order
 _atom_site_hse06_10hf_magmom
 _atom_site_hse06_bader_spin_density
 _atom_site_hse06_ddec_charge
 _atom_site_hse06_ddec_spin_density
 _atom_site_hse06_ddec_sum_bond_order
 _atom_site_hse06_magmom
 _atom_site_pbe_bader_charge
 _atom_site_pbe_bader_spin_density
 _atom_site_pbe_cm5_charge
 _atom_site_pbe_ddec_charge
 _atom_site_pbe_ddec_spin_density
 _atom_site_pbe_ddec_sum_bond_order
 _atom_site_pbe_magmom
Y  Y0  1  0.26776418  0.98852868  0.00624151  1  0  2.093757  0  1.8624  0  0  1.898227  0  2.364282  0  0  1.975608  0  2.286736  0  2.318645  0  1.292497  1.843099  0  2.417076  0
Y  Y1  1  0.73223546  0.01147092  0.99375861  1  0  2.093739  0  1.862403  0  0  1.898189  0  2.364319  0  0  1.975563  0  2.286769  0  2.318649  0  1.292463  1.843075  0  2.417076  0
H  H2  1  0.76795714  0.23640117  0.22210829  1  0  0.134891  0  0.970294  0  0  0.133147  0  1.047021  0  0  0.138132  0  1.042655  0  0.19393  0  0.122486  0.129086  0  1.051175  0
H  H3  1  0.23204372  0.76360026  0.77789157  1  0  0.134906  0  0.97032  0  0  0.133173  0  1.04704  0  0  0.138158  0  1.042674  0  0.193901  0  0.122498  0.129113  0  1.051193  0
H  H4  1  0.25806436  0.30856966  0.05394910  1  0  0.143658  0  0.954606  0  0  0.141849  0  1.031028  0  0  0.147096  0  1.025884  0  0.209512  0  0.124744  0.137795  0  1.035218  0
H  H5  1  0.74193528  0.69142994  0.94605029  1  0  0.143665  0  0.954613  0  0  0.141846  0  1.031034  0  0  0.147098  0  1.025881  0  0.209537  0  0.124738  0.137786  0  1.035246  0
H  H6  1  0.22685223  0.34315905  0.26077082  1  0  0.13227  0  0.930473  0  0  0.137113  0  0.997934  0  0  0.141283  0  0.993995  0  0.150972  0  0.123124  0.134249  0  1.000588  0
H  H7  1  0.77314857  0.65684146  0.73922880  1  0  0.132266  0  0.930506  0  0  0.137108  0  0.997971  0  0  0.141279  0  0.994028  0  0.150975  0  0.123112  0.134244  0  1.000623  0
H  H8  1  0.91845886  0.58542586  0.43410482  1  0  0.13966  0  0.973805  0  0  0.132938  0  1.058326  0  0  0.138548  0  1.052328  0  0.210359  0  0.120386  0.128627  0  1.062795  0
H  H9  1  0.08154201  0.41457556  0.56589722  1  0  0.13971  0  0.973723  0  0  0.132938  0  1.058295  0  0  0.138549  0  1.052295  0  0.209981  0  0.120382  0.128627  0  1.062765  0
H  H10  1  0.70745125  0.44046252  0.11723728  1  0  0.137692  0  0.929296  0  0  0.139348  0  1.000055  0  0  0.144127  0  0.995395  0  0.158487  0  0.12298  0.136034  0  1.002975  0
H  H11  1  0.29254825  0.55953526  0.88276164  1  0  0.137704  0  0.929236  0  0  0.139361  0  1.000004  0  0  0.14414  0  0.995342  0  0.158481  0  0.123007  0.136046  0  1.002927  0
H  H12  1  0.37190943  0.69620312  0.17026622  1  0  0.152119  0  0.925295  0  0  0.152654  0  0.99544  0  0  0.158143  0  0.989586  0  0.185844  0  0.130966  0.148375  0  1.000174  0
H  H13  1  0.62809231  0.30379557  0.82973295  1  0  0.15211  0  0.925361  0  0  0.152665  0  0.995492  0  0  0.158152  0  0.989643  0  0.185841  0  0.130974  0.148385  0  1.000226  0
H  H14  1  0.71231531  0.87422093  0.69077210  1  0  0.134579  0  0.940429  0  0  0.136947  0  1.010767  0  0  0.14211  0  1.005641  0  0.17798  0  0.122195  0.133061  0  1.014934  0
H  H15  1  0.28768433  0.12577868  0.30922729  1  0  0.134638  0  0.940346  0  0  0.136969  0  1.010722  0  0  0.142132  0  1.005597  0  0.17797  0  0.122201  0.133082  0  1.014891  0
H  H16  1  0.26600893  0.95137290  0.65360879  1  0  0.139722  0  0.911193  0  0  0.146351  0  0.970666  0  0  0.151117  0  0.966249  0  0.177256  0  0.126515  0.142816  0  0.974246  0
H  H17  1  0.73399078  0.04862761  0.34639083  1  0  0.139751  0  0.91123  0  0  0.146376  0  0.970699  0  0  0.151143  0  0.966282  0  0.177259  0  0.126528  0.142842  0  0.97428  0
H  H18  1  0.51954435  0.79884877  0.38780061  1  0  0.140542  0  0.943893  0  0  0.139382  0  1.01906  0  0  0.144247  0  1.014455  0  0.173932  0  0.121028  0.135786  0  1.022276  0
H  H19  1  0.48045413  0.20114993  0.61219926  1  0  0.140549  0  0.943885  0  0  0.139398  0  1.019053  0  0  0.144267  0  1.014436  0  0.173932  0  0.121035  0.135802  0  1.022269  0
H  H20  1  0.06468655  0.12411630  0.90749048  1  0  0.440548  0  0.85173  0  0  0.411286  0  0.910885  0  0  0.422176  0  0.895026  0  0.66838  0  0.305122  0.403008  0  0.922984  0
H  H21  1  0.93531526  0.87588330  0.09250891  1  0  0.440611  0  0.851652  0  0  0.41138  0  0.91078  0  0  0.422273  0  0.894913  0  0.668371  0  0.305159  0.403101  0  0.922879  0
H  H22  1  0.13896696  0.78901017  0.09653391  1  0  0.449756  0  0.819056  0  0  0.422505  0  0.882278  0  0  0.43185  0  0.868536  0  0.679192  0  0.325724  0.415564  0  0.892611  0
H  H23  1  0.86103376  0.21098943  0.90346548  1  0  0.449783  0  0.818957  0  0  0.422514  0  0.882256  0  0  0.431858  0  0.868514  0  0.679209  0  0.325723  0.415571  0  0.892591  0
H  H24  1  0.22490446  0.14245977  0.87130915  1  0  0.422897  0  0.859749  0  0  0.389912  0  0.935915  0  0  0.400548  0  0.920171  0  0.633676  0  0.307504  0.382137  0  0.947498  0
H  H25  1  0.77509517  0.85753984  0.12869096  1  0  0.422895  0  0.859755  0  0  0.389917  0  0.935907  0  0  0.400554  0  0.920164  0  0.633699  0  0.307507  0.382141  0  0.947491  0
H  H26  1  0.16754983  0.91070939  0.18365165  1  0  0.450325  0  0.78771  0  0  0.425891  0  0.850322  0  0  0.434927  0  0.839854  0  0.629849  0  0.336956  0.419155  0  0.858316  0
H  H27  1  0.83244974  0.08928930  0.81634896  1  0  0.450309  0  0.78775  0  0  0.425876  0  0.850357  0  0  0.434911  0  0.839891  0  0.629851  0  0.336947  0.419141  0  0.858351  0
C  C28  1  0.03283484  0.16456769  0.14837548  1  0  0.719312  0  3.845911  0  0  0.667736  0  4.131367  0  0  0.704389  0  4.122324  0  1.632884  0  0.245584  0.642194  0  4.137162  0
C  C29  1  0.96716263  0.83543191  0.85162462  1  0  0.719204  0  3.845903  0  0  0.667571  0  4.131457  0  0  0.704224  0  4.122417  0  1.63291  0  0.245489  0.64203  0  4.13725  0
C  C30  1  0.85697962  0.30228432  0.25806119  1  0  -0.046865  0  3.603958  0  0  -0.086912  0  3.857154  0  0  -0.081688  0  3.87145  0  -0.006428  0  -0.047422  -0.090819  0  3.849148  0
C  C31  1  0.14302023  0.69771801  0.74193816  1  0  -0.046865  0  3.603978  0  0  -0.086952  0  3.857233  0  0  -0.081728  0  3.871529  0  -0.006432  0  -0.047432  -0.090859  0  3.849227  0
C  C32  1  0.53494291  0.23282424  0.04891248  1  0  0.701565  0  3.868815  0  0  0.648117  0  4.15972  0  0  0.684608  0  4.150894  0  1.623701  0  0.233863  0.622644  0  4.165382  0
C  C33  1  0.46505448  0.76717445  0.95108593  1  0  0.701603  0  3.868764  0  0  0.648095  0  4.159777  0  0  0.684585  0  4.150954  0  1.623856  0  0.233827  0.622621  0  4.165437  0
C  C34  1  0.00069410  0.27791407  0.23187144  1  0  -0.038984  0  3.689363  0  0  -0.013196  0  3.92345  0  0  -0.023023  0  3.943113  0  0.010079  0  0.001689  -0.007041  0  3.911148  0
C  C35  1  0.99930568  0.72208735  0.76812914  1  0  -0.039044  0  3.689419  0  0  -0.013221  0  3.923524  0  0  -0.023054  0  3.943198  0  0.010069  0  0.001656  -0.007065  0  3.911222  0
C  C36  1  0.48745798  0.36092259  0.08416712  1  0  -0.037385  0  3.690543  0  0  -0.010207  0  3.925222  0  0  -0.020359  0  3.946347  0  0.090448  0  0.000553  -0.004292  0  3.911684  0
C  C37  1  0.51254064  0.63907792  0.91583322  1  0  -0.037308  0  3.690423  0  0  -0.010119  0  3.925121  0  0  -0.020258  0  3.946221  0  0.090299  0  0.000602  -0.004202  0  3.911579  0
C  C38  1  0.34035133  0.38373334  0.08186565  1  0  -0.061691  0  3.616017  0  0  -0.10603  0  3.876495  0  0  -0.101766  0  3.8927  0  0.009905  0  -0.052152  -0.108122  0  3.865783  0
C  C39  1  0.65964723  0.61626626  0.91813446  1  0  -0.061736  0  3.616045  0  0  -0.106023  0  3.876426  0  0  -0.101761  0  3.892633  0  0.009927  0  -0.052133  -0.108114  0  3.865703  0
C  C40  1  0.83006259  0.41114794  0.33202684  1  0  0.083188  0  3.68513  0  0  0.070875  0  3.938263  0  0  0.065813  0  3.960411  0  0.164871  0  0.081392  0.073664  0  3.923451  0
C  C41  1  0.16993712  0.58885257  0.66797424  1  0  0.083251  0  3.684986  0  0  0.070914  0  3.938159  0  0  0.065858  0  3.960298  0  0.164884  0  0.081409  0.073703  0  3.923348  0
C  C42  1  0.08149271  0.47195931  0.34936995  1  0  0.083639  0  3.680164  0  0  0.073143  0  3.932365  0  0  0.067641  0  3.954754  0  0.204981  0  0.08146  0.076213  0  3.917252  0
C  C43  1  0.91850700  0.52804120  0.65063040  1  0  0.083701  0  3.680216  0  0  0.073184  0  3.932388  0  0  0.067682  0  3.954777  0  0.204937  0  0.081483  0.076255  0  3.917274  0
C  C44  1  0.11450794  0.36213705  0.27921018  1  0  -0.053801  0  3.647991  0  0  -0.101397  0  3.914506  0  0  -0.095741  0  3.92954  0  0.080391  0  -0.054015  -0.10526  0  3.904656  0
C  C45  1  0.88549184  0.63786437  0.72078967  1  0  -0.053811  0  3.64804  0  0  -0.101405  0  3.91455  0  0  -0.095748  0  3.929582  0  0.080416  0  -0.054013  -0.105268  0  3.9047  0
C  C46  1  0.94020488  0.49891234  0.37849260  1  0  -0.092629  0  3.651011  0  0  -0.135804  0  3.920934  0  0  -0.131246  0  3.935121  0  0.039588  0  -0.057887  -0.137416  0  3.9107  0
C  C47  1  0.05979577  0.50108635  0.62151094  1  0  -0.092703  0  3.650896  0  0  -0.135821  0  3.920846  0  0  -0.131263  0  3.93503  0  0.040002  0  -0.057881  -0.137434  0  3.910613  0
C  C48  1  0.59266771  0.45776086  0.11711511  1  0  -0.061074  0  3.646085  0  0  -0.106624  0  3.907164  0  0  -0.102112  0  3.92383  0  -0.006775  0  -0.054963  -0.108762  0  3.894986  0
C  C49  1  0.40733070  0.54223692  0.88288453  1  0  -0.061103  0  3.645933  0  0  -0.106667  0  3.907036  0  0  -0.10216  0  3.923716  0  -0.006804  0  -0.054993  -0.108808  0  3.894855  0
C  C50  1  0.54883437  0.57637294  0.14762583  1  0  0.080793  0  3.689003  0  0  0.073979  0  3.94402  0  0  0.069381  0  3.967274  0  0.158479  0  0.08253  0.077114  0  3.92822  0
C  C51  1  0.45116621  0.42362484  0.85237383  1  0  0.080851  0  3.688861  0  0  0.074011  0  3.943926  0  0  0.069405  0  3.967186  0  0.158514  0  0.082531  0.077151  0  3.928117  0
C  C52  1  0.30204861  0.50422902  0.11229284  1  0  0.066135  0  3.68856  0  0  0.063042  0  3.949179  0  0  0.05741  0  3.97225  0  0.156204  0  0.081567  0.066198  0  3.933566  0
C  C53  1  0.69795212  0.49577058  0.88770655  1  0  0.066169  0  3.688519  0  0  0.063095  0  3.949126  0  0  0.057462  0  3.972197  0  0.156169  0  0.081609  0.066251  0  3.933512  0
C  C54  1  0.40370571  0.60287714  0.14645696  1  0  -0.085065  0  3.64743  0  0  -0.129249  0  3.914681  0  0  -0.124344  0  3.928131  0  0.096289  0  -0.052909  -0.13263  0  3.90623  0
C  C55  1  0.59629603  0.39712155  0.85354220  1  0  -0.085115  0  3.64746  0  0  -0.129338  0  3.914729  0  0  -0.12443  0  3.928177  0  0.096311  0  -0.052975  -0.132725  0  3.906289  0
C  C56  1  0.48218448  0.96434688  0.79997744  1  0  0.718925  0  3.843508  0  0  0.667535  0  4.134796  0  0  0.70428  0  4.124471  0  1.635461  0  0.240011  0.642161  0  4.141208  0
C  C57  1  0.51781516  0.03565272  0.20002341  1  0  0.71883  0  3.843659  0  0  0.667439  0  4.134958  0  0  0.704182  0  4.124635  0  1.635398  0  0.239995  0.642064  0  4.141371  0
C  C58  1  0.48852605  0.91857243  0.68486750  1  0  -0.030236  0  3.677976  0  0  -0.008601  0  3.920281  0  0  -0.017132  0  3.939943  0  0.05692  0  0.001779  -0.002915  0  3.907371  0
C  C59  1  0.51147474  0.08142808  0.31513285  1  0  -0.030162  0  3.67802  0  0  -0.008532  0  3.920316  0  0  -0.017062  0  3.939978  0  0.056934  0  0.001818  -0.002847  0  3.907406  0
C  C60  1  0.61902790  0.87500113  0.64173609  1  0  -0.055216  0  3.624451  0  0  -0.098876  0  3.882312  0  0  -0.094091  0  3.896466  0  -0.032547  0  -0.054912  -0.102712  0  3.873837  0
C  C61  1  0.38097079  0.12500029  0.35826449  1  0  -0.055302  0  3.624445  0  0  -0.098948  0  3.882301  0  0  -0.094165  0  3.896454  0  -0.032515  0  -0.05495  -0.102783  0  3.873823  0
C  C62  1  0.36861252  0.91825926  0.62152379  1  0  -0.053684  0  3.615228  0  0  -0.097689  0  3.873915  0  0  -0.093519  0  3.88926  0  -0.022544  0  -0.052383  -0.100995  0  3.864436  0
C  C63  1  0.63138712  0.08174034  0.37847633  1  0  -0.053741  0  3.615324  0  0  -0.09774  0  3.874004  0  0  -0.093569  0  3.889348  0  -0.022549  0  -0.052408  -0.101046  0  3.864527  0
C  C64  1  0.38319855  0.87653332  0.51553380  1  0  0.069355  0  3.705367  0  0  0.066856  0  3.965723  0  0  0.062134  0  3.988818  0  0.21224  0  0.078729  0.069451  0  3.949952  0
C  C65  1  0.61680116  0.12346719  0.48446654  1  0  0.069327  0  3.70533  0  0  0.066839  0  3.96569  0  0  0.062118  0  3.988784  0  0.212353  0  0.078707  0.069434  0  3.949921  0
C  C66  1  0.62718841  0.83126778  0.53573744  1  0  0.077994  0  3.682458  0  0  0.074871  0  3.93941  0  0  0.069953  0  3.962359  0  0.21725  0  0.081536  0.077585  0  3.923765  0
C  C67  1  0.37281014  0.16873182  0.46426266  1  0  0.07796  0  3.682572  0  0  0.074903  0  3.939445  0  0  0.069988  0  3.962393  0  0.21723  0  0.08155  0.077618  0  3.923799  0
C  C68  1  0.51090599  0.83145623  0.47040707  1  0  -0.103492  0  3.679879  0  0  -0.147853  0  3.946205  0  0  -0.143852  0  3.961223  0  0.047461  0  -0.062328  -0.148538  0  3.934372  0
C  C69  1  0.48909271  0.16854519  0.52959277  1  0  -0.103499  0  3.679913  0  0  -0.147913  0  3.946255  0  0  -0.143911  0  3.961273  0  0.047463  0  -0.062341  -0.148596  0  3.934418  0
N  N70  1  0.67871264  0.43443300  0.36274845  1  0  0.471564  0  3.942529  0  0  0.530168  0  4.194964  0  0  0.551295  0  4.20373  0  0.389915  0  0.060359  0.516222  0  4.188597  0
N  N71  1  0.32128931  0.56556842  0.63725288  1  0  0.471575  0  3.942518  0  0  0.530215  0  4.194926  0  0  0.551341  0  4.203688  0  0.389938  0  0.06037  0.516268  0  4.188558  0
N  N72  1  0.20018706  0.56462252  0.39353299  1  0  0.473917  0  3.939603  0  0  0.532169  0  4.189878  0  0  0.553329  0  4.199086  0  0.391643  0  0.058325  0.518095  0  4.183662  0
N  N73  1  0.79981482  0.43537799  0.60646664  1  0  0.473855  0  3.939677  0  0  0.532187  0  4.18984  0  0  0.553347  0  4.199047  0  0.391631  0  0.058309  0.518112  0  4.183625  0
N  N74  1  0.14758438  0.52889697  0.10661445  1  0  0.507063  0  3.888059  0  0  0.532092  0  4.190677  0  0  0.552432  0  4.200795  0  0.382115  0  0.063812  0.518913  0  4.182759  0
N  N75  1  0.85241634  0.47110263  0.89338422  1  0  0.507009  0  3.888156  0  0  0.53202  0  4.190797  0  0  0.552359  0  4.200916  0  0.382095  0  0.063782  0.518841  0  4.182877  0
N  N76  1  0.66175478  0.67717595  0.17501515  1  0  0.461666  0  3.939447  0  0  0.506056  0  4.214425  0  0  0.52317  0  4.22691  0  0.375581  0  0.059085  0.493343  0  4.20622  0
N  N77  1  0.33824588  0.32282274  0.82498474  1  0  0.461736  0  3.939303  0  0  0.506204  0  4.214183  0  0  0.523328  0  4.226666  0  0.375555  0  0.059129  0.49349  0  4.205977  0
N  N78  1  0.26062520  0.88379004  0.44786848  1  0  0.495163  0  3.922881  0  0  0.520363  0  4.230129  0  0  0.540761  0  4.240182  0  0.419366  0  0.055809  0.506918  0  4.223066  0
N  N79  1  0.73937458  0.11621138  0.55213137  1  0  0.495215  0  3.922854  0  0  0.52042  0  4.230093  0  0  0.54082  0  4.240146  0  0.419265  0  0.055819  0.506976  0  4.22303  0
N  N80  1  0.76460247  0.78442271  0.49090785  1  0  0.507125  0  3.901504  0  0  0.533237  0  4.202749  0  0  0.554289  0  4.212078  0  0.380779  0  0.060082  0.519414  0  4.195908  0
N  N81  1  0.23539616  0.21557780  0.50909249  1  0  0.507121  0  3.901481  0  0  0.533214  0  4.202727  0  0  0.554264  0  4.212058  0  0.380791  0  0.060059  0.519391  0  4.195886  0
O  O82  1  0.92990185  0.11021099  0.08672744  1  0  -0.701328  0  2.075616  0  0  -0.636161  0  2.33344  0  0  -0.667234  0  2.321377  0  -1.222081  0  -0.3762  -0.613877  0  2.341702  0
O  O83  1  0.07009570  0.88978952  0.91327289  1  0  -0.701265  0  2.075634  0  0  -0.636104  0  2.333515  0  0  -0.667177  0  2.321454  0  -1.22213  0  -0.376179  -0.613818  0  2.341778  0
O  O84  1  0.16240315  0.13198299  0.14284414  1  0  -0.677758  0  2.003719  0  0  -0.617088  0  2.249028  0  0  -0.647211  0  2.238967  0  -1.205283  0  -0.355898  -0.596092  0  2.256481  0
O  O85  1  0.83759309  0.86801479  0.85715403  1  0  -0.677714  0  2.003621  0  0  -0.617023  0  2.248977  0  0  -0.647143  0  2.238916  0  -1.205345  0  -0.355847  -0.596027  0  2.256426  0
O  O86  1  0.31814534  0.55349300  0.35016138  1  0  -0.334657  0  1.778373  0  0  -0.334318  0  1.978185  0  0  -0.34647  0  1.976066  0  -0.449474  0  -0.1217  -0.326293  0  1.979788  0
O  O87  1  0.68185654  0.44650752  0.64983899  1  0  -0.334609  0  1.778396  0  0  -0.334302  0  1.978181  0  0  -0.346454  0  1.976062  0  -0.44944  0  -0.121666  -0.326275  0  1.979782  0
O  O88  1  0.58105504  0.36032811  0.31388427  1  0  -0.341166  0  1.758139  0  0  -0.3311  0  1.943366  0  0  -0.345187  0  1.942656  0  -0.460428  0  -0.123802  -0.320763  0  1.943319  0
O  O89  1  0.41894576  0.63967240  0.68611755  1  0  -0.341168  0  1.758176  0  0  -0.331123  0  1.943398  0  0  -0.345223  0  1.942702  0  -0.460481  0  -0.123824  -0.320786  0  1.94335  0
O  O90  1  0.17411732  0.64888738  0.47107593  1  0  -0.342647  0  1.803011  0  0  -0.337617  0  2.001326  0  0  -0.352702  0  2.001911  0  -0.469235  0  -0.122616  -0.327619  0  2.001091  0
O  O91  1  0.82588348  0.35111313  0.52892370  1  0  -0.342649  0  1.803009  0  0  -0.337644  0  2.001288  0  0  -0.352729  0  2.001872  0  -0.469237  0  -0.122631  -0.327646  0  2.001054  0
O  O92  1  0.16878906  0.13260205  0.92900056  1  0  -0.867787  0  1.90812  0  0  -0.813371  0  2.10689  0  0  -0.836075  0  2.075082  0  -1.290577  0  -0.60565  -0.796952  0  2.130138  0
O  O93  1  0.83121159  0.86739664  0.07099932  1  0  -0.867849  0  1.908059  0  0  -0.813488  0  2.106749  0  0  -0.836188  0  2.074935  0  -1.290606  0  -0.605694  -0.797067  0  2.130001  0
O  O94  1  0.66970698  0.21879876  0.03671244  1  0  -0.672435  0  2.000313  0  0  -0.618662  0  2.246562  0  0  -0.647748  0  2.236968  0  -1.181905  0  -0.347783  -0.598282  0  2.253675  0
O  O95  1  0.33028948  0.78120175  0.96328789  1  0  -0.672485  0  2.000283  0  0  -0.618688  0  2.246548  0  0  -0.647771  0  2.236944  0  -1.181978  0  -0.347796  -0.598305  0  2.253663  0
O  O96  1  0.43840347  0.14613319  0.03353745  1  0  -0.710511  0  2.118721  0  0  -0.645914  0  2.377169  0  0  -0.677369  0  2.367191  0  -1.234845  0  -0.367461  -0.623255  0  2.383945  0
O  O97  1  0.56159509  0.85386641  0.96646338  1  0  -0.710556  0  2.118745  0  0  -0.645919  0  2.37719  0  0  -0.677377  0  2.367214  0  -1.234823  0  -0.367449  -0.623262  0  2.383964  0
O  O98  1  0.12320451  0.87625474  0.11504904  1  0  -0.823359  0  1.884885  0  0  -0.764115  0  2.067642  0  0  -0.784968  0  2.040542  0  -1.25506  0  -0.552326  -0.748904  0  2.087752  0
O  O99  1  0.87679506  0.12374395  0.88495157  1  0  -0.823351  0  1.884842  0  0  -0.764096  0  2.067674  0  0  -0.784944  0  2.040577  0  -1.255058  0  -0.552314  -0.748887  0  2.087781  0
O  O100  1  0.65854720  0.52603015  0.43534976  1  0  -0.326208  0  1.771293  0  0  -0.329818  0  1.96828  0  0  -0.34209  0  1.965523  0  -0.454036  0  -0.126055  -0.321617  0  1.970412  0
O  O101  1  0.34145367  0.47397127  0.56465082  1  0  -0.326227  0  1.771284  0  0  -0.329831  0  1.968236  0  0  -0.342102  0  1.965478  0  -0.453989  0  -0.12604  -0.32163  0  1.970368  0
O  O102  1  0.36130931  0.95069830  0.83987298  1  0  -0.691072  0  2.040155  0  0  -0.632216  0  2.291239  0  0  -0.66229  0  2.280639  0  -1.20033  0  -0.349376  -0.610812  0  2.298413  0
O  O103  1  0.63868918  0.04930039  0.16012690  1  0  -0.691004  0  2.040215  0  0  -0.632148  0  2.291302  0  0  -0.662228  0  2.280723  0  -1.200334  0  -0.349359  -0.610746  0  2.298475  0
O  O104  1  0.05707988  0.44098053  0.08195764  1  0  -0.323859  0  1.750571  0  0  -0.309797  0  1.956661  0  0  -0.321946  0  1.955114  0  -0.435761  0  -0.106845  -0.301009  0  1.957278  0
O  O105  1  0.94292085  0.55901907  0.91804175  1  0  -0.323807  0  1.750641  0  0  -0.309748  0  1.956741  0  0  -0.321903  0  1.955202  0  -0.435758  0  -0.106816  -0.300959  0  1.957359  0
O  O106  1  0.78986931  0.65185434  0.17357952  1  0  -0.291838  0  1.773646  0  0  -0.290891  0  1.97761  0  0  -0.298634  0  1.973455  0  -0.40725  0  -0.10016  -0.285813  0  1.981356  0
O  O107  1  0.21013235  0.34814344  0.82642014  1  0  -0.291858  0  1.773584  0  0  -0.290917  0  1.977491  0  0  -0.298666  0  1.973339  0  -0.407198  0  -0.100127  -0.285838  0  1.981238  0
O  O108  1  0.62108939  0.78280950  0.19393420  1  0  -0.35216  0  1.78583  0  0  -0.329763  0  1.983877  0  0  -0.344061  0  1.981455  0  -0.499451  0  -0.114811  -0.319494  0  1.985527  0
O  O109  1  0.37891344  0.21718919  0.80606497  1  0  -0.352228  0  1.785811  0  0  -0.329866  0  1.983838  0  0  -0.344166  0  1.981413  0  -0.499502  0  -0.114873  -0.319602  0  1.9855  0
O  O110  1  0.11710835  0.63693395  0.12785318  1  0  -0.361459  0  1.787937  0  0  -0.344455  0  1.999113  0  0  -0.35762  0  1.993568  0  -0.471517  0  -0.120617  -0.335119  0  2.003121  0
O  O111  1  0.88289462  0.36306656  0.87214573  1  0  -0.36148  0  1.787976  0  0  -0.344452  0  1.999147  0  0  -0.357613  0  1.993601  0  -0.471496  0  -0.120626  -0.335114  0  2.003155  0
O  O112  1  0.15261259  0.93420657  0.48867108  1  0  -0.319646  0  1.739705  0  0  -0.312315  0  1.944213  0  0  -0.32245  0  1.939449  0  -0.429867  0  -0.115798  -0.305232  0  1.947132  0
O  O113  1  0.84738820  0.06579394  0.51132854  1  0  -0.319666  0  1.739688  0  0  -0.312329  0  1.944193  0  0  -0.322466  0  1.93943  0  -0.429892  0  -0.1158  -0.305247  0  1.947112  0
O  O114  1  0.86031365  0.77100902  0.55000032  1  0  -0.345488  0  1.749807  0  0  -0.326694  0  1.955117  0  0  -0.340575  0  1.952742  0  -0.449646  0  -0.118768  -0.316642  0  1.955913  0
O  O115  1  0.13968498  0.22899150  0.45000002  1  0  -0.345461  0  1.749775  0  0  -0.326651  0  1.955081  0  0  -0.340533  0  1.952711  0  -0.449667  0  -0.118735  -0.316598  0  1.955877  0
O  O116  1  0.27507041  0.84136219  0.35375950  1  0  -0.3726  0  1.73364  0  0  -0.359479  0  1.945402  0  0  -0.372833  0  1.941496  0  -0.498073  0  -0.14253  -0.350335  0  1.948265  0
O  O117  1  0.72493053  0.15864014  0.64623986  1  0  -0.372602  0  1.733629  0  0  -0.359498  0  1.945406  0  0  -0.372854  0  1.941501  0  -0.498057  0  -0.142525  -0.350351  0  1.948264  0
O  O118  1  0.77597398  0.76009616  0.39705400  1  0  -0.344307  0  1.755165  0  0  -0.337701  0  1.96961  0  0  -0.35059  0  1.966535  0  -0.453013  0  -0.128115  -0.328878  0  1.971635  0
O  O119  1  0.22402566  0.23990344  0.60294612  1  0  -0.344312  0  1.755166  0  0  -0.337715  0  1.969618  0  0  -0.350603  0  1.966543  0  -0.453025  0  -0.128127  -0.328891  0  1.971644  0
O  O120  1  0.60046840  0.01169488  0.84735543  1  0  -0.70941  0  2.066081  0  0  -0.653865  0  2.320894  0  0  -0.683854  0  2.310011  0  -1.208375  0  -0.364887  -0.632423  0  2.328487  0
O  O121  1  0.39953022  0.98830563  0.15264637  1  0  -0.709359  0  2.06607  0  0  -0.653812  0  2.320868  0  0  -0.683808  0  2.310002  0  -1.208348  0  -0.364885  -0.63237  0  2.328466  0
