# generated using pymatgen
data_CdH10C8S2N5ClO2
_symmetry_space_group_name_H-M   'P 1'
_cell_length_a   6.97747412
_cell_length_b   9.28602374
_cell_length_c   10.33156530
_cell_angle_alpha   90.00025825
_cell_angle_beta   90.00059519
_cell_angle_gamma   106.13567945
_symmetry_Int_Tables_number   1
_chemical_formula_structural   CdH10C8S2N5ClO2
_chemical_formula_sum   'Cd2 H20 C16 S4 N10 Cl2 O4'
_cell_volume   643.04234002
_cell_formula_units_Z   2
loop_
 _symmetry_equiv_pos_site_id
 _symmetry_equiv_pos_as_xyz
  1  'x, y, z'
loop_
 _atom_site_type_symbol
 _atom_site_label
 _atom_site_symmetry_multiplicity
 _atom_site_fract_x
 _atom_site_fract_y
 _atom_site_fract_z
 _atom_site_occupancy
 _atom_site_hle17_bader_spin_density
 _atom_site_hle17_ddec_charge
 _atom_site_hle17_ddec_spin_density
 _atom_site_hle17_ddec_sum_bond_order
 _atom_site_hle17_magmom
 _atom_site_hse06_10hf_bader_spin_density
 _atom_site_hse06_10hf_ddec_charge
 _atom_site_hse06_10hf_ddec_spin_density
 _atom_site_hse06_10hf_ddec_sum_bond_order
 _atom_site_hse06_10hf_magmom
 _atom_site_hse06_bader_spin_density
 _atom_site_hse06_ddec_charge
 _atom_site_hse06_ddec_spin_density
 _atom_site_hse06_ddec_sum_bond_order
 _atom_site_hse06_magmom
 _atom_site_pbe_bader_spin_density
 _atom_site_pbe_cm5_charge
 _atom_site_pbe_ddec_charge
 _atom_site_pbe_ddec_spin_density
 _atom_site_pbe_ddec_sum_bond_order
 _atom_site_pbe_magmom
Cd  Cd0  1  0.42519983  0.56690475  0.90053801  1  0  1.047318  0  1.789572  0  0  0.857537  0  2.23974  0  0  0.908643  0  2.194139  0  0  0.713872  0.821075  0  2.270982  0
Cd  Cd1  1  0.57480268  0.43309713  0.40053658  1  0  1.04732  0  1.789535  0  0  0.857555  0  2.239695  0  0  0.908661  0  2.194098  0  0  0.713875  0.821098  0  2.270914  0
H  H2  1  0.80475877  0.64119901  0.10731602  1  0  0.339341  0  0.902184  0  0  0.321921  0  0.966508  0  0  0.328873  0  0.961379  0  0  0.299598  0.317078  0  0.970076  0
H  H3  1  0.19525294  0.35880128  0.60731984  1  0  0.339451  0  0.901935  0  0  0.322031  0  0.966242  0  0  0.328982  0  0.961113  0  0  0.299657  0.317187  0  0.96982  0
H  H4  1  0.06551684  0.70578957  0.08427931  1  0  0.345094  0  0.918951  0  0  0.323381  0  0.987877  0  0  0.331947  0  0.980322  0  0  0.292667  0.317211  0  0.99349  0
H  H5  1  0.93449302  0.29421053  0.58428317  1  0  0.345124  0  0.919003  0  0  0.323413  0  0.98792  0  0  0.331979  0  0.980364  0  0  0.292659  0.317239  0  0.99353  0
H  H6  1  0.95653138  0.62875685  0.60883297  1  0  0.32471  0  0.926686  0  0  0.305935  0  0.996852  0  0  0.313553  0  0.990512  0  0  0.276372  0.300307  0  1.001777  0
H  H7  1  0.04345978  0.37124584  0.10883437  1  0  0.324806  0  0.926697  0  0  0.30603  0  0.996852  0  0  0.313648  0  0.990514  0  0  0.276418  0.300406  0  1.001762  0
H  H8  1  0.03474749  0.55270563  0.74783469  1  0  0.319752  0  0.925124  0  0  0.3052  0  0.988703  0  0  0.31225  0  0.983339  0  0  0.277184  0.300007  0  0.992767  0
H  H9  1  0.96524686  0.44729605  0.24783893  1  0  0.319808  0  0.925053  0  0  0.305247  0  0.988666  0  0  0.312301  0  0.98329  0  0  0.27722  0.300054  0  0.992724  0
H  H10  1  0.74058454  0.43428017  0.94600242  1  0  0.287342  0  0.912191  0  0  0.275426  0  0.974471  0  0  0.281104  0  0.971102  0  0  0.279815  0.271111  0  0.977234  0
H  H11  1  0.25941554  0.56572101  0.44599643  1  0  0.287283  0  0.912233  0  0  0.275377  0  0.974497  0  0  0.281055  0  0.971131  0  0  0.279821  0.271064  0  0.977258  0
H  H12  1  0.53121144  0.32690583  0.00474042  1  0  0.294271  0  0.903106  0  0  0.285002  0  0.957954  0  0  0.289832  0  0.956079  0  0  0.292078  0.281805  0  0.958886  0
H  H13  1  0.46878563  0.67309026  0.50474356  1  0  0.294273  0  0.903101  0  0  0.285  0  0.957947  0  0  0.289829  0  0.956074  0  0  0.292099  0.281803  0  0.958888  0
H  H14  1  0.95164555  0.07461982  0.72410574  1  0  0.140301  0  0.984371  0  0  0.144454  0  1.055634  0  0  0.147911  0  1.054258  0  0  0.101301  0.141952  0  1.056732  0
H  H15  1  0.04834692  0.92538166  0.22409782  1  0  0.140362  0  0.984375  0  0  0.14453  0  1.055584  0  0  0.147987  0  1.054205  0  0  0.101303  0.142028  0  1.05668  0
H  H16  1  0.60871824  0.06689053  0.60394365  1  0  0.152656  0  0.9791  0  0  0.160419  0  1.038576  0  0  0.164706  0  1.036147  0  0  0.105777  0.157062  0  1.040859  0
H  H17  1  0.39128155  0.93310869  0.10393911  1  0  0.152666  0  0.9792  0  0  0.160453  0  1.038629  0  0  0.164737  0  1.036207  0  0  0.105805  0.157094  0  1.040916  0
H  H18  1  0.44170096  0.19485707  0.81774733  1  0  0.09127  0  0.927291  0  0  0.106783  0  0.990604  0  0  0.107828  0  0.990519  0  0  0.105212  0.105912  0  0.990992  0
H  H19  1  0.55829970  0.80515081  0.31775698  1  0  0.091247  0  0.927341  0  0  0.10679  0  0.990635  0  0  0.10783  0  0.990548  0  0  0.105211  0.105915  0  0.991023  0
H  H20  1  0.70523313  0.23048520  0.81643778  1  0  0.07875  0  0.97768  0  0  0.084942  0  1.055719  0  0  0.086261  0  1.055979  0  0  0.089378  0.083582  0  1.05649  0
H  H21  1  0.29476722  0.76951818  0.31643771  1  0  0.078725  0  0.977681  0  0  0.084917  0  1.055732  0  0  0.086239  0  1.055969  0  0  0.089365  0.083553  0  1.056502  0
C  C22  1  0.72331208  0.87945073  0.80744730  1  0  0.173806  0  3.864206  0  0  0.168149  0  4.118299  0  0  0.174702  0  4.138411  0  0  0.073898  0.163666  0  4.104669  0
C  C23  1  0.27669269  0.12054580  0.30744736  1  0  0.173947  0  3.863932  0  0  0.168202  0  4.11809  0  0  0.174752  0  4.13821  0  0  0.073848  0.163724  0  4.104441  0
C  C24  1  0.90543706  0.98280618  0.79253753  1  0  -0.270618  0  3.698129  0  0  -0.29731  0  3.987293  0  0  -0.301498  0  4.004509  0  0  -0.120147  -0.294158  0  3.97666  0
C  C25  1  0.09455900  0.01718690  0.29253203  1  0  -0.27073  0  3.697721  0  0  -0.297493  0  3.987113  0  0  -0.301679  0  4.004329  0  0  -0.120152  -0.294345  0  3.976482  0
C  C26  1  0.89117678  0.79560342  0.96305627  1  0  0.423158  0  3.847511  0  0  0.388211  0  4.14527  0  0  0.410532  0  4.156042  0  0  0.231964  0.373616  0  4.137088  0
C  C27  1  0.10881747  0.20439683  0.46306519  1  0  0.423166  0  3.847548  0  0  0.388197  0  4.145325  0  0  0.41052  0  4.156096  0  0  0.231895  0.373607  0  4.137131  0
C  C28  1  0.54118771  0.86766397  0.73369209  1  0  0.178095  0  3.858359  0  0  0.169295  0  4.112411  0  0  0.176522  0  4.132339  0  0  0.074441  0.164195  0  4.099063  0
C  C29  1  0.45881381  0.13233079  0.23369443  1  0  0.178077  0  3.858379  0  0  0.169362  0  4.112352  0  0  0.176588  0  4.132284  0  0  0.074509  0.164267  0  4.09899  0
C  C30  1  0.50982972  0.96238657  0.63915277  1  0  -0.285646  0  3.669481  0  0  -0.306147  0  3.951297  0  0  -0.310898  0  3.967539  0  0  -0.123655  -0.303144  0  3.941086  0
C  C31  1  0.49016817  0.03760624  0.13914817  1  0  -0.285683  0  3.669571  0  0  -0.306224  0  3.951368  0  0  -0.310975  0  3.967609  0  0  -0.123712  -0.303226  0  3.941165  0
C  C32  1  0.22164975  0.74767702  0.68491787  1  0  0.398734  0  3.873548  0  0  0.364782  0  4.17058  0  0  0.387147  0  4.181316  0  0  0.226998  0.350014  0  4.162337  0
C  C33  1  0.77834299  0.25232298  0.18492486  1  0  0.398858  0  3.873498  0  0  0.364932  0  4.170484  0  0  0.387297  0  4.181219  0  0  0.227065  0.35016  0  4.162239  0
C  C34  1  0.58486138  0.36272634  0.68352553  1  0  0.672755  0  3.836799  0  0  0.628859  0  4.127148  0  0  0.661296  0  4.121679  0  0  0.200029  0.60716  0  4.129717  0
C  C35  1  0.41515118  0.63728812  0.18352866  1  0  0.672583  0  3.837092  0  0  0.628727  0  4.127396  0  0  0.661158  0  4.121936  0  0  0.199946  0.607015  0  4.12996  0
C  C36  1  0.58351251  0.28396194  0.81361311  1  0  -0.087989  0  3.687026  0  0  -0.146003  0  3.947734  0  0  -0.146489  0  3.956834  0  0  -0.086734  -0.1458  0  3.941561  0
C  C37  1  0.41649150  0.71604364  0.31361657  1  0  -0.087929  0  3.687146  0  0  -0.146009  0  3.9479  0  0  -0.146465  0  3.95696  0  0  -0.086726  -0.145818  0  3.941787  0
S  S38  1  0.07298343  0.95213975  0.90414303  1  0  0.091583  0  2.55348  0  0  0.096162  0  2.895687  0  0  0.093676  0  2.899279  0  0  0.086226  0.097589  0  2.8938  0
S  S39  1  0.92700728  0.04786111  0.40414247  1  0  0.091564  0  2.553183  0  0  0.09614  0  2.895447  0  0  0.093652  0  2.899041  0  0  0.086221  0.097564  0  2.893568  0
S  S40  1  0.26950582  0.90148599  0.58052469  1  0  0.108831  0  2.614495  0  0  0.116304  0  2.961202  0  0  0.113732  0  2.966257  0  0  0.097484  0.117202  0  2.958859  0
S  S41  1  0.73048224  0.09850972  0.08052490  1  0  0.108796  0  2.61454  0  0  0.116281  0  2.961223  0  0  0.113709  0  2.966281  0  0  0.097471  0.117175  0  2.958866  0
N  N42  1  0.71718954  0.77393667  0.90382065  1  0  -0.490739  0  3.1692  0  0  -0.423622  0  3.440512  0  0  -0.446738  0  3.453637  0  0  -0.364631  -0.40752  0  3.430613  0
N  N43  1  0.28281533  0.22605623  0.40382312  1  0  -0.490839  0  3.168994  0  0  -0.423684  0  3.44033  0  0  -0.446801  0  3.453459  0  0  -0.364641  -0.407577  0  3.430418  0
N  N44  1  0.92476164  0.71359862  0.06378591  1  0  -0.676239  0  3.138084  0  0  -0.638824  0  3.381293  0  0  -0.659393  0  3.37739  0  0  -0.583017  -0.624578  0  3.383931  0
N  N45  1  0.07524569  0.28639569  0.56378570  1  0  -0.67636  0  3.138289  0  0  -0.638922  0  3.381512  0  0  -0.659488  0  3.377606  0  0  -0.583013  -0.624676  0  3.384157  0
N  N46  1  0.37681608  0.74649734  0.75845035  1  0  -0.492196  0  3.211819  0  0  -0.420675  0  3.484406  0  0  -0.443999  0  3.497013  0  0  -0.369016  -0.404269  0  3.47463  0
N  N47  1  0.62317819  0.25349994  0.25845529  1  0  -0.49227  0  3.211974  0  0  -0.420769  0  3.484529  0  0  -0.444094  0  3.497144  0  0  -0.369082  -0.404368  0  3.474747  0
N  N48  1  0.04220801  0.64467966  0.69086290  1  0  -0.645712  0  3.126623  0  0  -0.611483  0  3.359695  0  0  -0.632215  0  3.358509  0  0  -0.583347  -0.596819  0  3.360564  0
N  N49  1  0.95778155  0.35531929  0.19086478  1  0  -0.645869  0  3.126707  0  0  -0.611649  0  3.359767  0  0  -0.632383  0  3.358576  0  0  -0.58342  -0.596987  0  3.360624  0
N  N50  1  0.59333162  0.38527844  0.92424131  1  0  -0.608925  0  3.150464  0  0  -0.54968  0  3.392894  0  0  -0.569013  0  3.393473  0  0  -0.631593  -0.535732  0  3.392186  0
N  N51  1  0.40666848  0.61472367  0.42424042  1  0  -0.608905  0  3.150464  0  0  -0.549657  0  3.392919  0  0  -0.568997  0  3.393491  0  0  -0.631641  -0.535711  0  3.392201  0
Cl  Cl52  1  0.07813879  0.37579747  0.88939192  1  0  -0.609257  0  0.892608  0  0  -0.544172  0  1.146371  0  0  -0.560033  0  1.126274  0  0  -0.305778  -0.532257  0  1.161271  0
Cl  Cl53  1  0.92186408  0.62420206  0.38939562  1  0  -0.609252  0  0.892634  0  0  -0.544148  0  1.146408  0  0  -0.560012  0  1.12631  0  0  -0.305778  -0.532225  0  1.161309  0
O  O54  1  0.48929256  0.45970329  0.67204601  1  0  -0.647265  0  1.960915  0  0  -0.582559  0  2.192599  0  0  -0.609312  0  2.184401  0  0  -0.32916  -0.564083  0  2.197728  0
O  O55  1  0.51072151  0.54030432  0.17204651  1  0  -0.647093  0  1.960851  0  0  -0.582401  0  2.192508  0  0  -0.609159  0  2.184317  0  0  -0.329085  -0.563913  0  2.197629  0
O  O56  1  0.67682586  0.32066203  0.58971520  1  0  -0.653144  0  2.003445  0  0  -0.582262  0  2.240832  0  0  -0.610909  0  2.231868  0  0  -0.327189  -0.562156  0  2.24607  0
O  O57  1  0.32318423  0.67934598  0.08971496  1  0  -0.653164  0  2.003685  0  0  -0.582251  0  2.240989  0  0  -0.610889  0  2.232002  0  0  -0.327163  -0.562136  0  2.246233  0
