# generated using pymatgen
data_BaP3H15C6O13
_symmetry_space_group_name_H-M   'P 1'
_cell_length_a   7.25230816
_cell_length_b   11.13798795
_cell_length_c   11.18116235
_cell_angle_alpha   65.67882422
_cell_angle_beta   73.35662378
_cell_angle_gamma   73.21029054
_symmetry_Int_Tables_number   1
_chemical_formula_structural   BaP3H15C6O13
_chemical_formula_sum   'Ba2 P6 H30 C12 O26'
_cell_volume   773.28177296
_cell_formula_units_Z   2
loop_
 _symmetry_equiv_pos_site_id
 _symmetry_equiv_pos_as_xyz
  1  'x, y, z'
loop_
 _atom_site_type_symbol
 _atom_site_label
 _atom_site_symmetry_multiplicity
 _atom_site_fract_x
 _atom_site_fract_y
 _atom_site_fract_z
 _atom_site_occupancy
 _atom_site_pbe_bader_charge
 _atom_site_pbe_bader_spin_density
 _atom_site_pbe_cm5_charge
 _atom_site_pbe_ddec_charge
 _atom_site_pbe_ddec_spin_density
 _atom_site_pbe_ddec_sum_bond_order
 _atom_site_pbe_magmom
Ba  Ba0  1  0.85435394  0.14166752  0.23127896  1  1.719486  0  0.961239  1.556554  0  1.503458  0
Ba  Ba1  1  0.14564082  0.85833812  0.76872350  1  1.719525  0  0.961228  1.556563  0  1.503373  0
P  P2  1  0.40921667  0.47004436  0.20615807  1  3.364621  0  0.403738  1.296807  0  5.241395  0
P  P3  1  0.59078700  0.52996028  0.79384046  1  3.364652  0  0.403819  1.296927  0  5.24112  0
P  P4  1  0.02089298  0.78162977  0.51609676  1  3.395199  0  0.374964  1.271188  0  5.346059  0
P  P5  1  0.97910897  0.21837085  0.48390642  1  3.395237  0  0.375103  1.271321  0  5.346084  0
P  P6  1  0.34962631  0.23617833  0.75180624  1  3.382053  0  0.384531  1.263081  0  5.31493  0
P  P7  1  0.65036181  0.76382029  0.24819497  1  3.381911  0  0.384592  1.263365  0  5.314935  0
H  H8  1  0.18615226  0.35706303  0.23276248  1  0.659008  0  0.31974  0.402586  0  0.933305  0
H  H9  1  0.81385170  0.64293056  0.76724767  1  0.658677  0  0.319717  0.402593  0  0.933311  0
H  H10  1  0.16078017  0.68985963  0.29376883  1  0.100514  0  0.113545  0.105161  0  1.023504  0
H  H11  1  0.83922811  0.31014401  0.70623014  1  0.100479  0  0.113561  0.105153  0  1.023582  0
H  H12  1  0.52414262  0.65838847  0.11353629  1  0.669804  0  0.314047  0.395288  0  0.9488  0
H  H13  1  0.47586278  0.34161517  0.88646232  1  0.669838  0  0.314083  0.395331  0  0.948736  0
H  H14  1  0.15443239  0.51939288  0.71775249  1  0.091093  0  0.117423  0.107671  0  1.013029  0
H  H15  1  0.84556610  0.48060473  0.28225256  1  0.091122  0  0.117452  0.1077  0  1.013045  0
H  H16  1  0.30214300  0.85063485  0.42129228  1  0.67496  0  0.318527  0.402013  0  0.936127  0
H  H17  1  0.69785406  0.14936778  0.57871187  1  0.674929  0  0.31849  0.401997  0  0.936184  0
H  H18  1  0.45604950  0.28294327  0.46958038  1  0.123316  0  0.121043  0.11036  0  1.01723  0
H  H19  1  0.54395965  0.71705736  0.53041788  1  0.123274  0  0.120984  0.110218  0  1.017328  0
H  H20  1  0.13103817  0.16500377  0.70745566  1  0.661582  0  0.311896  0.393442  0  0.956461  0
H  H21  1  0.86895946  0.83499686  0.29254206  1  0.66162  0  0.311891  0.393451  0  0.956455  0
H  H22  1  0.78055838  0.05806530  0.97828209  1  0.65107  0  0.295926  0.394683  0  0.935625  0
H  H23  1  0.21944818  0.94193431  0.02172332  1  0.65104  0  0.295949  0.394761  0  0.93551  0
H  H24  1  0.72854034  0.21192611  0.96108567  1  0.631008  0  0.300141  0.384525  0  0.948609  0
H  H25  1  0.27146708  0.78807552  0.03891697  1  0.631118  0  0.300105  0.384466  0  0.9487  0
H  H26  1  0.48353717  0.00056015  0.31753850  1  0.635066  0  0.295773  0.376013  0  0.966629  0
H  H27  1  0.51646018  0.99944651  0.68245769  1  0.635088  0  0.295767  0.375973  0  0.966668  0
H  H28  1  0.35480299  0.13138164  0.34107376  1  0.634516  0  0.299565  0.39337  0  0.937242  0
H  H29  1  0.64518687  0.86862602  0.65892342  1  0.63459  0  0.299594  0.393384  0  0.937223  0
H  H30  1  0.90985915  0.43045730  0.97262233  1  0.624902  0  0.305076  0.400834  0  0.921032  0
H  H31  1  0.09014423  0.56954333  0.02737342  1  0.624903  0  0.305127  0.400958  0  0.920851  0
H  H32  1  0.11486458  0.33310411  0.96052767  1  0.628885  0  0.295173  0.386335  0  0.949101  0
H  H33  1  0.88513880  0.66689652  0.03946719  1  0.628915  0  0.295167  0.386328  0  0.949121  0
H  H34  1  0.30357824  0.11574268  0.03586581  1  0.635405  0  0.308567  0.392944  0  0.929936  0
H  H35  1  0.69642197  0.88425896  0.96412923  1  0.635407  0  0.308563  0.392925  0  0.929966  0
H  H36  1  0.33678934  0.98235873  0.16452560  1  0.622028  0  0.299529  0.388533  0  0.94805  0
H  H37  1  0.66321174  0.01763989  0.83546961  1  0.621883  0  0.299497  0.388501  0  0.948086  0
C  C38  1  0.31638934  0.48510195  0.36819313  1  -0.560676  0  -0.027375  -0.225138  0  4.032455  0
C  C39  1  0.68362154  0.51490772  0.63180110  1  -0.560812  0  -0.027352  -0.225068  0  4.032662  0
C  C40  1  0.20165247  0.60520822  0.38169096  1  0.012828  0  -0.06674  -0.033874  0  3.967788  0
C  C41  1  0.79835207  0.39479844  0.61830480  1  0.012895  0  -0.06681  -0.033959  0  3.968226  0
C  C42  1  0.14361072  0.61834508  0.50715316  1  -0.570915  0  -0.023061  -0.205378  0  3.978237  0
C  C43  1  0.85638404  0.38165554  0.49285136  1  -0.570687  0  -0.02311  -0.205512  0  3.978482  0
C  C44  1  0.19691837  0.50899452  0.62025244  1  -0.041356  0  -0.057487  -0.019558  0  3.930062  0
C  C45  1  0.80307551  0.49100410  0.37974859  1  -0.04132  0  -0.057543  -0.019591  0  3.930041  0
C  C46  1  0.30645033  0.38694360  0.60779071  1  -0.510732  0  -0.024999  -0.210404  0  3.99376  0
C  C47  1  0.69354500  0.61305501  0.39221184  1  -0.51083  0  -0.025022  -0.210533  0  3.993837  0
C  C48  1  0.36761388  0.37618591  0.48125999  1  -0.064849  0  -0.06049  -0.029887  0  3.960072  0
C  C49  1  0.63239784  0.62381070  0.51873854  1  -0.064751  0  -0.060379  -0.029626  0  3.960227  0
O  O50  1  0.59728169  0.37002208  0.20976787  1  -1.471031  0  -0.419179  -0.771589  0  2.188172  0
O  O51  1  0.40272573  0.62998457  0.79022734  1  -1.471028  0  -0.419251  -0.771629  0  2.188135  0
O  O52  1  0.24039435  0.44011639  0.16513548  1  -1.404405  0  -0.356595  -0.644925  0  2.283442  0
O  O53  1  0.75960012  0.55988523  0.83487226  1  -1.404162  0  -0.356544  -0.644972  0  2.283497  0
O  O54  1  0.42274828  0.61612861  0.10197809  1  -1.434746  0  -0.35738  -0.645933  0  2.297604  0
O  O55  1  0.57724906  0.38387302  0.89802106  1  -1.434714  0  -0.357425  -0.645976  0  2.297415  0
O  O56  1  0.92011532  0.86412749  0.39744429  1  -1.476988  0  -0.38949  -0.777942  0  2.243891  0
O  O57  1  0.07988232  0.13588317  0.60255915  1  -1.476959  0  -0.389499  -0.777955  0  2.2439  0
O  O58  1  0.19590598  0.84993122  0.50395991  1  -1.441095  0  -0.398731  -0.703947  0  2.291158  0
O  O59  1  0.80409224  0.15007242  0.49604541  1  -1.441092  0  -0.398683  -0.703912  0  2.291197  0
O  O60  1  0.89792988  0.76887882  0.65519332  1  -1.477371  0  -0.360529  -0.769881  0  2.211333  0
O  O61  1  0.10206746  0.23111779  0.34481236  1  -1.477627  0  -0.360653  -0.769959  0  2.211362  0
O  O62  1  0.34444113  0.26844079  0.87334313  1  -1.453535  0  -0.344313  -0.727066  0  2.235931  0
O  O63  1  0.65555592  0.73156184  0.12665745  1  -1.453571  0  -0.344248  -0.727035  0  2.235935  0
O  O64  1  0.16434431  0.17160477  0.78794142  1  -1.4175  0  -0.36648  -0.649161  0  2.257867  0
O  O65  1  0.83565101  0.82838883  0.21206140  1  -1.41738  0  -0.366527  -0.649269  0  2.257806  0
O  O66  1  0.53861255  0.14394722  0.71153665  1  -1.467743  0  -0.34883  -0.751938  0  2.254841  0
O  O67  1  0.46138651  0.85604336  0.28846850  1  -1.467683  0  -0.348879  -0.752097  0  2.255015  0
O  O68  1  0.76877789  0.12097530  0.02295222  1  -1.301912  0  -0.653336  -0.833545  0  1.999978  0
O  O69  1  0.23122291  0.87902432  0.97705337  1  -1.301995  0  -0.653332  -0.833568  0  1.99986  0
O  O70  1  0.49064015  0.08066407  0.33136338  1  -1.293832  0  -0.644541  -0.820154  0  1.975085  0
O  O71  1  0.50935287  0.91934258  0.66863362  1  -1.29404  0  -0.644558  -0.820135  0  1.975092  0
O  O72  1  0.99492183  0.35173510  0.02453042  1  -1.264362  0  -0.643283  -0.812715  0  1.97373  0
O  O73  1  0.00508097  0.64825749  0.97546962  1  -1.264488  0  -0.643315  -0.812813  0  1.973636  0
O  O74  1  0.23969449  0.04395198  0.10785489  1  -1.264208  0  -0.597592  -0.788352  0  2.000976  0
O  O75  1  0.76030744  0.95604363  0.89213514  1  -1.264055  0  -0.597574  -0.788311  0  2.001056  0
