# generated using pymatgen
data_MgH5C12O3F2
_symmetry_space_group_name_H-M   'P 1'
_cell_length_a   6.81329234
_cell_length_b   34.30978659
_cell_length_c   34.31234445
_cell_angle_alpha   119.56734823
_cell_angle_beta   93.79957815
_cell_angle_gamma   93.79069582
_symmetry_Int_Tables_number   1
_chemical_formula_structural   MgH5C12O3F2
_chemical_formula_sum   'Mg6 H30 C72 O18 F12'
_cell_volume   6915.82602011
_cell_formula_units_Z   6
loop_
 _symmetry_equiv_pos_site_id
 _symmetry_equiv_pos_as_xyz
  1  'x, y, z'
loop_
 _atom_site_type_symbol
 _atom_site_label
 _atom_site_symmetry_multiplicity
 _atom_site_fract_x
 _atom_site_fract_y
 _atom_site_fract_z
 _atom_site_occupancy
 _atom_site_pbe_bader_charge
 _atom_site_pbe_bader_spin_density
 _atom_site_pbe_cm5_charge
 _atom_site_pbe_ddec_charge
 _atom_site_pbe_ddec_spin_density
 _atom_site_pbe_ddec_sum_bond_order
 _atom_site_pbe_magmom
Mg  Mg0  1  0.49768655  0.63485463  0.33116854  1  1.682873  0  0.911638  1.410632  0  1.330846  0
Mg  Mg1  1  0.16651790  0.66884745  0.30366229  1  1.682788  0  0.91142  1.410605  0  1.330553  0
Mg  Mg2  1  0.86281996  0.69634394  0.36516551  1  1.681284  0  0.911517  1.410404  0  1.330538  0
Mg  Mg3  1  0.31272346  0.36189288  0.66250006  1  1.68408  0  0.911349  1.410602  0  1.329913  0
Mg  Mg4  1  0.65024683  0.33758032  0.69944629  1  1.682366  0  0.911439  1.41081  0  1.329526  0
Mg  Mg5  1  0.95082072  0.30063616  0.63819984  1  1.681621  0  0.911459  1.410894  0  1.329754  0
H  H6  1  0.97532567  0.44131371  0.88710038  1  0.063867  0  0.099359  0.102841  0  1.020685  0
H  H7  1  0.08772604  0.11296850  0.55436570  1  0.074298  0  0.099409  0.102861  0  1.020719  0
H  H8  1  0.53355927  0.44563505  0.55860441  1  0.074911  0  0.09929  0.102269  0  1.021311  0
H  H9  1  0.35545160  0.50823339  0.92499671  1  0.088404  0  0.097238  0.100947  0  1.023514  0
H  H10  1  0.43100186  0.07502957  0.58300942  1  0.093121  0  0.097164  0.101091  0  1.024059  0
H  H11  1  0.84765915  0.41683385  0.49191106  1  0.087099  0  0.09746  0.101307  0  1.023722  0
H  H12  1  0.00934078  0.42134221  0.82174969  1  0.105322  0  0.105908  0.109183  0  1.022533  0
H  H13  1  0.18755655  0.17832093  0.59950973  1  0.114026  0  0.106041  0.109802  0  1.022079  0
H  H14  1  0.58817066  0.40051954  0.57882985  1  0.107104  0  0.105906  0.109382  0  1.021697  0
H  H15  1  0.70083363  0.44631016  0.79556441  1  0.082284  0  0.107274  0.125337  0  0.997746  0
H  H16  1  0.90519694  0.20448877  0.65073112  1  0.067785  0  0.107167  0.125466  0  0.997683  0
H  H17  1  0.25451644  0.34923350  0.55376672  1  0.102052  0  0.107317  0.125572  0  0.997576  0
H  H18  1  0.60473503  0.48751303  0.87309097  1  0.037332  0  0.103933  0.103365  0  0.98981  0
H  H19  1  0.73157832  0.12695929  0.61434619  1  0.051768  0  0.10416  0.103149  0  0.989337  0
H  H20  1  0.11709107  0.38553649  0.51254180  1  0.064  0  0.103937  0.103007  0  0.989191  0
H  H21  1  0.86955231  0.57703428  0.11209694  1  0.061613  0  0.099371  0.103234  0  1.019717  0
H  H22  1  0.75766240  0.88787942  0.46476527  1  0.061276  0  0.099143  0.102859  0  1.01981  0
H  H23  1  0.29282456  0.53511623  0.42303957  1  0.077281  0  0.098977  0.102262  0  1.020257  0
H  H24  1  0.46993478  0.51758723  0.07057638  1  0.110852  0  0.096663  0.100568  0  1.027077  0
H  H25  1  0.39881699  0.92948305  0.44725677  1  0.082505  0  0.096489  0.100159  0  1.026818  0
H  H26  1  0.95154043  0.55269578  0.48214053  1  0.094319  0  0.096493  0.099746  0  1.027355  0
H  H27  1  0.81745689  0.59723427  0.17787263  1  0.087584  0  0.105519  0.108307  0  1.022008  0
H  H28  1  0.63926158  0.82214224  0.41942402  1  0.065989  0  0.105552  0.108508  0  1.021561  0
H  H29  1  0.22003612  0.58058095  0.40269773  1  0.101933  0  0.105536  0.108683  0  1.021876  0
H  H30  1  0.11655900  0.56975291  0.19714016  1  0.074999  0  0.106998  0.124714  0  1.000296  0
H  H31  1  0.91916947  0.80287338  0.37261159  1  0.107399  0  0.106602  0.124062  0  1.002356  0
H  H32  1  0.54666662  0.62733138  0.43018835  1  0.076778  0  0.10685  0.124218  0  1.000849  0
H  H33  1  0.22089812  0.53507362  0.12021873  1  0.07974  0  0.103061  0.10201  0  0.994917  0
H  H34  1  0.10038658  0.87980612  0.41493169  1  0.079658  0  0.103126  0.101711  0  0.995699  0
H  H35  1  0.68552648  0.58498243  0.46476275  1  0.075558  0  0.103045  0.10174  0  0.995249  0
C  C36  1  0.73616514  0.49267266  0.00173595  1  0.53259  0  0.085179  0.127746  0  4.074236  0
C  C37  1  0.73390232  0.99834741  0.49119405  1  0.497838  0  0.085526  0.128464  0  4.07372  0
C  C38  1  0.24238976  0.50866634  0.50705590  1  0.516305  0  0.085122  0.126899  0  4.074418  0
C  C39  1  0.83181628  0.53034801  0.04152670  1  0.062323  0  -0.028147  -0.071443  0  4.12268  0
C  C40  1  0.79027908  0.95847199  0.48879451  1  0.120258  0  -0.027871  -0.07117  0  4.123161  0
C  C41  1  0.30113686  0.51105002  0.46957306  1  0.10864  0  -0.028149  -0.069872  0  4.120857  0
C  C42  1  0.01651690  0.54770192  0.03645647  1  0.482871  0  0.083317  0.115048  0  4.082908  0
C  C43  1  0.98055071  0.96347278  0.51095646  1  0.476438  0  0.083485  0.114867  0  4.084738  0
C  C44  1  0.46931953  0.48889393  0.45242958  1  0.485666  0  0.082812  0.113425  0  4.08453  0
C  C45  1  0.09899961  0.52937692  0.99608539  1  0.523972  0  0.085338  0.128402  0  4.0752  0
C  C46  1  0.10342988  0.00384159  0.53298708  1  0.555198  0  0.084982  0.127823  0  4.073769  0
C  C47  1  0.57034701  0.46689609  0.47078701  1  0.518939  0  0.085582  0.127702  0  4.074644  0
C  C48  1  0.00391474  0.49153359  0.95639639  1  0.101535  0  -0.02836  -0.071271  0  4.125228  0
C  C49  1  0.04765420  0.04362493  0.53509408  1  0.027222  0  -0.028578  -0.070759  0  4.12448  0
C  C50  1  0.51248038  0.46481125  0.50846706  1  0.081925  0  -0.028519  -0.070378  0  4.123993  0
C  C51  1  0.81901307  0.47423365  0.96141688  1  0.494816  0  0.08331  0.116434  0  4.082405  0
C  C52  1  0.85707835  0.03866761  0.51306451  1  0.475552  0  0.083505  0.115662  0  4.082334  0
C  C53  1  0.34389627  0.48683815  0.52553190  1  0.496651  0  0.08316  0.115725  0  4.081732  0
C  C54  1  0.07578736  0.47012238  0.91269675  1  -0.044486  0  -0.102634  -0.117596  0  4.02038  0
C  C55  1  0.16315689  0.08734130  0.55740625  1  0.005019  0  -0.102823  -0.117726  0  4.019786  0
C  C56  1  0.60572762  0.44253313  0.52989763  1  -0.067043  0  -0.102885  -0.117323  0  4.020169  0
C  C57  1  0.24694238  0.48085291  0.90018396  1  -0.009482  0  -0.087344  -0.113396  0  3.9711  0
C  C58  1  0.34705105  0.09986382  0.58055360  1  -0.023746  0  -0.087151  -0.113503  0  3.971469  0
C  C59  1  0.76637666  0.41935670  0.51924535  1  0.012379  0  -0.08729  -0.113399  0  3.971071  0
C  C60  1  0.29962990  0.45715126  0.85427814  1  0.057341  0  -0.024422  0.077562  0  4.073088  0
C  C61  1  0.44537993  0.14579296  0.60281214  1  0.004098  0  -0.024295  0.077709  0  4.073594  0
C  C62  1  0.84256456  0.39713971  0.54295799  1  0.037406  0  -0.024127  0.077027  0  4.073417  0
C  C63  1  0.16327856  0.42729969  0.81738313  1  -0.0962  0  -0.077  -0.101832  0  3.93415  0
C  C64  1  0.34584488  0.18269228  0.60986375  1  -0.030428  0  -0.07785  -0.104559  0  3.934931  0
C  C65  1  0.73611190  0.39016173  0.57285160  1  -0.081764  0  -0.077485  -0.10307  0  3.93515  0
C  C66  1  0.21383360  0.40388575  0.77325917  1  -0.020025  0  -0.040549  -0.20594  0  3.97724  0
C  C67  1  0.44052298  0.22682131  0.63061341  1  -0.031432  0  -0.039718  -0.203559  0  3.976491  0
C  C68  1  0.81016848  0.36948181  0.59628686  1  -0.008863  0  -0.039792  -0.204581  0  3.978051  0
C  C69  1  0.41347770  0.41011419  0.76472520  1  0.591524  0  0.097156  0.369005  0  4.073575  0
C  C70  1  0.64872444  0.23535052  0.64538947  1  0.583126  0  0.097496  0.368957  0  4.074626  0
C  C71  1  0.00350002  0.35467114  0.59001901  1  0.580922  0  0.097545  0.369394  0  4.075315  0
C  C72  1  0.54970862  0.44101677  0.80199354  1  -0.02251  0  -0.106995  -0.217226  0  3.983169  0
C  C73  1  0.74764774  0.19807409  0.63900991  1  -0.003638  0  -0.107235  -0.218169  0  3.984177  0
C  C74  1  0.10874635  0.36098737  0.55908764  1  -0.040025  0  -0.107436  -0.218696  0  3.984546  0
C  C75  1  0.49466495  0.46389715  0.84521644  1  -0.041829  0  -0.076358  -0.083486  0  3.972876  0
C  C76  1  0.64941368  0.15485005  0.61863879  1  -0.068932  0  -0.076228  -0.081984  0  3.97167  0
C  C77  1  0.03078219  0.38130910  0.53619165  1  -0.060368  0  -0.076378  -0.081652  0  3.9708  0
C  C78  1  0.05467727  0.37338635  0.73772662  1  1.511935  0  0.23999  0.680462  0  4.120745  0
C  C79  1  0.31687207  0.26235407  0.63566893  1  1.51001  0  0.239629  0.680454  0  4.122812  0
C  C80  1  0.68146843  0.36443868  0.62676181  1  1.503094  0  0.239538  0.6804  0  4.120444  0
C  C81  1  0.76176801  0.55097668  0.08547622  1  -0.00574  0  -0.103803  -0.1189  0  4.018258  0
C  C82  1  0.67617318  0.91452862  0.46548435  1  0.053141  0  -0.10311  -0.118171  0  4.014659  0
C  C83  1  0.21054349  0.53440544  0.44896248  1  -0.051308  0  -0.102889  -0.11749  0  4.016509  0
C  C84  1  0.58364812  0.54206962  0.09673908  1  -0.064207  0  -0.087193  -0.113384  0  3.97309  0
C  C85  1  0.48652520  0.90329963  0.44545965  1  -0.097005  0  -0.087422  -0.112932  0  3.970243  0
C  C86  1  0.04106633  0.55447578  0.45775192  1  -0.011051  0  -0.087658  -0.113363  0  3.972701  0
C  C87  1  0.52787090  0.56338256  0.14241305  1  0.026793  0  -0.024498  0.07733  0  4.068557  0
C  C88  1  0.38515520  0.85761541  0.42104753  1  0.048367  0  -0.024117  0.077071  0  4.070665  0
C  C89  1  0.96417411  0.57888615  0.43647692  1  0.041963  0  -0.024187  0.077687  0  4.068552  0
C  C90  1  0.66211401  0.59055904  0.18080893  1  -0.029947  0  -0.075955  -0.100428  0  3.927909  0
C  C91  1  0.48098653  0.81921282  0.40979011  1  -0.026112  0  -0.076244  -0.100986  0  3.928864  0
C  C92  1  0.07132663  0.59017781  0.40936380  1  -0.084784  0  -0.07567  -0.100387  0  3.927028  0
C  C93  1  0.60697064  0.61000405  0.22463577  1  -0.038246  0  -0.039275  -0.203714  0  3.972293  0
C  C94  1  0.38208915  0.77538607  0.38539585  1  -0.069401  0  -0.039866  -0.203952  0  3.972377  0
C  C95  1  0.99689848  0.61462525  0.38997613  1  -0.01524  0  -0.040102  -0.205098  0  3.971921  0
C  C96  1  0.40516640  0.60247166  0.23116840  1  0.576402  0  0.09681  0.368831  0  4.074316  0
C  C97  1  0.17371471  0.76884454  0.37131268  1  0.638442  0  0.097692  0.37008  0  4.075048  0
C  C98  1  0.80258213  0.62869255  0.39750116  1  0.576876  0  0.097054  0.370293  0  4.07254  0
C  C99  1  0.26996648  0.57544731  0.19226495  1  -0.008693  0  -0.107299  -0.217267  0  3.983273  0
C  C100  1  0.07741633  0.80775139  0.38319951  1  -0.070973  0  -0.107414  -0.2173  0  3.985216  0
C  C101  1  0.69440152  0.61677525  0.42449364  1  -0.04022  0  -0.107559  -0.217863  0  3.983442  0
C  C102  1  0.32956314  0.55626198  0.14943905  1  -0.045228  0  -0.076641  -0.082346  0  3.971553  0
C  C103  1  0.17982986  0.85057905  0.40688413  1  -0.057249  0  -0.076902  -0.081768  0  3.972213  0
C  C104  1  0.77304474  0.59305867  0.44361283  1  -0.058189  0  -0.076341  -0.081436  0  3.97192  0
C  C105  1  0.76355629  0.63739392  0.26227119  1  1.505364  0  0.239011  0.67848  0  4.121237  0
C  C106  1  0.50117834  0.73775541  0.37513242  1  1.514516  0  0.239301  0.679133  0  4.120802  0
C  C107  1  0.12620628  0.62489546  0.36261458  1  1.516123  0  0.238901  0.67903  0  4.121956  0
O  O108  1  0.93699056  0.64630198  0.25500789  1  -1.241919  0  -0.355345  -0.642181  0  2.151035  0
O  O109  1  0.68190074  0.74501383  0.39131132  1  -1.241437  0  -0.355139  -0.642249  0  2.150856  0
O  O110  1  0.29074327  0.60871552  0.35369892  1  -1.241087  0  -0.35515  -0.642091  0  2.150826  0
O  O111  1  0.72134875  0.65164352  0.30304756  1  -1.295391  0  -0.402508  -0.768121  0  2.416259  0
O  O112  1  0.41827406  0.69697066  0.34856296  1  -1.300478  0  -0.402855  -0.768941  0  2.416287  0
O  O113  1  0.06980383  0.65145459  0.34839637  1  -1.295538  0  -0.402238  -0.768569  0  2.416995  0
O  O114  1  0.33988559  0.61932363  0.27183973  1  -1.309688  0  -0.44752  -0.777205  0  2.312103  0
O  O115  1  0.06786670  0.72816345  0.34746061  1  -1.310418  0  -0.447567  -0.777465  0  2.313073  0
O  O116  1  0.72049485  0.65254135  0.38067810  1  -1.311117  0  -0.447716  -0.777689  0  2.312375  0
O  O117  1  0.88264148  0.36710609  0.74737229  1  -1.239871  0  -0.355189  -0.641843  0  2.156375  0
O  O118  1  0.13519102  0.25270287  0.61975311  1  -1.242594  0  -0.35518  -0.642034  0  2.157336  0
O  O119  1  0.51562816  0.38033836  0.63300750  1  -1.24298  0  -0.35527  -0.64228  0  2.155019  0
O  O120  1  0.09298560  0.35336801  0.69622205  1  -1.303039  0  -0.404863  -0.771299  0  2.418946  0
O  O121  1  0.39670700  0.30385968  0.65720145  1  -1.30366  0  -0.404864  -0.771441  0  2.419703  0
O  O122  1  0.73968383  0.34290991  0.64674250  1  -1.301441  0  -0.404699  -0.771091  0  2.419205  0
O  O123  1  0.47605498  0.38845240  0.72374954  1  -1.306192  0  -0.445773  -0.775699  0  2.303051  0
O  O124  1  0.75230989  0.27632949  0.66475404  1  -1.308884  0  -0.445925  -0.776088  0  2.303609  0
O  O125  1  0.08766440  0.33531946  0.61165011  1  -1.311403  0  -0.445803  -0.775716  0  2.304178  0
F  F126  1  0.55816767  0.47263055  0.00209697  1  -0.622596  0  -0.087904  -0.108542  0  1.37904  0
F  F127  1  0.55489051  0.99804271  0.47103909  1  -0.621325  0  -0.088199  -0.108723  0  1.378893  0
F  F128  1  0.08354813  0.52881341  0.52689835  1  -0.620596  0  -0.087922  -0.108204  0  1.37945  0
F  F129  1  0.11983549  0.58430466  0.07283000  1  -0.63052  0  -0.092439  -0.114784  0  1.37153  0
F  F130  1  0.04798105  0.92704246  0.51094871  1  -0.623164  0  -0.092248  -0.114587  0  1.373877  0
F  F131  1  0.53680952  0.48891784  0.41601631  1  -0.620143  0  -0.091994  -0.114196  0  1.372987  0
F  F132  1  0.27702362  0.54933977  0.99559643  1  -0.623887  0  -0.087871  -0.108559  0  1.377534  0
F  F133  1  0.28257602  0.00424141  0.55316539  1  -0.622719  0  -0.087977  -0.108676  0  1.377113  0
F  F134  1  0.72918972  0.44668932  0.45098390  1  -0.619111  0  -0.087997  -0.108429  0  1.376749  0
F  F135  1  0.71562914  0.43763259  0.92506081  1  -0.625135  0  -0.092621  -0.114691  0  1.370496  0
F  F136  1  0.78940797  0.07507200  0.51305854  1  -0.620024  0  -0.092495  -0.114472  0  1.370992  0
F  F137  1  0.27615884  0.48682539  0.56192671  1  -0.618731  0  -0.092213  -0.114174  0  1.370722  0
