# generated using pymatgen
data_AlH5C11NO7F
_symmetry_space_group_name_H-M   'P 1'
_cell_length_a   6.63703661
_cell_length_b   11.04565554
_cell_length_c   11.14865888
_cell_angle_alpha   84.19808710
_cell_angle_beta   73.15339996
_cell_angle_gamma   73.93294839
_symmetry_Int_Tables_number   1
_chemical_formula_structural   AlH5C11NO7F
_chemical_formula_sum   'Al2 H10 C22 N2 O14 F2'
_cell_volume   751.48800830
_cell_formula_units_Z   2
loop_
 _symmetry_equiv_pos_site_id
 _symmetry_equiv_pos_as_xyz
  1  'x, y, z'
loop_
 _atom_site_type_symbol
 _atom_site_label
 _atom_site_symmetry_multiplicity
 _atom_site_fract_x
 _atom_site_fract_y
 _atom_site_fract_z
 _atom_site_occupancy
 _atom_site_pbe_bader_charge
 _atom_site_pbe_bader_spin_density
 _atom_site_pbe_cm5_charge
 _atom_site_pbe_ddec_charge
 _atom_site_pbe_ddec_spin_density
 _atom_site_pbe_ddec_sum_bond_order
 _atom_site_pbe_magmom
Al  Al0  1  0.49123156  0.49169281  0.50716076  1  2.502789  0  0.395691  1.637371  0  2.57916  0
Al  Al1  1  0.99310880  0.49331829  0.50477437  1  2.502751  0  0.396383  1.63798  0  2.579128  0
H  H2  1  0.26399234  0.34779315  0.59219541  1  0.66441  0  0.343279  0.430697  0  0.87264  0
H  H3  1  0.78154706  0.55873859  0.35801270  1  0.599611  0  0.347221  0.421289  0  0.873659  0
H  H4  1  0.01557361  0.71021472  0.10508625  1  0.034275  0  0.095536  0.101642  0  0.992995  0
H  H5  1  0.92839962  0.56994048  0.10828062  1  0.049354  0  0.090698  0.10102  0  1.016559  0
H  H6  1  0.06044210  0.56581144  0.87158264  1  0.061735  0  0.101539  0.125971  0  0.990255  0
H  H7  1  0.14283933  0.70623890  0.87083765  1  0.057007  0  0.101353  0.120087  0  0.979032  0
H  H8  1  0.20467771  0.22458264  0.30810678  1  0.079293  0  0.111703  0.119064  0  1.010514  0
H  H9  1  0.56167631  0.10937525  0.17761578  1  0.06023  0  0.111332  0.109242  0  0.978425  0
H  H10  1  0.47278511  0.75992412  0.36419198  1  0.1096  0  0.110978  0.115558  0  1.037585  0
H  H11  1  0.69654998  0.87667225  0.20650621  1  0.0511  0  0.105758  0.09935  0  1.001231  0
C  C12  1  0.85011869  0.26543308  0.48779488  1  1.600302  0  0.271438  0.647249  0  4.111828  0
C  C13  1  0.64560248  0.48563637  0.72894906  1  1.592078  0  0.279171  0.675287  0  4.086565  0
C  C14  1  0.13658927  0.71707457  0.52641032  1  1.633164  0  0.273257  0.641402  0  4.128792  0
C  C15  1  0.34917009  0.49188795  0.27818608  1  1.573426  0  0.274985  0.679802  0  4.076756  0
C  C16  1  0.42556655  0.48341695  0.13950377  1  0.073679  0  -0.019623  -0.181675  0  4.012759  0
C  C17  1  0.57374456  0.48080011  0.86796629  1  0.107913  0  -0.007347  -0.159896  0  3.983753  0
C  C18  1  0.28779614  0.53747487  0.06388907  1  0.047733  0  -0.006101  0.063634  0  3.905847  0
C  C19  1  0.71341676  0.42326429  0.94292739  1  0.486544  0  0.101671  0.154385  0  4.063094  0
C  C20  1  0.35923235  0.53615591  0.93354301  1  -0.031131  0  0.001439  0.078368  0  3.893906  0
C  C21  1  0.64150955  0.42462123  0.07409197  1  0.512959  0  0.096115  0.145526  0  4.067683  0
C  C22  1  0.05979684  0.61615864  0.06549209  1  0.003725  0  -0.14927  -0.19189  0  3.857575  0
C  C23  1  0.14160662  0.61384414  0.91720851  1  0.010606  0  -0.147055  -0.193129  0  3.822887  0
C  C24  1  0.92051757  0.12380169  0.48942863  1  0.105743  0  0.009967  -0.095596  0  3.88581  0
C  C25  1  0.12901935  0.05878605  0.41361332  1  -0.008641  0  0.013485  0.078831  0  3.935921  0
C  C26  1  0.79108579  0.05654477  0.57324462  1  0.210768  0  0.090203  0.012014  0  3.92074  0
C  C27  1  0.26175337  0.12318856  0.32120346  1  -0.002502  0  -0.078052  -0.113943  0  3.933104  0
C  C28  1  0.46169749  0.05850314  0.24817580  1  -0.004443  0  -0.074053  -0.055679  0  3.988181  0
C  C29  1  0.06995845  0.85916149  0.52020939  1  0.038283  0  0.020811  -0.073253  0  3.863682  0
C  C30  1  0.86776042  0.92535301  0.59131412  1  0.247832  0  0.0891  0.00443  0  3.915226  0
C  C31  1  0.20479350  0.92443518  0.42891595  1  0.043344  0  0.010007  0.066968  0  3.92879  0
C  C32  1  0.41192336  0.86098257  0.35164473  1  -0.02889  0  -0.081383  -0.116538  0  3.93155  0
C  C33  1  0.53749417  0.92685818  0.26414695  1  0.01155  0  -0.079734  -0.066931  0  4.007263  0
N  N34  1  0.73451538  0.85899563  0.69052000  1  0.378501  0  0.063779  0.521474  0  4.214106  0
N  N35  1  0.57897532  0.12701793  0.65557574  1  0.436392  0  0.063479  0.514839  0  4.250089  0
O  O36  1  0.66209184  0.31798165  0.47449455  1  -1.244143  0  -0.231668  -0.584269  0  2.36406  0
O  O37  1  0.83207101  0.50356049  0.67591015  1  -1.25178  0  -0.22368  -0.574922  0  2.353174  0
O  O38  1  0.00423181  0.66474510  0.50344823  1  -1.246952  0  -0.227737  -0.577141  0  2.346714  0
O  O39  1  0.47814419  0.51214030  0.33452820  1  -1.255143  0  -0.238066  -0.608922  0  2.355162  0
O  O40  1  0.32093175  0.66308377  0.54351887  1  -1.250404  0  -0.2183  -0.553024  0  2.340365  0
O  O41  1  0.15545457  0.48261799  0.32914269  1  -1.256133  0  -0.232181  -0.587598  0  2.314133  0
O  O42  1  0.98600307  0.31897465  0.50415034  1  -1.246418  0  -0.224223  -0.57792  0  2.36421  0
O  O43  1  0.50924035  0.47311697  0.67419939  1  -1.256887  0  -0.223091  -0.574082  0  2.338083  0
O  O44  1  0.24637647  0.43189420  0.55359626  1  -1.46316  0  -0.449391  -0.996955  0  2.205772  0
O  O45  1  0.74286587  0.54878485  0.44872713  1  -1.406192  0  -0.448726  -0.984007  0  2.181863  0
O  O46  1  0.83269690  0.77424476  0.75024818  1  -0.44577  0  -0.105089  -0.308247  0  1.951324  0
O  O47  1  0.53409152  0.89372429  0.70853528  1  -0.401662  0  -0.123669  -0.316418  0  1.892635  0
O  O48  1  0.41851160  0.15270922  0.61408518  1  -0.42836  0  -0.092174  -0.288876  0  1.968629  0
O  O49  1  0.58404835  0.15767962  0.75799989  1  -0.418277  0  -0.114052  -0.300914  0  1.864522  0
F  F50  1  0.92288673  0.36084872  0.89017246  1  -0.612683  0  -0.082666  -0.104179  0  1.376988  0
F  F51  1  0.78805371  0.36273684  0.13751758  1  -0.627124  0  -0.093047  -0.117475  0  1.373214  0
