# generated using pymatgen
data_AlH12(C8O3)3
_symmetry_space_group_name_H-M   'P 1'
_cell_length_a   4.00389119
_cell_length_b   28.92950014
_cell_length_c   28.93028967
_cell_angle_alpha   119.99837049
_cell_angle_beta   90.00062123
_cell_angle_gamma   89.99930940
_symmetry_Int_Tables_number   1
_chemical_formula_structural   AlH12(C8O3)3
_chemical_formula_sum   'Al2 H24 C48 O18'
_cell_volume   2902.10913691
_cell_formula_units_Z   2
loop_
 _symmetry_equiv_pos_site_id
 _symmetry_equiv_pos_as_xyz
  1  'x, y, z'
loop_
 _atom_site_type_symbol
 _atom_site_label
 _atom_site_symmetry_multiplicity
 _atom_site_fract_x
 _atom_site_fract_y
 _atom_site_fract_z
 _atom_site_occupancy
 _atom_site_pbe_bader_charge
 _atom_site_pbe_bader_spin_density
 _atom_site_pbe_cm5_charge
 _atom_site_pbe_ddec_charge
 _atom_site_pbe_ddec_spin_density
 _atom_site_pbe_ddec_sum_bond_order
 _atom_site_pbe_magmom
Al  Al0  1  0.00839450  0.49999669  0.49999199  1  2.506432  0  0.429315  1.595228  0  2.577155  0
Al  Al1  1  0.00733770  0.16666436  0.83334207  1  2.506744  0  0.429495  1.59484  0  2.579457  0
H  H2  1  0.18944749  0.17210680  0.69480228  1  0.078458  0  0.109817  0.120009  0  0.989622  0
H  H3  1  0.16901330  0.22066989  0.64353268  1  0.091697  0  0.104268  0.108284  0  0.987848  0
H  H4  1  0.78871372  0.29855257  0.81578380  1  0.099277  0  0.119182  0.144427  0  0.970503  0
H  H5  1  0.78972828  0.36813932  0.51759316  1  0.11008  0  0.119114  0.144166  0  0.970777  0
H  H6  1  0.19046794  0.49457768  0.63856359  1  0.080462  0  0.1099  0.120215  0  0.989404  0
H  H7  1  0.16965974  0.44598558  0.68979655  1  0.093175  0  0.10427  0.1084  0  0.987575  0
H  H8  1  0.18951647  0.02268371  0.82790553  1  0.126275  0  0.109848  0.120152  0  0.989607  0
H  H9  1  0.16902077  0.92285668  0.77935067  1  0.027738  0  0.104335  0.108455  0  0.987925  0
H  H10  1  0.78875141  0.01721527  0.70145738  1  0.119494  0  0.119243  0.144527  0  0.970515  0
H  H11  1  0.78970308  0.64943951  0.63184815  1  0.111687  0  0.119109  0.144148  0  0.970742  0
H  H12  1  0.19044391  0.64399598  0.50541883  1  0.124344  0  0.109854  0.120106  0  0.989464  0
H  H13  1  0.16962923  0.74382112  0.55401368  1  0.029811  0  0.104262  0.10837  0  0.987601  0
H  H14  1  0.18946759  0.30520467  0.97730793  1  0.077383  0  0.109802  0.120026  0  0.989663  0
H  H15  1  0.16897073  0.35648170  0.07713449  1  0.081328  0  0.104345  0.108427  0  0.987802  0
H  H16  1  0.78878000  0.18423320  0.98279193  1  0.144253  0  0.119226  0.144512  0  0.970417  0
H  H17  1  0.78969447  0.48241099  0.35054492  1  0.122957  0  0.119132  0.144248  0  0.970577  0
H  H18  1  0.19048031  0.36143015  0.35600669  1  0.0735  0  0.109942  0.120295  0  0.989306  0
H  H19  1  0.16963896  0.31019866  0.25618356  1  0.081021  0  0.104224  0.108292  0  0.987534  0
H  H20  1  0.75054757  0.37143797  0.74697615  1  0.603667  0  0.316765  0.347141  0  0.914142  0
H  H21  1  0.75146129  0.29522375  0.58636737  1  0.603717  0  0.316788  0.348028  0  0.914302  0
H  H22  1  0.75049885  0.87552784  0.62857855  1  0.601488  0  0.316818  0.347528  0  0.914808  0
H  H23  1  0.75141952  0.79112790  0.70476619  1  0.601545  0  0.316868  0.347577  0  0.914439  0
H  H24  1  0.75050379  0.25304636  0.12447969  1  0.60546  0  0.316853  0.347023  0  0.914934  0
H  H25  1  0.75139425  0.41364304  0.20886301  1  0.606152  0  0.316767  0.347739  0  0.914976  0
C  C26  1  0.50549721  0.45518341  0.41814173  1  1.534588  0  0.276345  0.651149  0  4.058766  0
C  C27  1  0.50552172  0.46295895  0.54480811  1  1.572038  0  0.276248  0.650766  0  4.058681  0
C  C28  1  0.50552130  0.58185031  0.53702675  1  1.575328  0  0.276522  0.651508  0  4.057707  0
C  C29  1  0.50450074  0.20373665  0.78856038  1  1.572145  0  0.2765  0.651412  0  4.05871  0
C  C30  1  0.50451365  0.08481129  0.79627342  1  1.57296  0  0.276582  0.651769  0  4.057811  0
C  C31  1  0.50453025  0.21144814  0.91519264  1  1.53559  0  0.276601  0.651644  0  4.058356  0
C  C32  1  0.48974518  0.23262993  0.75809185  1  0.012789  0  -0.005434  -0.012515  0  3.979932  0
C  C33  1  0.31548130  0.21026748  0.70946241  1  -0.015103  0  -0.091597  -0.121959  0  4.012131  0
C  C34  1  0.30351069  0.23736442  0.68126158  1  0.02228  0  -0.084718  -0.10803  0  4.000515  0
C  C35  1  0.45632315  0.28778386  0.70172703  1  0.043853  0  -0.022417  0.000188  0  4.141143  0
C  C36  1  0.62914347  0.31007534  0.75115122  1  0.49274  0  0.092942  0.281649  0  4.042547  0
C  C37  1  0.64866924  0.28204061  0.77861824  1  0.007031  0  -0.086507  -0.201963  0  3.91833  0
C  C38  1  0.44303877  0.31800396  0.67555886  1  0.00997  0  -0.050361  -0.1226  0  4.174635  0
C  C39  1  0.44335146  0.34862751  0.65774935  1  -0.415977  0  -0.049904  -0.122738  0  4.174832  0
C  C40  1  0.45701586  0.37887236  0.63160757  1  0.044042  0  -0.022773  0.000113  0  4.140829  0
C  C41  1  0.63006408  0.35660659  0.58221224  1  0.484307  0  0.092966  0.282037  0  4.041633  0
C  C42  1  0.64962029  0.38464576  0.55474491  1  0.044869  0  -0.086326  -0.201328  0  3.916955  0
C  C43  1  0.49067358  0.43405887  0.57527100  1  -0.040992  0  -0.005303  -0.012185  0  3.979521  0
C  C44  1  0.31637404  0.45641075  0.62389309  1  -0.012077  0  -0.091894  -0.122785  0  4.012548  0
C  C45  1  0.30425308  0.42929504  0.65207951  1  0.017172  0  -0.084491  -0.107827  0  3.999924  0
C  C46  1  0.48977443  0.02544931  0.76738064  1  -0.04067  0  -0.005394  -0.012843  0  3.980926  0
C  C47  1  0.31553035  0.99918704  0.78974754  1  0.028794  0  -0.091714  -0.122031  0  4.011954  0
C  C48  1  0.30351588  0.94388348  0.76265040  1  -0.02289  0  -0.084656  -0.108214  0  4.000066  0
C  C49  1  0.45631409  0.91393491  0.71223478  1  0.061476  0  -0.022682  0.000142  0  4.140663  0
C  C50  1  0.62913395  0.94106125  0.68993926  1  0.486407  0  0.093251  0.282122  0  4.042331  0
C  C51  1  0.64869860  0.99656812  0.71797372  1  0.047851  0  -0.086644  -0.202076  0  3.918265  0
C  C52  1  0.44299332  0.85753837  0.68200748  1  -0.077168  0  -0.050052  -0.122483  0  4.17519  0
C  C53  1  0.44328894  0.80912265  0.65137979  1  -0.330582  0  -0.050065  -0.122717  0  4.175642  0
C  C54  1  0.45697439  0.75273150  0.62112358  1  0.060926  0  -0.022735  3.7e-05  0  4.140186  0
C  C55  1  0.63002558  0.72559360  0.64338637  1  0.485485  0  0.093098  0.282226  0  4.04183  0
C  C56  1  0.64958786  0.67009197  0.61534320  1  0.055518  0  -0.086384  -0.201459  0  3.91753  0
C  C57  1  0.49067429  0.64121180  0.56593178  1  -0.042865  0  -0.005485  -0.012828  0  3.979852  0
C  C58  1  0.31636687  0.66749035  0.54358399  1  0.030813  0  -0.091771  -0.122317  0  4.012355  0
C  C59  1  0.30422734  0.72278856  0.57070169  1  -0.020741  0  -0.0845  -0.107924  0  4.000002  0
C  C60  1  0.48978806  0.24192006  0.97455074  1  0.053785  0  -0.005437  -0.012653  0  3.980608  0
C  C61  1  0.31550310  0.29054874  0.00081214  1  -0.089257  0  -0.09165  -0.122  0  4.012506  0
C  C62  1  0.30349319  0.31875347  0.05610579  1  0.032507  0  -0.084702  -0.108163  0  4.000407  0
C  C63  1  0.45631406  0.29829319  0.08606464  1  0.155243  0  -0.022616  0.000103  0  4.140942  0
C  C64  1  0.62916200  0.24886954  0.05893828  1  0.401691  0  0.093169  0.282  0  4.042211  0
C  C65  1  0.64872702  0.22139947  0.00344092  1  0.104355  0  -0.086575  -0.202152  0  3.918502  0
C  C66  1  0.44298556  0.32446108  0.14245071  1  0.015144  0  -0.050147  -0.122459  0  4.174585  0
C  C67  1  0.44326388  0.34226074  0.19087904  1  -0.603467  0  -0.049969  -0.122714  0  4.174564  0
C  C68  1  0.45694162  0.36839670  0.24726315  1  0.161884  0  -0.022754  -6.9e-05  0  4.140551  0
C  C69  1  0.62998969  0.41779751  0.27439778  1  0.487717  0  0.09311  0.282129  0  4.041651  0
C  C70  1  0.64957409  0.44525470  0.32989626  1  0.03635  0  -0.086389  -0.201459  0  3.917533  0
C  C71  1  0.49066567  0.42472775  0.35878189  1  0.060757  0  -0.005387  -0.012429  0  3.97961  0
C  C72  1  0.31637381  0.37609917  0.33250928  1  -0.087175  0  -0.091866  -0.122789  0  4.012207  0
C  C73  1  0.30423470  0.34791954  0.27721198  1  0.021829  0  -0.08451  -0.107644  0  3.999948  0
O  O74  1  0.74553668  0.56021687  0.54839262  1  -1.259479  0  -0.235393  -0.594204  0  2.369881  0
O  O75  1  0.74551064  0.48818219  0.43977395  1  -1.259802  0  -0.235252  -0.594001  0  2.370533  0
O  O76  1  0.74550748  0.45159380  0.51181179  1  -1.256977  0  -0.23513  -0.593702  0  2.37047  0
O  O77  1  0.27577458  0.55645584  0.50296682  1  -1.255482  0  -0.239647  -0.598082  0  2.35837  0
O  O78  1  0.27576159  0.49702158  0.55347397  1  -1.251534  0  -0.239715  -0.59811  0  2.358587  0
O  O79  1  0.27576454  0.44651589  0.44353529  1  -1.254716  0  -0.239596  -0.598058  0  2.358766  0
O  O80  1  0.74449240  0.17844265  0.89355185  1  -1.259058  0  -0.235472  -0.594017  0  2.369803  0
O  O81  1  0.74446808  0.21509760  0.82156220  1  -1.258605  0  -0.23537  -0.593781  0  2.370059  0
O  O82  1  0.74448634  0.10645499  0.78491313  1  -1.257488  0  -0.235494  -0.593984  0  2.369684  0
O  O83  1  0.27475492  0.22012291  0.88980504  1  -1.25568  0  -0.239789  -0.598438  0  2.359524  0
O  O84  1  0.27474988  0.11019721  0.83033507  1  -1.25587  0  -0.239737  -0.598454  0  2.359125  0
O  O85  1  0.27473289  0.16967377  0.77988379  1  -1.250502  0  -0.239701  -0.598386  0  2.359504  0
O  O86  1  0.78144904  0.35841147  0.77216451  1  -1.132031  0  -0.346654  -0.425328  0  2.262763  0
O  O87  1  0.78258199  0.30828694  0.56120938  1  -1.120116  0  -0.346738  -0.426921  0  2.263266  0
O  O88  1  0.78141014  0.91374396  0.64160366  1  -1.127855  0  -0.346868  -0.426192  0  2.263454  0
O  O89  1  0.78252790  0.75290762  0.69170584  1  -1.128685  0  -0.346852  -0.426232  0  2.263809  0
O  O90  1  0.78143332  0.22785793  0.08626711  1  -1.128168  0  -0.346882  -0.425358  0  2.263554  0
O  O91  1  0.78246191  0.43880466  0.24707958  1  -1.127373  0  -0.346777  -0.426557  0  2.263666  0
