# generated using pymatgen
data_SmH9C9(NO3)3
_symmetry_space_group_name_H-M   'P 1'
_cell_length_a   6.05475991
_cell_length_b   10.46169558
_cell_length_c   19.07788644
_cell_angle_alpha   90.00007838
_cell_angle_beta   89.99974203
_cell_angle_gamma   89.92306433
_symmetry_Int_Tables_number   1
_chemical_formula_structural   SmH9C9(NO3)3
_chemical_formula_sum   'Sm4 H36 C36 N12 O36'
_cell_volume   1208.45052132
_cell_formula_units_Z   4
loop_
 _symmetry_equiv_pos_site_id
 _symmetry_equiv_pos_as_xyz
  1  'x, y, z'
loop_
 _atom_site_type_symbol
 _atom_site_label
 _atom_site_symmetry_multiplicity
 _atom_site_fract_x
 _atom_site_fract_y
 _atom_site_fract_z
 _atom_site_occupancy
 _atom_site_hle17_bader_spin_density
 _atom_site_hle17_ddec_charge
 _atom_site_hle17_ddec_spin_density
 _atom_site_hle17_ddec_sum_bond_order
 _atom_site_hle17_magmom
 _atom_site_hse06_10hf_bader_spin_density
 _atom_site_hse06_10hf_ddec_charge
 _atom_site_hse06_10hf_ddec_spin_density
 _atom_site_hse06_10hf_ddec_sum_bond_order
 _atom_site_hse06_10hf_magmom
 _atom_site_hse06_bader_spin_density
 _atom_site_hse06_ddec_charge
 _atom_site_hse06_ddec_spin_density
 _atom_site_hse06_ddec_sum_bond_order
 _atom_site_hse06_magmom
 _atom_site_pbe_bader_spin_density
 _atom_site_pbe_cm5_charge
 _atom_site_pbe_ddec_charge
 _atom_site_pbe_ddec_spin_density
 _atom_site_pbe_ddec_sum_bond_order
 _atom_site_pbe_magmom
Sm  Sm0  1  0.74309839  0.81058602  0.40352508  1  0  2.228193  0  1.608149  0  0  2.04358  0  2.096512  0  0  2.166394  0  1.907123  0  0  1.481488  2.011209  0  2.126184  0
Sm  Sm1  1  0.75690617  0.68941264  0.90352329  1  0  2.228219  0  1.608091  0  0  2.043628  0  2.096416  0  0  2.166426  0  1.907065  0  0  1.481477  2.011255  0  2.126088  0
Sm  Sm2  1  0.25690263  0.18941356  0.59647477  1  0  2.228164  0  1.608175  0  0  2.043533  0  2.096605  0  0  2.166382  0  1.907155  0  0  1.481488  2.011162  0  2.126277  0
Sm  Sm3  1  0.24309814  0.31058886  0.09647656  1  0  2.228231  0  1.608106  0  0  2.04364  0  2.096419  0  0  2.166434  0  1.907076  0  0  1.481497  2.011271  0  2.12609  0
H  H4  1  0.12288818  0.50794826  0.54375373  1  0  0.104998  0  0.939152  0  0  0.106272  0  1.011285  0  0  0.110065  0  1.007787  0  0  0.130266  0.103334  0  1.014304  0
H  H5  1  0.37710556  0.99205257  0.04375390  1  0  0.105011  0  0.939204  0  0  0.106285  0  1.011323  0  0  0.110076  0  1.007827  0  0  0.130289  0.103348  0  1.014346  0
H  H6  1  0.87711118  0.49205227  0.45624559  1  0  0.104997  0  0.939172  0  0  0.106266  0  1.011309  0  0  0.110059  0  1.007811  0  0  0.130261  0.103326  0  1.01433  0
H  H7  1  0.62289380  0.00794796  0.95624595  1  0  0.104962  0  0.939211  0  0  0.106242  0  1.01132  0  0  0.110032  0  1.007828  0  0  0.130275  0.103306  0  1.014344  0
H  H8  1  0.52819935  0.76610217  0.11768538  1  0  0.096703  0  0.925543  0  0  0.103215  0  0.988089  0  0  0.10718  0  0.984428  0  0  0.123068  0.100408  0  0.990492  0
H  H9  1  0.97180925  0.73389768  0.61768436  1  0  0.096761  0  0.92565  0  0  0.103248  0  0.988202  0  0  0.107214  0  0.98454  0  0  0.123086  0.100441  0  0.990606  0
H  H10  1  0.47180664  0.23389550  0.88231447  1  0  0.096724  0  0.925637  0  0  0.103249  0  0.988174  0  0  0.107216  0  0.98451  0  0  0.123082  0.100443  0  0.990577  0
H  H11  1  0.02818514  0.26610476  0.38231602  1  0  0.096737  0  0.925651  0  0  0.103267  0  0.988152  0  0  0.107234  0  0.984486  0  0  0.123096  0.100459  0  0.990555  0
H  H12  1  0.11727478  0.95996503  0.15099027  1  0  0.084767  0  0.961073  0  0  0.090488  0  1.03042  0  0  0.092978  0  1.028615  0  0  0.120103  0.088848  0  1.031363  0
H  H13  1  0.38272899  0.54003705  0.65099081  1  0  0.084823  0  0.961092  0  0  0.090533  0  1.03044  0  0  0.093025  0  1.028633  0  0  0.120108  0.088892  0  1.031385  0
H  H14  1  0.88272624  0.04003455  0.84900958  1  0  0.084777  0  0.961062  0  0  0.090488  0  1.030416  0  0  0.092979  0  1.028611  0  0  0.120112  0.088848  0  1.031361  0
H  H15  1  0.61726541  0.45996347  0.34901009  1  0  0.084827  0  0.961105  0  0  0.090534  0  1.030448  0  0  0.093025  0  1.028644  0  0  0.12012  0.088895  0  1.031391  0
H  H16  1  0.88469697  0.58779184  0.30086049  1  0  0.439589  0  0.854355  0  0  0.406154  0  0.922417  0  0  0.41736  0  0.906278  0  0  0.298536  0.398344  0  0.933772  0
H  H17  1  0.61530079  0.91220654  0.80086011  1  0  0.439593  0  0.854347  0  0  0.406166  0  0.922394  0  0  0.417375  0  0.906251  0  0  0.298544  0.398356  0  0.933749  0
H  H18  1  0.11530076  0.41220678  0.69913884  1  0  0.439632  0  0.854285  0  0  0.406203  0  0.922337  0  0  0.417409  0  0.906199  0  0  0.298563  0.398393  0  0.933691  0
H  H19  1  0.38469858  0.08779303  0.19914027  1  0  0.439576  0  0.854371  0  0  0.406148  0  0.922421  0  0  0.417356  0  0.90628  0  0  0.298533  0.398338  0  0.933775  0
H  H20  1  0.10307324  0.64424538  0.33225133  1  0  0.440574  0  0.83151  0  0  0.408757  0  0.908383  0  0  0.420197  0  0.891821  0  0  0.304706  0.400563  0  0.920414  0
H  H21  1  0.39692634  0.85575332  0.83225313  1  0  0.440596  0  0.831483  0  0  0.408782  0  0.908342  0  0  0.420224  0  0.891778  0  0  0.304724  0.400588  0  0.920374  0
H  H22  1  0.89692613  0.35575324  0.66774852  1  0  0.440568  0  0.831596  0  0  0.408757  0  0.908398  0  0  0.420197  0  0.891836  0  0  0.304713  0.400564  0  0.920428  0
H  H23  1  0.60307303  0.14424625  0.16774777  1  0  0.440577  0  0.831506  0  0  0.408757  0  0.908381  0  0  0.420199  0  0.891817  0  0  0.304713  0.400565  0  0.920411  0
H  H24  1  0.45503123  0.01985525  0.34330658  1  0  0.430562  0  0.87142  0  0  0.398759  0  0.936274  0  0  0.410642  0  0.919216  0  0  0.295057  0.390286  0  0.948621  0
H  H25  1  0.04497433  0.48014303  0.84330426  1  0  0.430596  0  0.871381  0  0  0.398779  0  0.936254  0  0  0.410662  0  0.919197  0  0  0.295052  0.390306  0  0.9486  0
H  H26  1  0.54496979  0.98014528  0.65669379  1  0  0.430538  0  0.871447  0  0  0.398741  0  0.936288  0  0  0.410626  0  0.91923  0  0  0.295049  0.390268  0  0.948636  0
H  H27  1  0.95502338  0.51985655  0.15669612  1  0  0.4306  0  0.87137  0  0  0.398787  0  0.936238  0  0  0.410669  0  0.919183  0  0  0.295058  0.390313  0  0.948586  0
H  H28  1  0.68907380  0.07814838  0.34697718  1  0  0.438727  0  0.854072  0  0  0.410275  0  0.913777  0  0  0.420587  0  0.898882  0  0  0.300741  0.403068  0  0.924298  0
H  H29  1  0.81093107  0.42185253  0.84697548  1  0  0.438699  0  0.854129  0  0  0.41026  0  0.9138  0  0  0.420572  0  0.898905  0  0  0.300763  0.403055  0  0.924318  0
H  H30  1  0.31092721  0.92185215  0.65302215  1  0  0.43872  0  0.854091  0  0  0.410272  0  0.913787  0  0  0.420583  0  0.898892  0  0  0.300735  0.403066  0  0.924306  0
H  H31  1  0.18906830  0.57814705  0.15302385  1  0  0.438721  0  0.854092  0  0  0.410262  0  0.913801  0  0  0.420573  0  0.898907  0  0  0.30075  0.403057  0  0.924319  0
H  H32  1  0.70524049  0.02731575  0.51642831  1  0  0.45738  0  0.834427  0  0  0.427505  0  0.894417  0  0  0.43899  0  0.877888  0  0  0.311783  0.419668  0  0.905743  0
H  H33  1  0.79475917  0.47268337  0.01642910  1  0  0.457377  0  0.834425  0  0  0.427504  0  0.894413  0  0  0.438988  0  0.877884  0  0  0.311777  0.419667  0  0.905737  0
H  H34  1  0.29476054  0.97268192  0.48357102  1  0  0.457374  0  0.83444  0  0  0.427532  0  0.894389  0  0  0.439018  0  0.877858  0  0  0.311776  0.419693  0  0.905718  0
H  H35  1  0.20524019  0.52731717  0.98357179  1  0  0.457371  0  0.834454  0  0  0.42749  0  0.894453  0  0  0.438977  0  0.87792  0  0  0.311776  0.419652  0  0.905779  0
H  H36  1  0.89566411  0.93926880  0.54139721  1  0  0.444366  0  0.822628  0  0  0.418189  0  0.889166  0  0  0.427779  0  0.875109  0  0  0.322736  0.411423  0  0.899347  0
H  H37  1  0.60433401  0.56073179  0.04139640  1  0  0.44437  0  0.822617  0  0  0.41819  0  0.889166  0  0  0.42778  0  0.875107  0  0  0.322739  0.411424  0  0.899346  0
H  H38  1  0.10433858  0.06072887  0.45860106  1  0  0.444332  0  0.822675  0  0  0.418135  0  0.88926  0  0  0.427726  0  0.8752  0  0  0.3227  0.411366  0  0.899445  0
H  H39  1  0.39566205  0.43926873  0.95860293  1  0  0.444373  0  0.822643  0  0  0.418186  0  0.889183  0  0  0.427777  0  0.875123  0  0  0.322741  0.41142  0  0.899363  0
C  C40  1  0.26115650  0.73075532  0.47544846  1  0  0.679701  0  3.867347  0  0  0.626407  0  4.161344  0  0  0.661812  0  4.154746  0  0  0.24113  0.602569  0  4.168276  0
C  C41  1  0.23884102  0.76924757  0.97545042  1  0  0.679643  0  3.867425  0  0  0.626381  0  4.16135  0  0  0.661788  0  4.154749  0  0  0.24107  0.602543  0  4.168276  0
C  C42  1  0.73884453  0.26924331  0.52454877  1  0  0.679728  0  3.86737  0  0  0.626478  0  4.161268  0  0  0.66188  0  4.154669  0  0  0.241211  0.602643  0  4.168198  0
C  C43  1  0.76115668  0.23075392  0.02454996  1  0  0.679612  0  3.86731  0  0  0.626354  0  4.161227  0  0  0.661748  0  4.154637  0  0  0.241123  0.602521  0  4.168152  0
C  C44  1  0.38450654  0.60744612  0.48802833  1  0  0.084018  0  3.686337  0  0  0.084164  0  3.940483  0  0  0.084034  0  3.956646  0  0  0.140368  0.08408  0  3.931512  0
C  C45  1  0.11549906  0.89255490  0.98802846  1  0  0.08405  0  3.686442  0  0  0.08423  0  3.940507  0  0  0.084098  0  3.956668  0  0  0.140403  0.084149  0  3.931535  0
C  C46  1  0.61549776  0.39255538  0.51197152  1  0  0.08398  0  3.686479  0  0  0.084157  0  3.940549  0  0  0.084026  0  3.956713  0  0  0.140395  0.084075  0  3.931574  0
C  C47  1  0.88450360  0.10744564  0.01197086  1  0  0.08408  0  3.68645  0  0  0.084241  0  3.940546  0  0  0.084115  0  3.956705  0  0  0.140402  0.084158  0  3.931574  0
C  C48  1  0.29107589  0.50417918  0.52369479  1  0  0.107961  0  3.650329  0  0  0.072472  0  3.915074  0  0  0.076626  0  3.930112  0  0  0.080188  0.069307  0  3.907668  0
C  C49  1  0.20892476  0.99582066  0.02369415  1  0  0.107942  0  3.650382  0  0  0.072448  0  3.915108  0  0  0.076606  0  3.930141  0  0  0.080157  0.069279  0  3.907707  0
C  C50  1  0.70892514  0.49581944  0.47630506  1  0  0.10792  0  3.65052  0  0  0.072429  0  3.915241  0  0  0.076585  0  3.930275  0  0  0.080165  0.069264  0  3.907839  0
C  C51  1  0.79107956  0.00417989  0.97630622  1  0  0.107934  0  3.650503  0  0  0.072448  0  3.915223  0  0  0.076608  0  3.930252  0  0  0.08015  0.069278  0  3.907827  0
C  C52  1  0.43327453  0.72183306  0.26157454  1  0  0.627149  0  3.956795  0  0  0.573035  0  4.264714  0  0  0.606373  0  4.259194  0  0  0.208828  0.550977  0  4.268251  0
C  C53  1  0.06672935  0.77816643  0.76157308  1  0  0.627316  0  3.956528  0  0  0.573189  0  4.264425  0  0  0.606525  0  4.258901  0  0  0.208931  0.551132  0  4.267966  0
C  C54  1  0.56672650  0.27816556  0.73842479  1  0  0.627134  0  3.956738  0  0  0.572983  0  4.26468  0  0  0.606322  0  4.259161  0  0  0.208818  0.550925  0  4.26822  0
C  C55  1  0.93326837  0.22183315  0.23842625  1  0  0.627367  0  3.956453  0  0  0.573228  0  4.264406  0  0  0.606565  0  4.258883  0  0  0.208908  0.55117  0  4.267948  0
C  C56  1  0.62157655  0.79144019  0.22675925  1  0  0.081853  0  3.726929  0  0  0.084434  0  3.975604  0  0  0.08293  0  3.994484  0  0  0.125603  0.084787  0  3.964778  0
C  C57  1  0.87842720  0.70855992  0.72675887  1  0  0.081761  0  3.727017  0  0  0.084437  0  3.975551  0  0  0.08294  0  3.994427  0  0  0.12559  0.08479  0  3.964723  0
C  C58  1  0.37841950  0.20856033  0.77324008  1  0  0.081786  0  3.726966  0  0  0.084452  0  3.975565  0  0  0.082947  0  3.994446  0  0  0.125561  0.0848  0  3.964739  0
C  C59  1  0.12157547  0.29144061  0.27324151  1  0  0.081822  0  3.726932  0  0  0.084417  0  3.975583  0  0  0.082916  0  3.994461  0  0  0.125616  0.08477  0  3.964755  0
C  C60  1  0.64929891  0.80482338  0.15426955  1  0  0.104249  0  3.61012  0  0  0.070726  0  3.871396  0  0  0.076559  0  3.881946  0  0  0.072078  0.067233  0  3.863404  0
C  C61  1  0.85071084  0.69517561  0.65426710  1  0  0.104235  0  3.610154  0  0  0.070711  0  3.871388  0  0  0.076542  0  3.881937  0  0  0.072126  0.067218  0  3.863396  0
C  C62  1  0.35070543  0.19517429  0.84573082  1  0  0.104289  0  3.610105  0  0  0.070704  0  3.871409  0  0  0.076539  0  3.881958  0  0  0.072127  0.067214  0  3.863416  0
C  C63  1  0.14928685  0.30482778  0.34573275  1  0  0.104279  0  3.610197  0  0  0.070768  0  3.871411  0  0  0.076602  0  3.881959  0  0  0.072121  0.067277  0  3.863418  0
C  C64  1  0.97241181  0.91237527  0.17217596  1  0  0.107935  0  3.638037  0  0  0.071409  0  3.898732  0  0  0.077594  0  3.911186  0  0  0.066876  0.06768  0  3.889543  0
C  C65  1  0.52759602  0.58762472  0.67217441  1  0  0.107807  0  3.63812  0  0  0.07129  0  3.898812  0  0  0.077474  0  3.911266  0  0  0.066838  0.067561  0  3.889626  0
C  C66  1  0.02759253  0.08762240  0.82782442  1  0  0.107888  0  3.637997  0  0  0.071396  0  3.898653  0  0  0.07758  0  3.911107  0  0  0.06687  0.067667  0  3.889466  0
C  C67  1  0.47239836  0.41237867  0.32782597  1  0  0.107747  0  3.638177  0  0  0.071238  0  3.898867  0  0  0.077422  0  3.911323  0  0  0.066792  0.06751  0  3.88968  0
C  C68  1  0.94454891  0.90279525  0.24451313  1  0  0.072329  0  3.751069  0  0  0.078732  0  3.99437  0  0  0.076498  0  4.013658  0  0  0.12475  0.07927  0  3.984102  0
C  C69  1  0.55545624  0.59720396  0.74451102  1  0  0.072456  0  3.7509  0  0  0.078854  0  3.994219  0  0  0.076621  0  4.013507  0  0  0.124773  0.079384  0  3.983961  0
C  C70  1  0.05545376  0.09720434  0.75548725  1  0  0.072441  0  3.751024  0  0  0.078815  0  3.994317  0  0  0.076582  0  4.013606  0  0  0.124756  0.079349  0  3.984055  0
C  C71  1  0.44454311  0.40279752  0.25548935  1  0  0.072447  0  3.750947  0  0  0.078831  0  3.994273  0  0  0.076597  0  4.013561  0  0  0.124764  0.079365  0  3.984012  0
C  C72  1  0.10172552  0.95698140  0.29775811  1  0  0.651922  0  3.902289  0  0  0.592532  0  4.208699  0  0  0.626397  0  4.203058  0  0  0.224571  0.569785  0  4.213345  0
C  C73  1  0.39827126  0.54301530  0.79775496  1  0  0.652038  0  3.902255  0  0  0.592597  0  4.208735  0  0  0.626462  0  4.203095  0  0  0.224627  0.56985  0  4.213378  0
C  C74  1  0.89827385  0.04301818  0.70224331  1  0  0.651844  0  3.902454  0  0  0.5925  0  4.20879  0  0  0.626368  0  4.203147  0  0  0.224569  0.569755  0  4.213434  0
C  C75  1  0.60172479  0.45698523  0.20224594  1  0  0.651967  0  3.902278  0  0  0.592535  0  4.208754  0  0  0.626398  0  4.203116  0  0  0.224591  0.569788  0  4.213395  0
N  N76  1  0.59345979  0.60240410  0.46452610  1  0  -0.349059  0  3.239347  0  0  -0.309972  0  3.516315  0  0  -0.326006  0  3.531676  0  0  -0.346247  -0.30504  0  3.508087  0
N  N77  1  0.90654554  0.89759662  0.96452582  1  0  -0.349094  0  3.239292  0  0  -0.31005  0  3.516305  0  0  -0.326088  0  3.531676  0  0  -0.346254  -0.305116  0  3.508073  0
N  N78  1  0.40654619  0.39759549  0.53547375  1  0  -0.3491  0  3.239302  0  0  -0.310039  0  3.516318  0  0  -0.326077  0  3.531683  0  0  -0.346279  -0.305105  0  3.50808  0
N  N79  1  0.09345546  0.10240487  0.03547403  1  0  -0.349137  0  3.239316  0  0  -0.310071  0  3.516289  0  0  -0.326103  0  3.531649  0  0  -0.346271  -0.305138  0  3.50806  0
N  N80  1  0.77007906  0.84136273  0.27072368  1  0  -0.391543  0  3.357234  0  0  -0.343672  0  3.600022  0  0  -0.359184  0  3.618966  0  0  -0.373725  -0.338305  0  3.589102  0
N  N81  1  0.72992243  0.65863558  0.77072294  1  0  -0.391536  0  3.357197  0  0  -0.343694  0  3.599961  0  0  -0.359209  0  3.618907  0  0  -0.373731  -0.338324  0  3.58904  0
N  N82  1  0.22992031  0.15863685  0.72927565  1  0  -0.391521  0  3.357219  0  0  -0.343656  0  3.59999  0  0  -0.359172  0  3.618934  0  0  -0.373703  -0.338287  0  3.589069  0
N  N83  1  0.27007692  0.34136591  0.22927795  1  0  -0.391561  0  3.357243  0  0  -0.343693  0  3.600021  0  0  -0.359204  0  3.618966  0  0  -0.373751  -0.338324  0  3.5891  0
N  N84  1  0.82514913  0.86450844  0.12704788  1  0  -0.234608  0  3.015389  0  0  -0.200782  0  3.286703  0  0  -0.209032  0  3.300391  0  0  -0.29006  -0.19499  0  3.276792  0
N  N85  1  0.67485768  0.63549239  0.62704616  1  0  -0.234639  0  3.015422  0  0  -0.200811  0  3.286739  0  0  -0.209062  0  3.300429  0  0  -0.290086  -0.195021  0  3.27683  0
N  N86  1  0.17485188  0.13549209  0.87295250  1  0  -0.23468  0  3.015325  0  0  -0.200852  0  3.286649  0  0  -0.209104  0  3.300338  0  0  -0.290113  -0.195062  0  3.27674  0
N  N87  1  0.32513836  0.36451005  0.37295369  1  0  -0.234639  0  3.015518  0  0  -0.200825  0  3.286826  0  0  -0.209075  0  3.300515  0  0  -0.290083  -0.195035  0  3.276916  0
O  O88  1  0.38307142  0.82654693  0.46202973  1  0  -0.672086  0  2.104337  0  0  -0.609153  0  2.344128  0  0  -0.643352  0  2.331863  0  0  -0.348783  -0.591243  0  2.350779  0
O  O89  1  0.11692961  0.67345401  0.96203022  1  0  -0.672065  0  2.104375  0  0  -0.609126  0  2.344126  0  0  -0.643315  0  2.331844  0  0  -0.348761  -0.591223  0  2.350781  0
O  O90  1  0.61692796  0.17345169  0.53796750  1  0  -0.672073  0  2.104235  0  0  -0.609147  0  2.344019  0  0  -0.643364  0  2.33179  0  0  -0.348873  -0.591253  0  2.350678  0
O  O91  1  0.88306975  0.32654652  0.03796806  1  0  -0.672  0  2.104182  0  0  -0.609108  0  2.344002  0  0  -0.643319  0  2.331793  0  0  -0.34881  -0.591215  0  2.350658  0
O  O92  1  0.05278780  0.72985387  0.47966501  1  0  -0.675511  0  1.976147  0  0  -0.620413  0  2.22508  0  0  -0.655096  0  2.212648  0  0  -0.35453  -0.602347  0  2.231151  0
O  O93  1  0.44721464  0.77014617  0.97966719  1  0  -0.675487  0  1.976021  0  0  -0.620414  0  2.224934  0  0  -0.655096  0  2.212505  0  0  -0.354505  -0.602346  0  2.231001  0
O  O94  1  0.94720992  0.27014571  0.52033275  1  0  -0.675502  0  1.976208  0  0  -0.620414  0  2.225094  0  0  -0.655097  0  2.212662  0  0  -0.354525  -0.602347  0  2.23116  0
O  O95  1  0.55278476  0.22985054  0.02033318  1  0  -0.675476  0  1.976098  0  0  -0.620374  0  2.224962  0  0  -0.655049  0  2.212538  0  0  -0.354507  -0.602306  0  2.231026  0
O  O96  1  0.44274409  0.71489234  0.32871718  1  0  -0.72024  0  2.01566  0  0  -0.665257  0  2.269261  0  0  -0.701266  0  2.260835  0  0  -0.368361  -0.646232  0  2.272784  0
O  O97  1  0.05726215  0.78510542  0.82871470  1  0  -0.720304  0  2.01552  0  0  -0.665329  0  2.269131  0  0  -0.701331  0  2.2607  0  0  -0.368434  -0.646307  0  2.272659  0
O  O98  1  0.55726025  0.28510438  0.67128319  1  0  -0.720209  0  2.015557  0  0  -0.665274  0  2.269301  0  0  -0.701286  0  2.260877  0  0  -0.368356  -0.646248  0  2.272822  0
O  O99  1  0.94274216  0.21489608  0.17128568  1  0  -0.720327  0  2.015656  0  0  -0.665308  0  2.26921  0  0  -0.701308  0  2.260779  0  0  -0.368378  -0.646288  0  2.27274  0
O  O100  1  0.28098289  0.67613081  0.22456371  1  0  -0.618297  0  1.966356  0  0  -0.565407  0  2.191641  0  0  -0.589388  0  2.183484  0  0  -0.308878  -0.547962  0  2.195629  0
O  O101  1  0.21902150  0.82387050  0.72456050  1  0  -0.618366  0  1.966254  0  0  -0.565477  0  2.191528  0  0  -0.58947  0  2.183394  0  0  -0.308913  -0.548028  0  2.195516  0
O  O102  1  0.71901815  0.32386686  0.77543561  1  0  -0.618252  0  1.966299  0  0  -0.565366  0  2.191611  0  0  -0.589344  0  2.183449  0  0  -0.308874  -0.547917  0  2.195593  0
O  O103  1  0.78097455  0.17613098  0.27543987  1  0  -0.618397  0  1.966219  0  0  -0.565497  0  2.191504  0  0  -0.589489  0  2.183367  0  0  -0.30891  -0.548047  0  2.19549  0
O  O104  1  0.05111952  0.93930641  0.36181660  1  0  -0.701691  0  2.034276  0  0  -0.645016  0  2.290665  0  0  -0.678965  0  2.277728  0  0  -0.375567  -0.628068  0  2.297421  0
O  O105  1  0.44887631  0.56069523  0.86181444  1  0  -0.701918  0  2.034187  0  0  -0.645234  0  2.290594  0  0  -0.679182  0  2.27766  0  0  -0.375695  -0.628285  0  2.297347  0
O  O106  1  0.94887650  0.06069794  0.63818430  1  0  -0.701669  0  2.034313  0  0  -0.645024  0  2.29069  0  0  -0.678975  0  2.27775  0  0  -0.375587  -0.628076  0  2.297444  0
O  O107  1  0.55112635  0.43930531  0.13818646  1  0  -0.701881  0  2.034177  0  0  -0.645193  0  2.29056  0  0  -0.679136  0  2.277627  0  0  -0.375683  -0.628245  0  2.297313  0
O  O108  1  0.27198032  0.01558327  0.27644972  1  0  -0.616107  0  2.005701  0  0  -0.550522  0  2.223824  0  0  -0.57654  0  2.215308  0  0  -0.288175  -0.532147  0  2.22836  0
O  O109  1  0.22802124  0.48441388  0.77644819  1  0  -0.616082  0  2.005854  0  0  -0.550421  0  2.223916  0  0  -0.576436  0  2.2154  0  0  -0.288098  -0.532047  0  2.228451  0
O  O110  1  0.72801904  0.98441727  0.72354908  1  0  -0.61609  0  2.005809  0  0  -0.5505  0  2.223871  0  0  -0.576528  0  2.215364  0  0  -0.288145  -0.532124  0  2.228406  0
O  O111  1  0.77197980  0.51558379  0.22355219  1  0  -0.616052  0  2.005836  0  0  -0.550394  0  2.223886  0  0  -0.576405  0  2.21537  0  0  -0.288094  -0.532018  0  2.228417  0
O  O112  1  0.94763728  0.62627053  0.34407174  1  0  -0.898062  0  1.852742  0  0  -0.851738  0  2.061999  0  0  -0.880368  0  2.025641  0  0  -0.619495  -0.837766  0  2.08403  0
O  O113  1  0.55236315  0.87372987  0.84407195  1  0  -0.898062  0  1.852683  0  0  -0.85176  0  2.061967  0  0  -0.880388  0  2.025605  0  0  -0.619514  -0.837788  0  2.084  0
O  O114  1  0.05235878  0.37372904  0.65592706  1  0  -0.898085  0  1.852756  0  0  -0.851751  0  2.061947  0  0  -0.880383  0  2.025583  0  0  -0.619519  -0.83778  0  2.083977  0
O  O115  1  0.44763787  0.12626970  0.15592843  1  0  -0.898036  0  1.852722  0  0  -0.85174  0  2.062014  0  0  -0.880367  0  2.025656  0  0  -0.619497  -0.837765  0  2.084039  0
O  O116  1  0.59107400  0.01980148  0.37322542  1  0  -0.889652  0  1.853163  0  0  -0.839483  0  2.042949  0  0  -0.868308  0  2.006032  0  0  -0.64789  -0.825285  0  2.064751  0
O  O117  1  0.90892721  0.48019758  0.87322415  1  0  -0.88966  0  1.853192  0  0  -0.839502  0  2.043012  0  0  -0.868328  0  2.006098  0  0  -0.647917  -0.825306  0  2.064814  0
O  O118  1  0.40892371  0.98019905  0.62677391  1  0  -0.889634  0  1.853213  0  0  -0.839468  0  2.043008  0  0  -0.868293  0  2.00608  0  0  -0.647885  -0.825269  0  2.064807  0
O  O119  1  0.09107215  0.51980295  0.12677518  1  0  -0.889689  0  1.853146  0  0  -0.839516  0  2.042969  0  0  -0.868343  0  2.006062  0  0  -0.647907  -0.825319  0  2.06477  0
O  O120  1  0.78246330  0.94526699  0.50525860  1  0  -0.916075  0  1.884706  0  0  -0.865654  0  2.098372  0  0  -0.893453  0  2.058251  0  0  -0.651147  -0.853412  0  2.122013  0
O  O121  1  0.71753535  0.55473160  0.00525814  1  0  -0.916075  0  1.884676  0  0  -0.865658  0  2.098335  0  0  -0.89346  0  2.058229  0  0  -0.651144  -0.853416  0  2.121976  0
O  O122  1  0.21753114  0.05472875  0.49474178  1  0  -0.916026  0  1.884745  0  0  -0.865646  0  2.098353  0  0  -0.893449  0  2.058228  0  0  -0.651103  -0.853401  0  2.121994  0
O  O123  1  0.28246402  0.44526798  0.99474118  1  0  -0.916087  0  1.884715  0  0  -0.865679  0  2.098375  0  0  -0.893476  0  2.058258  0  0  -0.651165  -0.853436  0  2.122017  0
