# generated using pymatgen
data_Zn3H16C30(NO8)2
_symmetry_space_group_name_H-M   'P 1'
_cell_length_a   18.41342182
_cell_length_b   18.43753845
_cell_length_c   18.49806072
_cell_angle_alpha   109.43928702
_cell_angle_beta   109.24417371
_cell_angle_gamma   109.51675756
_symmetry_Int_Tables_number   1
_chemical_formula_structural   Zn3H16C30(NO8)2
_chemical_formula_sum   'Zn6 H32 C60 N4 O32'
_cell_volume   4847.06173833
_cell_formula_units_Z   2
loop_
 _symmetry_equiv_pos_site_id
 _symmetry_equiv_pos_as_xyz
  1  'x, y, z'
loop_
 _atom_site_type_symbol
 _atom_site_label
 _atom_site_symmetry_multiplicity
 _atom_site_fract_x
 _atom_site_fract_y
 _atom_site_fract_z
 _atom_site_occupancy
 _atom_site_pbe_bader_charge
 _atom_site_pbe_bader_spin_density
 _atom_site_pbe_cm5_charge
 _atom_site_pbe_ddec_charge
 _atom_site_pbe_ddec_spin_density
 _atom_site_pbe_ddec_sum_bond_order
 _atom_site_pbe_magmom
Zn  Zn0  1  0.56886760  0.50456028  0.07132157  1  1.30639  0  0.7154  0.945613  0  2.182103  0
Zn  Zn1  1  0.44301182  0.50446590  0.94396123  1  1.298373  0  0.713531  0.943823  0  2.144311  0
Zn  Zn2  1  0.99505113  0.93470895  0.92757944  1  1.313004  0  0.725306  0.958259  0  2.141767  0
Zn  Zn3  1  0.99211031  0.06044887  0.05440306  1  1.313768  0  0.723132  0.954564  0  2.143971  0
Zn  Zn4  1  0.43227413  0.93715184  0.49386729  1  1.310034  0  0.716993  0.950058  0  2.155799  0
Zn  Zn5  1  0.55977515  0.06913410  0.49854105  1  1.300733  0  0.717446  0.948079  0  2.141521  0
H  H6  1  0.23547993  0.35308488  0.01420971  1  0.114379  0  0.114736  0.118139  0  0.968771  0
H  H7  1  0.67178342  0.77533020  0.01900926  1  0.11337  0  0.114168  0.117585  0  0.968355  0
H  H8  1  0.24387280  0.28206092  0.13068847  1  0.080245  0  0.106344  0.101442  0  0.979913  0
H  H9  1  0.86024160  0.88094051  0.13060264  1  0.093765  0  0.105093  0.100446  0  0.980981  0
H  H10  1  0.40639795  0.29094966  0.14449806  1  0.088954  0  0.107298  0.101079  0  0.981173  0
H  H11  1  0.86487721  0.73084873  0.14100511  1  0.088893  0  0.106717  0.106325  0  0.982059  0
H  H12  1  0.30630492  0.11569218  0.99637273  1  0.077788  0  0.109616  0.102383  0  0.976608  0
H  H13  1  0.88601709  0.68232373  0.98952508  1  0.076496  0  0.108196  0.102428  0  0.977873  0
H  H14  1  0.29889963  0.18853279  0.88214715  1  0.093175  0  0.113747  0.115833  0  0.972899  0
H  H15  1  0.69796925  0.57836977  0.87955515  1  0.108106  0  0.111738  0.111733  0  0.980054  0
H  H16  1  0.37865421  0.79678227  0.18389599  1  0.091137  0  0.103921  0.100006  0  0.987485  0
H  H17  1  0.49432920  0.80789051  0.11276640  1  0.045347  0  0.101607  0.089202  0  0.990161  0
H  H18  1  0.37530029  0.64027345  0.18123276  1  0.061522  0  0.101606  0.086357  0  0.98899  0
H  H19  1  0.64200911  0.91646664  0.28771024  1  0.070478  0  0.09984  0.088532  0  0.992212  0
H  H20  1  0.52088512  0.74935698  0.35761308  1  0.064078  0  0.101302  0.089982  0  0.987456  0
H  H21  1  0.63897734  0.76113956  0.28861284  1  0.081031  0  0.098517  0.088266  0  0.992624  0
H  H22  1  0.40892464  0.23881600  0.58689343  1  0.03887  0  0.097767  0.078689  0  1.0034  0
H  H23  1  0.34147076  0.20557772  0.69756084  1  0.065207  0  0.101564  0.08853  0  0.991057  0
H  H24  1  0.54515684  0.40807950  0.73306467  1  0.060224  0  0.10203  0.088977  0  0.992347  0
H  H25  1  0.44873082  0.12740422  0.73657013  1  0.077344  0  0.099874  0.091164  0  0.99031  0
H  H26  1  0.65447198  0.33209533  0.77273816  1  0.072577  0  0.10137  0.09017  0  0.989491  0
H  H27  1  0.58818565  0.29752307  0.88420732  1  0.055605  0  0.099384  0.091075  0  0.993958  0
H  H28  1  0.67584935  0.09575058  0.81477278  1  0.077272  0  0.099667  0.084011  0  0.992305  0
H  H29  1  0.67838942  0.96096200  0.85671323  1  0.079725  0  0.102904  0.095612  0  0.987259  0
H  H30  1  0.85061839  0.14677563  0.84071706  1  0.065417  0  0.10352  0.093571  0  0.985364  0
H  H31  1  0.60185630  0.84098518  0.67485517  1  0.073497  0  0.102011  0.092738  0  0.988535  0
H  H32  1  0.77451037  0.02821854  0.65787639  1  0.071603  0  0.101409  0.092677  0  0.986436  0
H  H33  1  0.77513900  0.89150850  0.69731977  1  0.049913  0  0.099882  0.091604  0  0.989412  0
H  H34  1  0.27087093  0.09453196  0.41425231  1  0.098996  0  0.114613  0.108056  0  0.971794  0
H  H35  1  0.29806411  0.15176919  0.29488078  1  0.135774  0  0.117886  0.121495  0  0.965932  0
H  H36  1  0.09135410  0.96698441  0.27979568  1  0.101766  0  0.117244  0.120945  0  0.969868  0
H  H37  1  0.17677147  0.89633862  0.10889681  1  0.128653  0  0.125743  0.143373  0  0.947728  0
C  C38  1  0.49204329  0.63281163  0.09992102  1  1.522891  0  0.219086  0.605534  0  4.142769  0
C  C39  1  0.41150631  0.38257393  0.02849522  1  1.559039  0  0.218952  0.603915  0  4.152739  0
C  C40  1  0.65445963  0.61308066  0.02867544  1  1.52989  0  0.216097  0.599733  0  4.159072  0
C  C41  1  0.48156668  0.38863511  0.86332142  1  1.510247  0  0.215816  0.59544  0  4.150027  0
C  C42  1  0.25209920  0.30119967  0.01256659  1  -0.027434  0  -0.063417  -0.094059  0  3.611418  0
C  C43  1  0.72101605  0.75634942  0.01465035  1  -0.038403  0  -0.064061  -0.092526  0  3.612192  0
C  C44  1  0.20063929  0.20592054  0.93179373  1  0.282498  0  0.096981  0.066724  0  3.615644  0
C  C45  1  0.73223387  0.72683400  0.93174904  1  0.281471  0  0.097148  0.070088  0  3.61606  0
C  C46  1  0.20401869  0.16633837  0.99643233  1  0.006932  0  0.005645  -0.023643  0  3.576823  0
C  C47  1  0.83702085  0.78632446  0.99371424  1  0.007272  0  0.005372  -0.042073  0  3.612541  0
C  C48  1  0.25782930  0.26250134  0.07647876  1  -0.004827  0  -0.072685  -0.062536  0  3.63187  0
C  C49  1  0.82402364  0.81288602  0.07596137  1  -0.026247  0  -0.073019  -0.060949  0  3.636942  0
C  C50  1  0.34650697  0.26612569  0.08363928  1  -0.036033  0  -0.071874  -0.069346  0  3.619856  0
C  C51  1  0.82718114  0.73058807  0.08119889  1  -0.012634  0  -0.072447  -0.070436  0  3.609222  0
C  C52  1  0.29231818  0.16981120  0.00194650  1  -0.015669  0  -0.065636  -0.057812  0  3.607191  0
C  C53  1  0.83868377  0.70293812  0.99739544  1  0.002038  0  -0.065444  -0.052448  0  3.609061  0
C  C54  1  0.28747082  0.20875346  0.93807710  1  -0.007764  0  -0.062062  -0.093446  0  3.604136  0
C  C55  1  0.73536388  0.64551956  0.93600792  1  -0.036546  0  -0.062524  -0.091467  0  3.600992  0
C  C56  1  0.34147403  0.30595225  0.02067581  1  0.006989  0  -0.001117  -0.014443  0  3.628391  0
C  C57  1  0.72393464  0.67419163  0.02065257  1  0.020205  0  -0.001593  -0.01354  0  3.629444  0
C  C58  1  0.50122197  0.79556647  0.16788162  1  0.003352  0  -0.071185  -0.061666  0  3.627831  0
C  C59  1  0.43459794  0.70257659  0.20653833  1  -0.027718  0  -0.067141  -0.056335  0  3.615355  0
C  C60  1  0.43594476  0.78733005  0.20540165  1  -0.023346  0  -0.064705  -0.052055  0  3.599515  0
C  C61  1  0.51819403  0.84747587  0.30261313  1  0.012187  0  -0.005963  -0.029083  0  3.644149  0
C  C62  1  0.58276917  0.85503376  0.26429730  1  -0.030432  0  -0.075982  -0.069916  0  3.634397  0
C  C63  1  0.51549249  0.76125565  0.30245588  1  -0.018844  0  -0.073294  -0.062594  0  3.636036  0
C  C64  1  0.58134292  0.76981963  0.26558044  1  -0.040986  0  -0.07792  -0.067628  0  3.644948  0
C  C65  1  0.50142120  0.71069430  0.16902864  1  0.012171  0  -0.008489  -0.033803  0  3.644446  0
C  C66  1  0.41098429  0.23231261  0.71388884  1  -0.033099  0  -0.072121  -0.0692  0  3.628187  0
C  C67  1  0.52500936  0.34548987  0.73382612  1  -0.01032  0  -0.068907  -0.065167  0  3.617546  0
C  C68  1  0.44801851  0.25256201  0.65380524  1  -0.021007  0  -0.068324  -0.060234  0  3.627569  0
C  C69  1  0.50834008  0.21031357  0.67734436  1  0.01202  0  -0.007722  -0.007607  0  3.617973  0
C  C70  1  0.47069715  0.19065424  0.73720572  1  -0.035  0  -0.07749  -0.074224  0  3.639822  0
C  C71  1  0.58513121  0.30417766  0.75703144  1  -0.035443  0  -0.074691  -0.072926  0  3.632059  0
C  C72  1  0.54835377  0.28365322  0.81751796  1  -0.004487  0  -0.079737  -0.075354  0  3.6456  0
C  C73  1  0.48894777  0.32540395  0.79567155  1  0.024265  0  -0.007961  -0.007673  0  3.616757  0
C  C74  1  0.86989090  0.01138469  0.89450386  1  1.509088  0  0.226845  0.619185  0  4.118369  0
C  C75  1  0.12363174  0.09434973  0.98194356  1  1.557619  0  0.218837  0.599859  0  4.15781  0
C  C76  1  0.89190654  0.85272375  0.97793372  1  1.576016  0  0.215428  0.599614  0  4.161946  0
C  C77  1  0.10552204  0.02039019  0.13777929  1  1.561822  0  0.215613  0.594425  0  4.15992  0
C  C78  1  0.34845274  0.97588121  0.37954016  1  1.622547  0  0.216062  0.601622  0  4.182309  0
C  C79  1  0.52070607  0.91586285  0.37511965  1  1.527575  0  0.221738  0.609915  0  4.137185  0
C  C80  1  0.58753108  0.97913457  0.61609078  1  1.503116  0  0.218889  0.606859  0  4.146427  0
C  C81  1  0.51368714  0.14383587  0.61067749  1  1.536261  0  0.216772  0.597975  0  4.15115  0
C  C82  1  0.69859325  0.97542924  0.81152491  1  -0.017372  0  -0.067527  -0.059039  0  3.61775  0
C  C83  1  0.79455633  0.07897154  0.80254056  1  -0.018496  0  -0.067284  -0.058119  0  3.61443  0
C  C84  1  0.69935918  0.05087898  0.79021889  1  -0.034673  0  -0.068033  -0.058117  0  3.622384  0
C  C85  1  0.65778413  0.98362166  0.68850303  1  0.009571  0  -0.008738  -0.033305  0  3.649813  0
C  C86  1  0.65732889  0.90889185  0.71128959  1  -0.016354  0  -0.073619  -0.066343  0  3.631124  0
C  C87  1  0.75380011  0.01284613  0.70243858  1  -0.022439  0  -0.074697  -0.064078  0  3.6366  0
C  C88  1  0.75269371  0.93684921  0.72315881  1  -0.006643  0  -0.077023  -0.066995  0  3.638128  0
C  C89  1  0.79448469  0.00232473  0.82330519  1  0.028846  0  -0.00603  -0.029591  0  3.637044  0
C  C90  1  0.26482810  0.08325802  0.28032611  1  -0.052389  0  -0.061367  -0.095844  0  3.583572  0
C  C91  1  0.14982641  0.98056250  0.27189076  1  0.001232  0  -0.061835  -0.1013  0  3.587074  0
C  C92  1  0.24828546  0.05172695  0.34502925  1  -0.027585  0  -0.055884  -0.037171  0  3.593402  0
C  C93  1  0.27939065  0.98191139  0.31553556  1  0.020467  0  0.01438  -0.065986  0  3.594762  0
C  C94  1  0.29403646  0.01403903  0.25032155  1  0.314378  0  0.093036  0.066545  0  3.631814  0
C  C95  1  0.18038928  0.91215389  0.24263453  1  0.293052  0  0.094438  0.083185  0  3.594211  0
C  C96  1  0.19701571  0.94140762  0.17660589  1  -0.018694  0  -0.057917  -0.128979  0  3.586728  0
C  C97  1  0.16618835  0.00998373  0.20505052  1  0.019237  0  0.002322  0.015866  0  3.584536  0
N  N98  1  0.11823285  0.16877514  0.85023917  1  0.407508  0  0.055749  0.513146  0  4.224713  0
N  N99  1  0.68651990  0.72917922  0.85154419  1  0.383378  0  0.055883  0.512285  0  4.220038  0
N  N100  1  0.37084491  0.02766032  0.23667560  1  0.41392  0  0.057263  0.519002  0  4.227234  0
N  N101  1  0.13447066  0.81771763  0.21644829  1  0.383071  0  0.058569  0.512383  0  4.227003  0
O  O102  1  0.53834687  0.59934486  0.12624592  1  -1.176754  0  -0.316397  -0.576333  0  2.323529  0
O  O103  1  0.43681848  0.60249327  0.01834061  1  -1.133048  0  -0.322611  -0.533876  0  2.228879  0
O  O104  1  0.49290749  0.41207224  0.08353923  1  -1.121315  0  -0.318002  -0.526866  0  2.232126  0
O  O105  1  0.67805125  0.58668860  0.08425716  1  -1.122355  0  -0.31975  -0.526956  0  2.22113  0
O  O106  1  0.38474086  0.41271074  0.97900200  1  -1.174884  0  -0.315011  -0.572174  0  2.299375  0
O  O107  1  0.57540686  0.59134285  0.97869621  1  -1.172703  0  -0.31479  -0.574831  0  2.301204  0
O  O108  1  0.52991579  0.41188444  0.94315798  1  -1.173245  0  -0.313352  -0.577172  0  2.337813  0
O  O109  1  0.42756328  0.41652780  0.83766567  1  -1.125724  0  -0.32495  -0.534345  0  2.218668  0
O  O110  1  0.90337083  0.96376744  0.87085027  1  -1.171416  0  -0.314181  -0.574186  0  2.342339  0
O  O111  1  0.89749904  0.06664972  0.97530504  1  -1.126683  0  -0.321141  -0.534655  0  2.223285  0
O  O112  1  0.09481622  0.01399926  0.92474699  1  -1.126989  0  -0.316077  -0.525128  0  2.223406  0
O  O113  1  0.91758004  0.82717917  0.92208102  1  -1.130675  0  -0.318254  -0.525749  0  2.208245  0
O  O114  1  0.08929554  0.11919947  0.02756802  1  -1.164057  0  -0.307749  -0.565952  0  2.338387  0
O  O115  1  0.90823116  0.93118428  0.02150476  1  -1.169576  0  -0.307207  -0.568767  0  2.346336  0
O  O116  1  0.08649451  0.97427204  0.05914764  1  -1.175754  0  -0.308554  -0.570074  0  2.334982  0
O  O117  1  0.07744590  0.07399150  0.16312489  1  -1.128425  0  -0.321161  -0.529737  0  2.207012  0
O  O118  1  0.32325556  0.92034303  0.40532131  1  -1.130243  0  -0.311806  -0.512703  0  2.222514  0
O  O119  1  0.42727104  0.03061489  0.40522640  1  -1.165502  0  -0.303394  -0.559339  0  2.310858  0
O  O120  1  0.46790764  0.88711301  0.40198460  1  -1.179454  0  -0.316639  -0.576786  0  2.317188  0
O  O121  1  0.57457931  0.99854774  0.40638558  1  -1.120901  0  -0.31753  -0.527307  0  2.230766  0
O  O122  1  0.50563886  0.92260777  0.58508539  1  -1.132083  0  -0.323208  -0.535684  0  2.220634  0
O  O123  1  0.61315696  0.03296017  0.58928366  1  -1.17324  0  -0.317638  -0.580721  0  2.32017  0
O  O124  1  0.46161436  0.06281479  0.58231661  1  -1.175737  0  -0.315648  -0.579276  0  2.328467  0
O  O125  1  0.56910063  0.17187516  0.58486129  1  -1.128883  0  -0.322785  -0.532631  0  2.229153  0
O  O126  1  0.11161469  0.12287522  0.77940410  1  -0.461019  0  -0.143492  -0.339973  0  1.844189  0
O  O127  1  0.06039561  0.18488113  0.85902212  1  -0.45687  0  -0.14493  -0.342003  0  1.847198  0
O  O128  1  0.66107546  0.66615055  0.77962205  1  -0.437706  0  -0.142903  -0.340179  0  1.844649  0
O  O129  1  0.67881458  0.79585379  0.86228032  1  -0.464192  0  -0.139979  -0.339677  0  1.860025  0
O  O130  1  0.42245290  0.10355991  0.25682771  1  -0.446022  0  -0.139442  -0.335091  0  1.849509  0
O  O131  1  0.37677614  0.96061385  0.20482026  1  -0.45967  0  -0.132862  -0.331123  0  1.875961  0
O  O132  1  0.05931829  0.78613853  0.20823281  1  -0.456833  0  -0.142189  -0.347684  0  1.864334  0
O  O133  1  0.17372618  0.77664089  0.20171846  1  -0.422833  0  -0.128942  -0.32009  0  1.86644  0
