# generated using pymatgen
data_U2H2C8N2O13
_symmetry_space_group_name_H-M   'P 1'
_cell_length_a   5.72143287
_cell_length_b   6.67372191
_cell_length_c   19.70650354
_cell_angle_alpha   89.99604153
_cell_angle_beta   90.00142852
_cell_angle_gamma   99.33798291
_symmetry_Int_Tables_number   1
_chemical_formula_structural   U2H2C8N2O13
_chemical_formula_sum   'U4 H4 C16 N4 O26'
_cell_volume   742.48708543
_cell_formula_units_Z   2
loop_
 _symmetry_equiv_pos_site_id
 _symmetry_equiv_pos_as_xyz
  1  'x, y, z'
loop_
 _atom_site_type_symbol
 _atom_site_label
 _atom_site_symmetry_multiplicity
 _atom_site_fract_x
 _atom_site_fract_y
 _atom_site_fract_z
 _atom_site_occupancy
 _atom_site_hle17_bader_spin_density
 _atom_site_hle17_ddec_charge
 _atom_site_hle17_ddec_spin_density
 _atom_site_hle17_ddec_sum_bond_order
 _atom_site_hle17_magmom
 _atom_site_hse06_10hf_bader_spin_density
 _atom_site_hse06_10hf_ddec_charge
 _atom_site_hse06_10hf_ddec_spin_density
 _atom_site_hse06_10hf_ddec_sum_bond_order
 _atom_site_hse06_10hf_magmom
 _atom_site_hse06_bader_spin_density
 _atom_site_hse06_ddec_charge
 _atom_site_hse06_ddec_spin_density
 _atom_site_hse06_ddec_sum_bond_order
 _atom_site_hse06_magmom
 _atom_site_pbe_bader_spin_density
 _atom_site_pbe_cm5_charge
 _atom_site_pbe_ddec_charge
 _atom_site_pbe_ddec_spin_density
 _atom_site_pbe_ddec_sum_bond_order
 _atom_site_pbe_magmom
U  U0  1  0.49999265  0.99999223  0.49999661  1  0  2.375135  0  4.194839  0  0  2.410345  0  4.869464  0  0  2.521675  0  4.834145  0  0  2.194461  2.332521  0  4.893678  0
U  U1  1  0.50000792  0.00001039  0.00000333  1  0  2.375225  0  4.194948  0  0  2.41051  0  4.86947  0  0  2.521737  0  4.834282  0  0  2.194568  2.332655  0  4.893749  0
U  U2  1  0.28526895  0.38428945  0.25000080  1  0  2.557697  0  4.15189  0  0  2.617314  0  4.811514  0  0  2.724295  0  4.770696  0  0  2.249723  2.542122  0  4.839133  0
U  U3  1  0.71472195  0.61571626  0.75000006  1  0  2.557738  0  4.151384  0  0  2.617274  0  4.811138  0  0  2.724266  0  4.770308  0  0  2.249541  2.542032  0  4.838844  0
H  H4  1  0.77562639  0.64689023  0.28934286  1  0  0.465747  0  0.778576  0  0  0.451068  0  0.825953  0  0  0.461052  0  0.811368  0  0  0.346806  0.443923  0  0.836439  0
H  H5  1  0.22434513  0.35308226  0.78934574  1  0  0.465704  0  0.77837  0  0  0.450968  0  0.826033  0  0  0.460934  0  0.811476  0  0  0.346814  0.443822  0  0.836519  0
H  H6  1  0.22441746  0.35307770  0.71064583  1  0  0.465772  0  0.778293  0  0  0.451005  0  0.825977  0  0  0.461004  0  0.811367  0  0  0.346846  0.443859  0  0.836463  0
H  H7  1  0.77558943  0.64692163  0.21064397  1  0  0.465753  0  0.778373  0  0  0.450999  0  0.826012  0  0  0.461002  0  0.811396  0  0  0.346796  0.443853  0  0.836502  0
C  C8  1  0.17471094  0.52583411  0.45224720  1  0  0.097497  0  3.605148  0  0  0.094633  0  3.852675  0  0  0.096874  0  3.86447  0  0  0.166249  0.092772  0  3.845247  0
C  C9  1  0.82528920  0.47418514  0.95224957  1  0  0.097391  0  3.605103  0  0  0.094612  0  3.852718  0  0  0.096853  0  3.864513  0  0  0.166239  0.092756  0  3.845278  0
C  C10  1  0.82529323  0.47413622  0.54775214  1  0  0.097665  0  3.60522  0  0  0.094768  0  3.852731  0  0  0.097009  0  3.864536  0  0  0.166241  0.092907  0  3.845296  0
C  C11  1  0.17473361  0.52583054  0.04775384  1  0  0.097291  0  3.605092  0  0  0.094514  0  3.852647  0  0  0.096754  0  3.864447  0  0  0.166139  0.092653  0  3.845212  0
C  C12  1  0.40009156  0.56533087  0.41016856  1  0  0.677325  0  3.843496  0  0  0.635668  0  4.149923  0  0  0.674464  0  4.137566  0  0  0.262268  0.609034  0  4.157315  0
C  C13  1  0.59989734  0.43471060  0.91017376  1  0  0.677318  0  3.843678  0  0  0.635566  0  4.150252  0  0  0.674359  0  4.137894  0  0  0.262306  0.608928  0  4.15764  0
C  C14  1  0.59991177  0.43465167  0.58982876  1  0  0.676917  0  3.844156  0  0  0.635394  0  4.150385  0  0  0.674189  0  4.138069  0  0  0.262139  0.608765  0  4.157755  0
C  C15  1  0.40011876  0.56531438  0.08983167  1  0  0.677539  0  3.843516  0  0  0.635658  0  4.15028  0  0  0.67445  0  4.137916  0  0  0.262271  0.609025  0  4.157674  0
C  C16  1  0.97332971  0.37476762  0.44429003  1  0  0.117765  0  3.589615  0  0  0.114098  0  3.83369  0  0  0.117809  0  3.843882  0  0  0.170354  0.111033  0  3.82768  0
C  C17  1  0.02667393  0.62524701  0.94429423  1  0  0.118148  0  3.589338  0  0  0.114275  0  3.833816  0  0  0.118  0  3.84406  0  0  0.170437  0.111225  0  3.827801  0
C  C18  1  0.02667022  0.62520738  0.55570577  1  0  0.117708  0  3.590052  0  0  0.113968  0  3.834143  0  0  0.117672  0  3.844377  0  0  0.17045  0.110904  0  3.828135  0
C  C19  1  0.97334291  0.37477337  0.05570968  1  0  0.117918  0  3.589381  0  0  0.114217  0  3.833608  0  0  0.11792  0  3.843828  0  0  0.170342  0.111164  0  3.827598  0
C  C20  1  0.90081737  0.22752830  0.38610359  1  0  0.711343  0  3.816091  0  0  0.678805  0  4.10394  0  0  0.719416  0  4.088457  0  0  0.270318  0.650645  0  4.113938  0
C  C21  1  0.09917425  0.77251172  0.88610234  1  0  0.711606  0  3.815904  0  0  0.678961  0  4.104069  0  0  0.719468  0  4.088757  0  0  0.270233  0.650764  0  4.11413  0
C  C22  1  0.09917246  0.77244844  0.61389372  1  0  0.71129  0  3.816403  0  0  0.679015  0  4.103802  0  0  0.719601  0  4.088368  0  0  0.270405  0.650861  0  4.113786  0
C  C23  1  0.90082162  0.22751675  0.11390005  1  0  0.711362  0  3.815942  0  0  0.678687  0  4.104059  0  0  0.719288  0  4.088587  0  0  0.270185  0.650497  0  4.114097  0
N  N24  1  0.19137008  0.64645105  0.50689482  1  0  -0.318771  0  3.260137  0  0  -0.301478  0  3.539113  0  0  -0.315315  0  3.560152  0  0  -0.303733  -0.291797  0  3.524946  0
N  N25  1  0.80862941  0.35355177  0.00690006  1  0  -0.318917  0  3.260065  0  0  -0.301594  0  3.538994  0  0  -0.315416  0  3.560025  0  0  -0.303673  -0.291908  0  3.524814  0
N  N26  1  0.80863814  0.35352986  0.49310250  1  0  -0.318722  0  3.259938  0  0  -0.30141  0  3.538864  0  0  -0.315247  0  3.559896  0  0  -0.303702  -0.291723  0  3.524683  0
N  N27  1  0.19138295  0.64646414  0.99310334  1  0  -0.318882  0  3.260248  0  0  -0.301503  0  3.53922  0  0  -0.315323  0  3.560242  0  0  -0.303606  -0.291815  0  3.525036  0
O  O28  1  0.55475010  0.70908145  0.43135942  1  0  -0.595692  0  2.043834  0  0  -0.580062  0  2.30398  0  0  -0.612496  0  2.29846  0  0  -0.331358  -0.556616  0  2.306541  0
O  O29  1  0.44524513  0.29094810  0.93136738  1  0  -0.595623  0  2.043736  0  0  -0.580011  0  2.303969  0  0  -0.612425  0  2.298443  0  0  -0.331487  -0.556567  0  2.306545  0
O  O30  1  0.44525092  0.29089047  0.56863383  1  0  -0.595525  0  2.043641  0  0  -0.579946  0  2.303731  0  0  -0.612386  0  2.298211  0  0  -0.331295  -0.556498  0  2.30628  0
O  O31  1  0.55476168  0.70906640  0.06863906  1  0  -0.595741  0  2.04384  0  0  -0.580077  0  2.304126  0  0  -0.612484  0  2.298596  0  0  -0.331399  -0.556629  0  2.306693  0
O  O32  1  0.43306613  0.45166174  0.36114863  1  0  -0.629793  0  2.098859  0  0  -0.618039  0  2.3755  0  0  -0.652453  0  2.369218  0  0  -0.344933  -0.592763  0  2.378188  0
O  O33  1  0.56692676  0.54837857  0.86115093  1  0  -0.629778  0  2.099138  0  0  -0.617921  0  2.37573  0  0  -0.652355  0  2.369486  0  0  -0.34486  -0.592646  0  2.378432  0
O  O34  1  0.56693786  0.54829181  0.63885173  1  0  -0.629565  0  2.099434  0  0  -0.617923  0  2.376167  0  0  -0.652274  0  2.36975  0  0  -0.344885  -0.59265  0  2.378851  0
O  O35  1  0.43306936  0.45162702  0.13885196  1  0  -0.629892  0  2.099151  0  0  -0.617978  0  2.375772  0  0  -0.65242  0  2.369558  0  0  -0.344895  -0.592711  0  2.378477  0
O  O36  1  0.73467498  0.08504118  0.40054253  1  0  -0.575756  0  2.041666  0  0  -0.565194  0  2.294155  0  0  -0.599025  0  2.286644  0  0  -0.325753  -0.540501  0  2.298002  0
O  O37  1  0.26534427  0.91498320  0.90054016  1  0  -0.575932  0  2.041453  0  0  -0.565304  0  2.293985  0  0  -0.599087  0  2.286528  0  0  -0.325801  -0.540597  0  2.297858  0
O  O38  1  0.26532173  0.91494304  0.59945478  1  0  -0.575843  0  2.041474  0  0  -0.565352  0  2.293826  0  0  -0.599177  0  2.286326  0  0  -0.325821  -0.540666  0  2.297677  0
O  O39  1  0.73467505  0.08503255  0.09946071  1  0  -0.575841  0  2.041391  0  0  -0.565189  0  2.293908  0  0  -0.599003  0  2.286406  0  0  -0.325795  -0.540481  0  2.297764  0
O  O40  1  0.99157893  0.25693683  0.32806944  1  0  -0.632226  0  2.084511  0  0  -0.626759  0  2.349478  0  0  -0.660974  0  2.338314  0  0  -0.348021  -0.601469  0  2.355559  0
O  O41  1  0.00839248  0.74314705  0.82807379  1  0  -0.63238  0  2.08457  0  0  -0.626896  0  2.349684  0  0  -0.661075  0  2.33857  0  0  -0.347874  -0.601577  0  2.355771  0
O  O42  1  0.00840667  0.74304459  0.67192483  1  0  -0.632175  0  2.084856  0  0  -0.626791  0  2.349726  0  0  -0.661021  0  2.338607  0  0  -0.348074  -0.6015  0  2.355807  0
O  O43  1  0.99158509  0.25690165  0.17193418  1  0  -0.632148  0  2.084664  0  0  -0.626676  0  2.349764  0  0  -0.660883  0  2.338595  0  0  -0.347862  -0.60137  0  2.355842  0
O  O44  1  0.25280038  0.05820040  0.45108279  1  0  -0.673146  0  1.60933  0  0  -0.684392  0  1.907734  0  0  -0.708844  0  1.898014  0  0  -0.742245  -0.668957  0  1.91476  0
O  O45  1  0.74723648  0.94185945  0.95109191  1  0  -0.673212  0  1.609208  0  0  -0.684408  0  1.907476  0  0  -0.708833  0  1.897755  0  0  -0.742205  -0.668961  0  1.914508  0
O  O46  1  0.74719558  0.94178841  0.54891554  1  0  -0.6731  0  1.609101  0  0  -0.684348  0  1.907471  0  0  -0.708805  0  1.897754  0  0  -0.742122  -0.668905  0  1.914485  0
O  O47  1  0.25279312  0.05817133  0.04890947  1  0  -0.673105  0  1.609189  0  0  -0.684398  0  1.907623  0  0  -0.708824  0  1.897913  0  0  -0.742252  -0.668957  0  1.91466  0
O  O48  1  0.41354040  0.15666594  0.25001154  1  0  -0.633131  0  1.477395  0  0  -0.650398  0  1.732447  0  0  -0.66993  0  1.717585  0  0  -0.736431  -0.639442  0  1.743543  0
O  O49  1  0.58642930  0.84333870  0.74998323  1  0  -0.633152  0  1.477291  0  0  -0.65039  0  1.732365  0  0  -0.669928  0  1.717504  0  0  -0.736343  -0.639433  0  1.743481  0
O  O50  1  0.15812488  0.61560389  0.24998647  1  0  -0.730247  0  1.5292  0  0  -0.742503  0  1.792515  0  0  -0.766341  0  1.778002  0  0  -0.761912  -0.728274  0  1.803299  0
O  O51  1  0.84186570  0.38440030  0.75002505  1  0  -0.730177  0  1.529012  0  0  -0.742395  0  1.792324  0  0  -0.766235  0  1.777807  0  0  -0.761812  -0.728159  0  1.803118  0
O  O52  1  0.67211215  0.62314859  0.24999687  1  0  -0.858195  0  1.857407  0  0  -0.831551  0  2.038105  0  0  -0.850817  0  2.00499  0  0  -0.585958  -0.817631  0  2.061121  0
O  O53  1  0.32786881  0.37687564  0.75000400  1  0  -0.858187  0  1.857145  0  0  -0.831438  0  2.03819  0  0  -0.850692  0  2.005103  0  0  -0.586026  -0.817516  0  2.061214  0
