# generated using pymatgen
data_Zn3H68C82(N3O10)2
_symmetry_space_group_name_H-M   'P 1'
_cell_length_a   9.50930688
_cell_length_b   17.12115237
_cell_length_c   19.60693283
_cell_angle_alpha   114.49466527
_cell_angle_beta   89.99964807
_cell_angle_gamma   89.99966797
_symmetry_Int_Tables_number   1
_chemical_formula_structural   Zn3H68C82(N3O10)2
_chemical_formula_sum   'Zn3 H68 C82 N6 O20'
_cell_volume   2904.91112861
_cell_formula_units_Z   1
loop_
 _symmetry_equiv_pos_site_id
 _symmetry_equiv_pos_as_xyz
  1  'x, y, z'
loop_
 _atom_site_type_symbol
 _atom_site_label
 _atom_site_symmetry_multiplicity
 _atom_site_fract_x
 _atom_site_fract_y
 _atom_site_fract_z
 _atom_site_occupancy
 _atom_site_pbe_bader_charge
 _atom_site_pbe_bader_spin_density
 _atom_site_pbe_cm5_charge
 _atom_site_pbe_ddec_charge
 _atom_site_pbe_ddec_spin_density
 _atom_site_pbe_ddec_sum_bond_order
 _atom_site_pbe_magmom
Zn  Zn0  1  0.16192977  0.99999843  0.99999938  1  1.394021  0  0.706127  1.023077  0  2.195974  0
Zn  Zn1  1  0.49530253  0.22828516  0.08125172  1  1.297261  0  0.695094  0.871951  0  2.316764  0
Zn  Zn2  1  0.49530383  0.77172060  0.91875210  1  1.297207  0  0.695144  0.872163  0  2.316644  0
H  H3  1  0.92584495  0.10036605  0.02157860  1  0.65269  0  0.293673  0.405619  0  0.927867  0
H  H4  1  0.92585046  0.89963345  0.97842170  1  0.652722  0  0.293686  0.405676  0  0.927799  0
H  H5  1  0.06647788  0.15636443  0.06054592  1  0.664427  0  0.294661  0.40238  0  0.930565  0
H  H6  1  0.06648027  0.84363341  0.93944972  1  0.664284  0  0.294655  0.402437  0  0.930511  0
H  H7  1  0.40678141  0.01831892  0.16230531  1  0.056741  0  0.114939  0.10223  0  0.979203  0
H  H8  1  0.40678050  0.98168087  0.83769001  1  0.056748  0  0.114913  0.102202  0  0.9792  0
H  H9  1  0.28573818  0.10302890  0.21211056  1  0.11924  0  0.11464  0.109957  0  0.979834  0
H  H10  1  0.28573879  0.89696966  0.78788774  1  0.119348  0  0.114622  0.109945  0  0.979868  0
H  H11  1  0.32673918  0.85341637  0.07624454  1  0.135049  0  0.108328  0.137169  0  1.017376  0
H  H12  1  0.32673745  0.14658133  0.92375486  1  0.135074  0  0.10834  0.137192  0  1.017408  0
H  H13  1  0.25123035  0.73809338  0.11490234  1  0.099017  0  0.100257  0.107143  0  1.039075  0
H  H14  1  0.25122266  0.26190797  0.88510166  1  0.099292  0  0.100261  0.107179  0  1.038984  0
H  H15  1  0.84432174  0.96973825  0.28877641  1  0.065362  0  0.098625  0.099953  0  1.015246  0
H  H16  1  0.84432183  0.03026427  0.71122369  1  0.065417  0  0.098647  0.099948  0  1.015199  0
H  H17  1  0.18654341  0.04664137  0.31638060  1  0.087363  0  0.098039  0.098391  0  1.015866  0
H  H18  1  0.18655107  0.95334556  0.68361537  1  0.087038  0  0.098085  0.098425  0  1.015936  0
H  H19  1  0.71441412  0.13959239  0.16444360  1  0.136324  0  0.102591  0.122364  0  1.044139  0
H  H20  1  0.71441345  0.86041280  0.83556244  1  0.136237  0  0.102597  0.122378  0  1.044131  0
H  H21  1  0.77376488  0.85602003  0.32912974  1  0.046745  0  0.098646  0.093736  0  0.99575  0
H  H22  1  0.77377061  0.14398481  0.67087191  1  0.046708  0  0.098686  0.093775  0  0.995796  0
H  H23  1  0.09548377  0.68843482  0.18887738  1  0.041761  0  0.097431  0.099559  0  1.028067  0
H  H24  1  0.09547335  0.31156870  0.81113092  1  0.041708  0  0.097426  0.099588  0  1.027935  0
H  H25  1  0.50383284  0.42888298  0.12716210  1  0.183564  0  0.141237  0.113768  0  1.033649  0
H  H26  1  0.50384101  0.57112527  0.87283954  1  0.183643  0  0.141193  0.113694  0  1.033761  0
H  H27  1  0.83206881  0.27372358  0.14589535  1  0.190257  0  0.143967  0.118689  0  0.987058  0
H  H28  1  0.83207981  0.72628223  0.85411005  1  0.190084  0  0.143978  0.118752  0  0.987121  0
H  H29  1  0.25255734  0.17029822  0.43341476  1  0.023151  0  0.098007  0.094281  0  0.996072  0
H  H30  1  0.25255412  0.82968451  0.56658256  1  0.022807  0  0.097949  0.094222  0  0.996002  0
H  H31  1  0.93454656  0.32575120  0.39305082  1  0.049337  0  0.098354  0.095993  0  1.001299  0
H  H32  1  0.93453918  0.67424510  0.60696005  1  0.04906  0  0.098357  0.096024  0  1.001283  0
H  H33  1  0.78283728  0.26311906  0.28123373  1  0.050734  0  0.100221  0.099574  0  0.998694  0
H  H34  1  0.78283938  0.73688449  0.71877508  1  0.050735  0  0.100231  0.099661  0  0.998662  0
H  H35  1  0.62951098  0.01556796  0.10180498  1  0.059479  0  0.109619  0.095858  0  1.002481  0
H  H36  1  0.62951453  0.98443260  0.89820475  1  0.059328  0  0.1096  0.095827  0  1.002518  0
H  H37  1  0.65988453  0.94361906  0.14537351  1  0.048792  0  0.105654  0.088222  0  0.97657  0
H  H38  1  0.65986885  0.05637809  0.85463031  1  0.048695  0  0.105602  0.088151  0  0.976525  0
H  H39  1  0.89847849  0.71519069  0.27916148  1  0.031885  0  0.09511  0.089485  0  1.012598  0
H  H40  1  0.89847581  0.28481282  0.72084187  1  0.031674  0  0.09511  0.089554  0  1.012572  0
H  H41  1  0.05747897  0.28928198  0.99784194  1  0.099016  0  0.118864  0.118875  0  0.964682  0
H  H42  1  0.05747997  0.71072104  0.00215508  1  0.099012  0  0.118827  0.118827  0  0.964654  0
H  H43  1  0.02846225  0.37106561  0.08929645  1  0.126723  0  0.102065  0.079153  0  1.072972  0
H  H44  1  0.02846092  0.62893053  0.91070074  1  0.126497  0  0.102045  0.079108  0  1.073025  0
H  H45  1  0.12805623  0.31063678  0.47184525  1  0.04604  0  0.095971  0.092011  0  1.002838  0
H  H46  1  0.12804865  0.68935181  0.52815965  1  0.046082  0  0.096016  0.092107  0  1.002831  0
H  H47  1  0.77589647  0.58138166  0.22387653  1  0.082486  0  0.113414  0.093624  0  0.971391  0
H  H48  1  0.77590641  0.41862444  0.77612403  1  0.082464  0  0.11346  0.093676  0  0.971344  0
H  H49  1  0.63912256  0.56353458  0.15743108  1  0.109657  0  0.110425  0.089094  0  1.037792  0
H  H50  1  0.63912726  0.43647227  0.84256812  1  0.109805  0  0.110466  0.089212  0  1.037777  0
H  H51  1  0.84088283  0.61177772  0.11290537  1  0.043608  0  0.096541  0.09675  0  0.994426  0
H  H52  1  0.84087485  0.38822418  0.88709656  1  0.043609  0  0.096577  0.096746  0  0.994361  0
H  H53  1  0.95619750  0.54035801  0.12809563  1  0.04683  0  0.089772  0.086511  0  1.009541  0
H  H54  1  0.95620054  0.45963942  0.87190741  1  0.046736  0  0.089794  0.086506  0  1.009488  0
H  H55  1  0.90994622  0.43117830  0.01321765  1  0.021439  0  0.089275  0.086201  0  1.011901  0
H  H56  1  0.90994455  0.56882320  0.98678240  1  0.021452  0  0.089301  0.086215  0  1.011876  0
H  H57  1  0.72690751  0.44509223  0.02262029  1  0.002174  0  0.082564  0.068043  0  1.024419  0
H  H58  1  0.72690611  0.55491159  0.97738215  1  0.002145  0  0.082584  0.068068  0  1.024459  0
H  H59  1  0.17083549  0.45460803  0.17212915  1  0.089155  0  0.10987  0.126815  0  1.005877  0
H  H60  1  0.17084030  0.54539757  0.82786845  1  0.089052  0  0.109926  0.12689  0  1.005722  0
H  H61  1  0.29068526  0.58565017  0.25824036  1  0.023053  0  0.103081  0.106625  0  0.988148  0
H  H62  1  0.29068833  0.41435349  0.74175823  1  0.022959  0  0.103023  0.106532  0  0.988281  0
H  H63  1  0.48354829  0.62003894  0.00400891  1  0.064948  0  0.094107  0.087089  0  1.066011  0
H  H64  1  0.48354321  0.37995273  0.99598378  1  0.06519  0  0.094138  0.08707  0  1.065907  0
H  H65  1  0.44069961  0.71189145  0.27968045  1  0.046399  0  0.099542  0.098983  0  0.997144  0
H  H66  1  0.44069164  0.28810430  0.72031333  1  0.046288  0  0.099595  0.099038  0  0.997074  0
H  H67  1  0.60771279  0.74928994  0.09082074  1  0.081653  0  0.101365  0.106818  0  1.002839  0
H  H68  1  0.60771332  0.25070231  0.90917180  1  0.081402  0  0.101352  0.106842  0  1.002822  0
H  H69  1  0.58757035  0.79608849  0.22908483  1  0.051104  0  0.095901  0.092261  0  1.026406  0
H  H70  1  0.58756471  0.20390643  0.77090617  1  0.050659  0  0.095884  0.09229  0  1.026475  0
C  C71  1  0.16625762  0.94170985  0.14254089  1  0.38549  0  0.078525  0.201338  0  4.020257  0
C  C72  1  0.16625766  0.05828939  0.85745903  1  0.385848  0  0.078572  0.201489  0  4.020296  0
C  C73  1  0.31962558  0.05730117  0.15603373  1  0.400792  0  -0.058548  -0.111632  0  3.866214  0
C  C74  1  0.31962815  0.94269848  0.84396384  1  0.401022  0  -0.058523  -0.111659  0  3.86619  0
C  C75  1  0.37053573  0.10634605  0.11195771  1  1.598247  0  0.214605  0.6067  0  4.159465  0
C  C76  1  0.37053930  0.89365267  0.88803887  1  1.598361  0  0.214666  0.606824  0  4.159086  0
C  C77  1  0.05512083  0.95975648  0.19221195  1  0.016821  0  -0.010053  -0.056488  0  3.990311  0
C  C78  1  0.05511748  0.04024339  0.80778955  1  0.016444  0  -0.010163  -0.056572  0  3.990403  0
C  C79  1  0.23931716  0.86294220  0.11486367  1  0.001474  0  -0.098643  -0.183002  0  3.991653  0
C  C80  1  0.23931708  0.13705471  0.88513622  1  0.001713  0  -0.098665  -0.183139  0  3.991786  0
C  C81  1  0.98221823  0.04415115  0.21870295  1  0.016983  0  -0.017722  -0.077392  0  3.992734  0
C  C82  1  0.98221515  0.95585062  0.78130157  1  0.016892  0  -0.017767  -0.077493  0  3.992779  0
C  C83  1  0.01144275  0.89489665  0.21571108  1  0.00909  0  -0.004174  0.045799  0  3.961132  0
C  C84  1  0.01144008  0.10510346  0.78429012  1  0.009042  0  -0.004148  0.04571  0  3.961157  0
C  C85  1  0.19749832  0.79982257  0.13673966  1  -0.088291  0  -0.088876  -0.113198  0  3.988574  0
C  C86  1  0.19749050  0.20017909  0.86326460  1  -0.08958  0  -0.088862  -0.113231  0  3.988443  0
C  C87  1  0.02275213  0.11472168  0.28629805  1  -0.054356  0  -0.005319  0.046629  0  3.970137  0
C  C88  1  0.02275801  0.88527840  0.71370923  1  -0.053241  0  -0.005263  0.046679  0  3.970111  0
C  C89  1  0.87248069  0.05456629  0.17658896  1  0.465898  0  0.084402  0.209104  0  4.033861  0
C  C90  1  0.87248139  0.94543481  0.82341565  1  0.465759  0  0.084385  0.209108  0  4.034173  0
C  C91  1  0.89865213  0.90805643  0.26682600  1  -0.060275  0  -0.095392  -0.134967  0  3.994524  0
C  C92  1  0.89864920  0.09194706  0.73317531  1  -0.060206  0  -0.095374  -0.134811  0  3.994465  0
C  C93  1  0.08360950  0.81384737  0.18723011  1  0.016415  0  -0.011689  0.065123  0  4.006803  0
C  C94  1  0.08360352  0.18615427  0.81277347  1  0.017824  0  -0.01174  0.065177  0  4.006778  0
C  C95  1  0.13216468  0.10790126  0.33292703  1  -0.055278  0  -0.099254  -0.144919  0  4.015692  0
C  C96  1  0.13216162  0.89209111  0.66707104  1  -0.055442  0  -0.099339  -0.145051  0  4.015754  0
C  C97  1  0.94972659  0.19511183  0.30915749  1  0.040539  0  -0.01344  0.067207  0  4.015671  0
C  C98  1  0.94973360  0.80488757  0.69084933  1  0.040598  0  -0.013479  0.06723  0  4.015741  0
C  C99  1  0.79939279  0.13341104  0.19909711  1  -0.016974  0  -0.102601  -0.19213  0  4.01513  0
C  C100  1  0.79939355  0.86659304  0.80090929  1  -0.016404  0  -0.102615  -0.192081  0  4.015271  0
C  C101  1  0.85944231  0.84452781  0.28907566  1  -0.071397  0  -0.099559  -0.091735  0  4.065388  0
C  C102  1  0.85944110  0.15547720  0.71092783  1  -0.071502  0  -0.099622  -0.091841  0  4.065645  0
C  C103  1  0.03979156  0.74968938  0.21081751  1  -0.010158  0  -0.09199  -0.128885  0  3.985502  0
C  C104  1  0.03977995  0.25031444  0.78918902  1  -0.010709  0  -0.091899  -0.128818  0  3.985341  0
C  C105  1  0.60522619  0.40614302  0.13699657  1  0.977274  0  0.166939  0.08545  0  3.884821  0
C  C106  1  0.60523426  0.59386468  0.86300558  1  0.977393  0  0.166987  0.085511  0  3.884767  0
C  C107  1  0.77342596  0.32895498  0.14783394  1  0.955862  0  0.157173  0.152057  0  3.957179  0
C  C108  1  0.77343861  0.67105115  0.85217072  1  0.956143  0  0.157363  0.152279  0  3.956928  0
C  C109  1  0.20903320  0.29069021  0.07847172  1  1.60819  0  0.206471  0.599488  0  4.202534  0
C  C110  1  0.20903090  0.70930808  0.92151805  1  1.608049  0  0.206677  0.599832  0  4.202116  0
C  C111  1  0.16870074  0.17702936  0.39826461  1  -0.02302  0  -0.100527  -0.088714  0  4.063279  0
C  C112  1  0.16869923  0.82295769  0.60173553  1  -0.0225  0  -0.10039  -0.08854  0  4.062879  0
C  C113  1  0.99044696  0.26489970  0.37646455  1  -0.073922  0  -0.09432  -0.132646  0  4.011313  0
C  C114  1  0.99044293  0.73509499  0.62354200  1  -0.07272  0  -0.094371  -0.132665  0  4.011569  0
C  C115  1  0.83816982  0.20199604  0.26389581  1  -0.0683  0  -0.091019  -0.115269  0  4.013448  0
C  C116  1  0.83817632  0.79800527  0.73611305  1  -0.06919  0  -0.09102  -0.115456  0  4.01351  0
C  C117  1  0.69589155  0.96214232  0.10067253  1  0.442184  0  -0.064019  -0.115931  0  3.914384  0
C  C118  1  0.69588706  0.03785784  0.89933175  1  0.442426  0  -0.063947  -0.115778  0  3.914255  0
C  C119  1  0.93031453  0.76466223  0.26082756  1  -0.050393  0  -0.102369  -0.099311  0  4.063577  0
C  C120  1  0.93031002  0.23534110  0.73917614  1  -0.050127  0  -0.102446  -0.099512  0  4.063696  0
C  C121  1  0.10951486  0.33804640  0.04717759  1  0.333595  0  -0.073296  -0.149321  0  3.904421  0
C  C122  1  0.10951581  0.66195632  0.95281661  1  0.333866  0  -0.073188  -0.14918  0  3.904358  0
C  C123  1  0.09782330  0.25640837  0.42024708  1  -0.070445  0  -0.105002  -0.10268  0  4.077229  0
C  C124  1  0.09781660  0.74358102  0.57975614  1  -0.071581  0  -0.105034  -0.102817  0  4.07732  0
C  C125  1  0.67276140  0.88778254  0.02498011  1  1.618551  0  0.208888  0.5996  0  4.181918  0
C  C126  1  0.67275621  0.11222093  0.97502135  1  1.618487  0  0.208972  0.599735  0  4.181846  0
C  C127  1  0.74291042  0.54128382  0.16616066  1  0.238847  0  -0.047205  -0.094924  0  3.894436  0
C  C128  1  0.74291605  0.45872118  0.83384012  1  0.238613  0  -0.04738  -0.095207  0  3.894567  0
C  C129  1  0.84919926  0.54620491  0.10958867  1  -0.01501  0  -0.161088  -0.162122  0  3.903163  0
C  C130  1  0.84920001  0.45379695  0.89041424  1  -0.014866  0  -0.161125  -0.162047  0  3.903091  0
C  C131  1  0.24310738  0.46556012  0.07085771  1  0.482862  0  0.086294  0.212483  0  4.03313  0
C  C132  1  0.24310996  0.53443866  0.92913774  1  0.483107  0  0.086228  0.212381  0  4.033302  0
C  C133  1  0.82670216  0.47994975  0.02836945  1  0.021565  0  -0.168472  -0.135641  0  3.897897  0
C  C134  1  0.82669909  0.52005094  0.97163209  1  -0.002675  0  -0.16852  -0.135701  0  3.898016  0
C  C135  1  0.23277160  0.49194969  0.14958457  1  -0.091754  0  -0.107036  -0.209494  0  4.039902  0
C  C136  1  0.23277546  0.50805237  0.85041310  1  -0.091253  0  -0.107103  -0.209527  0  4.039731  0
C  C137  1  0.32142323  0.51322592  0.04121250  1  -0.004478  0  -0.020108  -0.07552  0  3.972107  0
C  C138  1  0.32142382  0.48677051  0.95878442  1  0.041632  0  -0.020095  -0.075687  0  3.972198  0
C  C139  1  0.29991566  0.56546774  0.19780402  1  -0.030152  0  -0.094437  -0.127903  0  4.041498  0
C  C140  1  0.29991459  0.43452944  0.80218966  1  -0.030118  0  -0.094331  -0.127831  0  4.041336  0
C  C141  1  0.39344249  0.58840979  0.09083467  1  -0.007552  0  -0.008525  0.033897  0  3.9886  0
C  C142  1  0.39343819  0.41158238  0.90915745  1  -0.007304  0  -0.008436  0.033991  0  3.988484  0
C  C143  1  0.38181744  0.61562043  0.17053662  1  0.003128  0  -0.02293  0.041669  0  4.059466  0
C  C144  1  0.38181549  0.38437180  0.82945555  1  0.003044  0  -0.022969  0.041782  0  4.05924  0
C  C145  1  0.47759470  0.63855052  0.06414748  1  -0.037032  0  -0.093942  -0.127837  0  3.978356  0
C  C146  1  0.47758637  0.36144053  0.93584399  1  -0.036811  0  -0.09395  -0.127727  0  3.978188  0
C  C147  1  0.45227192  0.69140572  0.21929303  1  -0.087788  0  -0.095164  -0.141078  0  4.016701  0
C  C148  1  0.45226823  0.30858804  0.78069948  1  -0.087984  0  -0.095258  -0.141212  0  4.016578  0
C  C149  1  0.54646128  0.71112262  0.11291441  1  -0.073232  0  -0.089871  -0.06878  0  3.992547  0
C  C150  1  0.54645959  0.28887061  0.88707661  1  -0.073061  0  -0.089972  -0.068955  0  3.992624  0
C  C151  1  0.53347757  0.73818660  0.19131373  1  -0.005083  0  -0.098861  -0.094444  0  4.043555  0
C  C152  1  0.53347716  0.26180799  0.80867986  1  -0.004885  0  -0.098802  -0.094463  0  4.043632  0
N  N153  1  0.63423508  0.32633703  0.12936334  1  -1.244883  0  -0.346173  -0.321684  0  3.542451  0
N  N154  1  0.63424642  0.67367179  0.87064015  1  -1.24533  0  -0.346198  -0.321733  0  3.542204  0
N  N155  1  0.72210498  0.45380709  0.15919159  1  -0.827747  0  -0.131761  0.170739  0  3.744313  0
N  N156  1  0.72211383  0.54620061  0.84081175  1  -0.827511  0  -0.131779  0.170674  0  3.744136  0
N  N157  1  0.83057892  0.40585109  0.16654831  1  -0.660678  0  -0.219439  -0.257907  0  3.092298  0
N  N158  1  0.83058946  0.59415472  0.83345556  1  -0.660601  0  -0.219537  -0.258021  0  3.092084  0
O  O159  1  0.20503522  0.00318781  0.11629940  1  -1.08966  0  -0.188174  -0.227453  0  2.671846  0
O  O160  1  0.20503882  0.99681313  0.88369846  1  -1.089933  0  -0.188171  -0.227442  0  2.672027  0
O  O161  1  0.32248120  0.08962248  0.04763706  1  -1.167508  0  -0.29517  -0.532718  0  2.358743  0
O  O162  1  0.32248062  0.91037394  0.95235884  1  -1.167541  0  -0.2952  -0.532742  0  2.358719  0
O  O163  1  0.03035800  0.09868305  0.02683051  1  -1.274491  0  -0.583313  -0.789956  0  2.16813  0
O  O164  1  0.03036356  0.90131375  0.97317048  1  -1.27443  0  -0.583304  -0.790124  0  2.167992  0
O  O165  1  0.46383329  0.16400323  0.14431177  1  -1.162169  0  -0.323968  -0.547695  0  2.27714  0
O  O166  1  0.46383998  0.83599625  0.85568531  1  -1.162312  0  -0.323975  -0.547776  0  2.276917  0
O  O167  1  0.34123949  0.29873823  0.06894723  1  -1.184933  0  -0.328707  -0.562001  0  2.365421  0
O  O168  1  0.34123716  0.70126511  0.93104497  1  -1.184842  0  -0.32876  -0.562203  0  2.365321  0
O  O169  1  0.55683481  0.15266473  0.97839742  1  -1.17281  0  -0.328201  -0.563846  0  2.339353  0
O  O170  1  0.55684151  0.84733939  0.02160411  1  -1.172703  0  -0.328131  -0.563778  0  2.339418  0
O  O171  1  0.84054755  0.98544141  0.11060378  1  -1.079041  0  -0.182773  -0.183754  0  2.582587  0
O  O172  1  0.84054552  0.01456369  0.88939675  1  -1.079025  0  -0.182686  -0.183681  0  2.582679  0
O  O173  1  0.15328994  0.24823334  0.10996547  1  -1.187202  0  -0.3258  -0.550186  0  2.148545  0
O  O174  1  0.15328234  0.75175884  0.89002023  1  -1.187202  0  -0.325971  -0.550371  0  2.148317  0
O  O175  1  0.17552901  0.39497059  0.02029538  1  -1.07157  0  -0.175275  -0.169686  0  2.599263  0
O  O176  1  0.17553652  0.60503369  0.97969969  1  -1.071342  0  -0.175296  -0.169729  0  2.599264  0
O  O177  1  0.75686357  0.87150339  0.97164966  1  -1.198169  0  -0.304075  -0.541165  0  2.196288  0
O  O178  1  0.75685452  0.12850602  0.02835215  1  -1.198034  0  -0.304106  -0.541243  0  2.196274  0
