# generated using pymatgen
data_Zn2H16C25N8O3F
_symmetry_space_group_name_H-M   'P 1'
_cell_length_a   15.18118629
_cell_length_b   15.16703081
_cell_length_c   22.80684201
_cell_angle_alpha   90.00020971
_cell_angle_beta   90.00397531
_cell_angle_gamma   82.27926837
_symmetry_Int_Tables_number   1
_chemical_formula_structural   Zn2H16C25N8O3F
_chemical_formula_sum   'Zn8 H64 C100 N32 O12 F4'
_cell_volume   5203.75028779
_cell_formula_units_Z   4
loop_
 _symmetry_equiv_pos_site_id
 _symmetry_equiv_pos_as_xyz
  1  'x, y, z'
loop_
 _atom_site_type_symbol
 _atom_site_label
 _atom_site_symmetry_multiplicity
 _atom_site_fract_x
 _atom_site_fract_y
 _atom_site_fract_z
 _atom_site_occupancy
 _atom_site_pbe_bader_charge
 _atom_site_pbe_bader_spin_density
 _atom_site_pbe_cm5_charge
 _atom_site_pbe_ddec_charge
 _atom_site_pbe_ddec_spin_density
 _atom_site_pbe_ddec_sum_bond_order
 _atom_site_pbe_magmom
Zn  Zn0  1  0.46755975  0.43348496  0.58067519  1  1.186232  0  0.752665  0.639714  0  2.462777  0
Zn  Zn1  1  0.59936669  0.58711659  0.57714161  1  1.196881  0  0.74827  0.657981  0  2.368292  0
Zn  Zn2  1  0.90068363  0.91286368  0.07703129  1  1.197343  0  0.74798  0.657817  0  2.36837  0
Zn  Zn3  1  0.03240045  0.06652428  0.08068406  1  1.185852  0  0.752723  0.639389  0  2.463606  0
Zn  Zn4  1  0.59949931  0.58737611  0.42812581  1  1.200124  0  0.746217  0.674285  0  2.28189  0
Zn  Zn5  1  0.45232919  0.44768544  0.43688448  1  1.191251  0  0.743127  0.64052  0  2.394278  0
Zn  Zn6  1  0.04769635  0.05231978  0.93692063  1  1.192467  0  0.743  0.640392  0  2.393825  0
Zn  Zn7  1  0.90058024  0.91257086  0.92806230  1  1.201017  0  0.746151  0.674087  0  2.283019  0
H  H8  1  0.97599643  0.47068053  0.40606121  1  0.041814  0  0.091695  0.09546  0  0.990361  0
H  H9  1  0.13748497  0.56253366  0.37585262  1  0.029838  0  0.086058  0.086254  0  1.032946  0
H  H10  1  0.36242857  0.93738726  0.87580201  1  0.028133  0  0.085877  0.086084  0  1.032738  0
H  H11  1  0.52414923  0.02897268  0.90586590  1  0.043984  0  0.091531  0.095401  0  0.989693  0
H  H12  1  0.97377740  0.57632367  0.37047419  1  0.033504  0  0.08999  0.094668  0  0.995715  0
H  H13  1  0.14207838  0.45764810  0.41211675  1  0.053183  0  0.090731  0.095426  0  0.989705  0
H  H14  1  0.35808627  0.04227564  0.91202563  1  0.053612  0  0.090887  0.095626  0  0.989963  0
H  H15  1  0.52615678  0.92328247  0.87035949  1  0.030888  0  0.090369  0.095211  0  0.996229  0
H  H16  1  0.19620976  0.66352232  0.34004159  1  0.058155  0  0.101525  0.115184  0  1.033123  0
H  H17  1  0.83747324  0.33605920  0.29802466  1  0.05294  0  0.106449  0.1259  0  0.990023  0
H  H18  1  0.66238243  0.16408895  0.79826584  1  0.046868  0  0.106279  0.125629  0  0.990173  0
H  H19  1  0.30372117  0.83653293  0.83997533  1  0.059765  0  0.101703  0.115342  0  1.033024  0
H  H20  1  0.86808144  0.30155701  0.66831806  1  0.042008  0  0.10216  0.103878  0  0.996573  0
H  H21  1  0.23463921  0.60197491  0.70321001  1  0.04561  0  0.093393  0.086108  0  1.03753  0
H  H22  1  0.26526754  0.89797996  0.20318771  1  0.04731  0  0.093312  0.086344  0  1.037637  0
H  H23  1  0.63175188  0.19836360  0.16821179  1  0.053677  0  0.102189  0.103505  0  0.99676  0
H  H24  1  0.38784266  0.79602389  0.24630113  1  0.059826  0  0.098294  0.104025  0  1.003357  0
H  H25  1  0.57546022  0.26903843  0.26076819  1  0.046963  0  0.097477  0.103188  0  1.008238  0
H  H26  1  0.92442227  0.23089287  0.76087673  1  0.045413  0  0.097562  0.103173  0  1.008516  0
H  H27  1  0.11207852  0.70397454  0.74627336  1  0.059449  0  0.098437  0.104395  0  1.00342  0
H  H28  1  0.48186864  0.92250366  0.59736706  1  0.042465  0  0.097677  0.102868  0  1.003082  0
H  H29  1  0.46260011  0.08580560  0.59432521  1  0.046898  0  0.095918  0.099701  0  1.015801  0
H  H30  1  0.03695323  0.41431659  0.09427366  1  0.046789  0  0.095971  0.10004  0  1.015501  0
H  H31  1  0.01788544  0.57762175  0.09735294  1  0.039431  0  0.097408  0.102328  0  1.003098  0
H  H32  1  0.49343613  0.72329831  0.32701640  1  0.106052  0  0.112841  0.105103  0  1.017544  0
H  H33  1  0.55387807  0.28206278  0.37003062  1  0.088853  0  0.11207  0.10104  0  1.020098  0
H  H34  1  0.94608573  0.21798321  0.87015837  1  0.087757  0  0.112095  0.100879  0  1.02055  0
H  H35  1  0.00647138  0.77680981  0.82688774  1  0.105799  0  0.112847  0.105125  0  1.017132  0
H  H36  1  0.43314878  0.74994094  0.59906173  1  0.070141  0  0.115601  0.108084  0  1.014341  0
H  H37  1  0.40875503  0.23163570  0.60265425  1  0.113375  0  0.123992  0.115397  0  0.986091  0
H  H38  1  0.09096826  0.26843123  0.10277860  1  0.111995  0  0.12386  0.11533  0  0.985959  0
H  H39  1  0.06689757  0.75019073  0.09906691  1  0.070636  0  0.115625  0.107847  0  1.014378  0
H  H40  1  0.27730293  0.58208449  0.42592431  1  0.122029  0  0.111862  0.094861  0  1.065023  0
H  H41  1  0.81873163  0.59736084  0.41390576  1  0.053844  0  0.114435  0.099467  0  1.015712  0
H  H42  1  0.68142720  0.90239684  0.91376591  1  0.054505  0  0.114372  0.099403  0  1.015849  0
H  H43  1  0.22269511  0.91790339  0.92593754  1  0.122811  0  0.111874  0.094782  0  1.065153  0
H  H44  1  0.27958678  0.54860513  0.61408909  1  0.052312  0  0.109888  0.095034  0  1.044563  0
H  H45  1  0.79678931  0.63485585  0.60145678  1  0.077244  0  0.116446  0.10646  0  1.001383  0
H  H46  1  0.70328675  0.86498321  0.10133048  1  0.080179  0  0.116471  0.106327  0  1.000826  0
H  H47  1  0.22050748  0.95157794  0.11409106  1  0.046375  0  0.110054  0.095026  0  1.044385  0
H  H48  1  0.30992285  0.52951316  0.33488544  1  0.065521  0  0.115777  0.099625  0  1.004261  0
H  H49  1  0.74660332  0.46664980  0.35433443  1  0.077114  0  0.116126  0.10156  0  1.008392  0
H  H50  1  0.75330922  0.03344162  0.85450958  1  0.076569  0  0.116112  0.101904  0  1.007893  0
H  H51  1  0.19009877  0.97046048  0.83491788  1  0.065471  0  0.115751  0.099558  0  1.004469  0
H  H52  1  0.50689159  0.70400590  0.68883279  1  0.096083  0  0.121464  0.109443  0  0.992734  0
H  H53  1  0.59750419  0.25457978  0.58188187  1  0.121876  0  0.12081  0.117568  0  0.996475  0
H  H54  1  0.90237488  0.24538625  0.08180774  1  0.122923  0  0.120753  0.11768  0  0.996215  0
H  H55  1  0.99297645  0.79600915  0.18882567  1  0.096047  0  0.121619  0.109507  0  0.992844  0
H  H56  1  0.11477203  0.65471636  0.60482419  1  0.07988  0  0.093648  0.096632  0  1.012595  0
H  H57  1  0.95319227  0.66807077  0.59943576  1  0.02513  0  0.094022  0.094859  0  1.009821  0
H  H58  1  0.54693230  0.83183536  0.09935577  1  0.025236  0  0.093935  0.094859  0  1.009805  0
H  H59  1  0.38536794  0.84529291  0.10478873  1  0.081066  0  0.09348  0.096712  0  1.013011  0
H  H60  1  0.32484875  0.47668323  0.73700042  1  0.630456  0  0.342706  0.378722  0  0.866434  0
H  H61  1  0.78980271  0.43264987  0.67959498  1  0.616578  0  0.330052  0.363032  0  0.900497  0
H  H62  1  0.71000188  0.06730014  0.17940356  1  0.615868  0  0.329989  0.362885  0  0.900802  0
H  H63  1  0.17508968  0.02330712  0.23699790  1  0.631428  0  0.342647  0.378653  0  0.866368  0
H  H64  1  0.57361584  0.27604739  0.67352502  1  0.590797  0  0.300352  0.323275  0  0.97617  0
H  H65  1  0.48146428  0.68684204  0.78749792  1  0.597781  0  0.318431  0.345897  0  0.922495  0
H  H66  1  0.01846378  0.81321302  0.28745404  1  0.595584  0  0.318309  0.345869  0  0.922372  0
H  H67  1  0.92621017  0.22403899  0.17333112  1  0.588726  0  0.300711  0.325792  0  0.97541  0
H  H68  1  0.33878399  0.14179476  0.40600264  1  0.653426  0  0.306957  0.355132  0  0.956457  0
H  H69  1  0.32359210  0.95263251  0.39138264  1  0.623499  0  0.325223  0.361169  0  0.903899  0
H  H70  1  0.17702266  0.54744656  0.89165208  1  0.627661  0  0.325445  0.362193  0  0.902782  0
H  H71  1  0.16156634  0.35822228  0.90616703  1  0.643838  0  0.306822  0.354932  0  0.957148  0
C  C72  1  0.41869259  0.51936461  0.69450684  1  0.972533  0  0.174925  0.346663  0  4.120701  0
C  C73  1  0.70401469  0.41900892  0.62126115  1  1.018768  0  0.186748  0.36706  0  4.084327  0
C  C74  1  0.79585012  0.08093652  0.12111582  1  1.020148  0  0.186687  0.367458  0  4.083338  0
C  C75  1  0.08127921  0.98059945  0.19446804  1  0.972647  0  0.175022  0.346626  0  4.120946  0
C  C76  1  0.37218660  0.65407231  0.31869348  1  -0.011555  0  -0.037613  -0.04167  0  4.07074  0
C  C77  1  0.66726691  0.35300348  0.34015897  1  -0.017237  0  -0.033872  -0.031823  0  4.069571  0
C  C78  1  0.83261844  0.14710263  0.84034266  1  0.003456  0  -0.033217  -0.030813  0  4.068293  0
C  C79  1  0.12775746  0.84597535  0.81863889  1  -0.011496  0  -0.038048  -0.042209  0  4.07216  0
C  C80  1  0.45107145  0.81067952  0.51052744  1  0.056674  0  -0.039247  -0.125434  0  4.076225  0
C  C81  1  0.40005302  0.19346471  0.50758683  1  0.04856  0  -0.043718  -0.140727  0  4.117288  0
C  C82  1  0.09982144  0.30661310  0.00771011  1  0.046065  0  -0.043904  -0.14141  0  4.119673  0
C  C83  1  0.04915643  0.68940615  0.01053241  1  0.058538  0  -0.039378  -0.12581  0  4.075886  0
C  C84  1  0.23678690  0.57874962  0.52059625  1  -0.047893  0  -0.03296  -0.025338  0  4.081981  0
C  C85  1  0.84981863  0.61661136  0.50930766  1  0.034078  0  -0.036331  -0.031104  0  4.098829  0
C  C86  1  0.65028447  0.88316634  0.00916824  1  0.03266  0  -0.036768  -0.031809  0  4.100817  0
C  C87  1  0.26328801  0.92131325  0.02059879  1  -0.047558  0  -0.032802  -0.025176  0  4.081318  0
C  C88  1  0.09397439  0.57257973  0.46945778  1  -0.036144  0  -0.017596  0.022057  0  3.905518  0
C  C89  1  0.00182574  0.57957073  0.46643885  1  -0.052604  0  -0.018972  0.019742  0  3.903843  0
C  C90  1  0.49823182  0.92021793  0.96632679  1  -0.057869  0  -0.018935  0.019925  0  3.903219  0
C  C91  1  0.40607801  0.92730738  0.96938542  1  -0.033862  0  -0.018073  0.021264  0  3.906406  0
C  C92  1  0.14008026  0.59730049  0.51853703  1  0.036301  0  -0.014354  0.033424  0  4.071887  0
C  C93  1  0.94598767  0.61290795  0.51228427  1  -0.006575  0  -0.013697  0.034539  0  4.075916  0
C  C94  1  0.55410789  0.88688198  0.01216308  1  0.026189  0  -0.013942  0.034157  0  4.075907  0
C  C95  1  0.35999347  0.90268192  0.01849916  1  0.03511  0  -0.014317  0.033648  0  4.071824  0
C  C96  1  0.08450375  0.63233703  0.56502140  1  -0.021384  0  -0.101712  -0.145537  0  4.022501  0
C  C97  1  0.99173581  0.63994315  0.56187391  1  -0.04433  0  -0.10087  -0.144654  0  4.018807  0
C  C98  1  0.50838261  0.85993389  0.06178447  1  -0.072265  0  -0.1006  -0.144265  0  4.019605  0
C  C99  1  0.41561374  0.86761518  0.06496234  1  -0.021287  0  -0.10144  -0.145723  0  4.024056  0
C  C100  1  0.00279155  0.53454288  0.40685193  1  -0.039849  0  -0.15508  -0.192808  0  3.893346  0
C  C101  1  0.10738410  0.52612594  0.41051244  1  -0.049265  0  -0.156208  -0.19371  0  3.897124  0
C  C102  1  0.39265716  0.97374655  0.91043018  1  -0.04721  0  -0.1559  -0.193371  0  3.897518  0
C  C103  1  0.49724591  0.96516766  0.90671439  1  -0.040971  0  -0.155428  -0.19346  0  3.893377  0
C  C104  1  0.21271620  0.71345837  0.30910475  1  -0.022566  0  -0.106447  -0.249518  0  3.935031  0
C  C105  1  0.79091510  0.30704658  0.26990660  1  -0.026453  0  -0.107545  -0.253675  0  3.94663  0
C  C106  1  0.70892217  0.19305643  0.77011087  1  -0.023539  0  -0.107316  -0.253138  0  3.946259  0
C  C107  1  0.28720455  0.78658770  0.80904915  1  -0.016822  0  -0.107099  -0.250088  0  3.935556  0
C  C108  1  0.67668620  0.23379143  0.71819517  1  0.464839  0  0.078138  0.278292  0  4.059954  0
C  C109  1  0.35656358  0.72752557  0.78590640  1  0.417704  0  0.075366  0.273323  0  4.074936  0
C  C110  1  0.14335466  0.77251922  0.28595044  1  0.424047  0  0.075252  0.273606  0  4.074708  0
C  C111  1  0.82313605  0.26625652  0.21800697  1  0.464931  0  0.078586  0.279386  0  4.060659  0
C  C112  1  0.73283692  0.27556712  0.68052739  1  0.048154  0  -0.034901  -0.04103  0  4.069839  0
C  C113  1  0.33964717  0.66023282  0.74630763  1  0.020484  0  -0.040915  -0.051269  0  4.10342  0
C  C114  1  0.16027606  0.83976580  0.24631772  1  0.018855  0  -0.041184  -0.052221  0  4.103614  0
C  C115  1  0.76699814  0.22440367  0.18037541  1  0.041385  0  -0.03506  -0.041216  0  4.070161  0
C  C116  1  0.45968584  0.66554206  0.33365135  1  0.430018  0  0.005014  -0.043552  0  3.991222  0
C  C117  1  0.59390280  0.33600550  0.37376956  1  0.440487  0  0.004785  -0.051956  0  3.967747  0
C  C118  1  0.90605447  0.16404915  0.87390095  1  0.416738  0  0.005044  -0.051101  0  3.966433  0
C  C119  1  0.04023270  0.83455335  0.83354442  1  0.430099  0  0.005392  -0.043098  0  3.991669  0
C  C120  1  0.82210467  0.27373182  0.69774549  1  -0.115426  0  -0.105331  -0.146564  0  4.082414  0
C  C121  1  0.25001012  0.65227631  0.73446806  1  -0.066595  0  -0.106939  -0.138395  0  4.075491  0
C  C122  1  0.24990726  0.84771280  0.23447098  1  -0.062697  0  -0.106792  -0.138913  0  4.076106  0
C  C123  1  0.67773943  0.22622504  0.19761408  1  -0.130146  0  -0.105481  -0.146008  0  4.083635  0
C  C124  1  0.31946691  0.78931116  0.25801730  1  -0.051228  0  -0.109329  -0.161078  0  4.022872  0
C  C125  1  0.64556640  0.26652518  0.24964788  1  0.015777  0  -0.110347  -0.164564  0  4.031179  0
C  C126  1  0.85429799  0.23345770  0.74978265  1  0.025794  0  -0.110386  -0.164312  0  4.029946  0
C  C127  1  0.18045317  0.71070170  0.75799007  1  -0.049409  0  -0.109473  -0.162155  0  4.022934  0
C  C128  1  0.30167881  0.71898252  0.29448510  1  0.058324  0  -0.004578  0.117408  0  4.056724  0
C  C129  1  0.70207444  0.30755240  0.28677521  1  0.055655  0  -0.007957  0.108768  0  4.072599  0
C  C130  1  0.79777785  0.19252869  0.78695408  1  0.047106  0  -0.008618  0.108026  0  4.072237  0
C  C131  1  0.19824406  0.78105296  0.79443635  1  0.060908  0  -0.004113  0.118353  0  4.056534  0
C  C132  1  0.36817288  0.04711433  0.46373259  1  0.501763  0  0.056058  0.128994  0  4.067368  0
C  C133  1  0.37886918  0.95333412  0.46574745  1  0.440859  0  0.069583  0.162858  0  4.058303  0
C  C134  1  0.12132967  0.54668040  0.96588784  1  0.560493  0  0.069111  0.162346  0  4.059182  0
C  C135  1  0.13198186  0.45290000  0.96387918  1  0.380612  0  0.056631  0.129994  0  4.066395  0
C  C136  1  0.42228420  0.90671886  0.51303911  1  0.067977  0  -0.022322  0.009214  0  4.045286  0
C  C137  1  0.39964004  0.09698519  0.50914149  1  0.054845  0  -0.032123  -0.008687  0  4.098258  0
C  C138  1  0.10026494  0.40308622  0.00922908  1  0.074355  0  -0.032268  -0.009014  0  4.098452  0
C  C139  1  0.07779301  0.59334109  0.01311351  1  0.083286  0  -0.022277  0.008572  0  4.045526  0
C  C140  1  0.44778370  0.95727366  0.56028843  1  0.026887  0  -0.106895  -0.14538  0  4.073606  0
C  C141  1  0.43707413  0.04933608  0.55837220  1  -0.068031  0  -0.113261  -0.153529  0  4.071195  0
C  C142  1  0.06263769  0.45077938  0.05838025  1  -0.086298  0  -0.113565  -0.154507  0  4.071236  0
C  C143  1  0.05202732  0.54283794  0.06030514  1  0.018204  0  -0.1064  -0.143705  0  4.072906  0
C  C144  1  0.45855681  0.74509571  0.55455381  1  0.406514  0  0.007542  -0.038426  0  3.965932  0
C  C145  1  0.40881393  0.24872737  0.55642576  1  0.433788  0  0.013932  -0.035584  0  3.995285  0
C  C146  1  0.09098875  0.25135600  0.05654318  1  0.431554  0  0.014179  -0.034841  0  3.99459  0
C  C147  1  0.04157544  0.75501508  0.05453665  1  0.404534  0  0.007704  -0.037223  0  3.965362  0
C  C148  1  0.29277015  0.56729144  0.47145943  1  0.380928  0  0.007487  -0.041471  0  3.946113  0
C  C149  1  0.79777852  0.60687811  0.45922597  1  0.433714  0  0.006419  -0.047564  0  3.991033  0
C  C150  1  0.70234229  0.89286424  0.95909393  1  0.43153  0  0.006486  -0.047288  0  3.991216  0
C  C151  1  0.20727217  0.93273371  0.97147071  1  0.381246  0  0.007548  -0.041238  0  3.945554  0
C  C152  1  0.49534112  0.76452643  0.46363732  1  1.053223  0  0.205143  0.341493  0  4.064584  0
C  C153  1  0.40383648  0.25443192  0.46173077  1  0.942414  0  0.190573  0.296474  0  4.089995  0
C  C154  1  0.09613626  0.24564486  0.96184493  1  0.945723  0  0.190686  0.296739  0  4.090202  0
C  C155  1  0.00504260  0.73554502  0.96357299  1  1.044643  0  0.205554  0.342168  0  4.065599  0
C  C156  1  0.29402627  0.55244932  0.56768966  1  0.454296  0  0.008542  -0.041164  0  3.948193  0
C  C157  1  0.78680166  0.62809656  0.55465189  1  0.413552  0  0.005793  -0.045893  0  3.987483  0
C  C158  1  0.71329170  0.87172621  0.05452662  1  0.41266  0  0.005925  -0.045243  0  3.988108  0
C  C159  1  0.20606589  0.94765765  0.06769158  1  0.459774  0  0.008258  -0.041382  0  3.947268  0
C  C160  1  0.36530087  0.56771414  0.33875776  1  0.426601  0  0.002935  -0.056125  0  4.015417  0
C  C161  1  0.69291653  0.42950366  0.36636444  1  0.404873  0  0.007122  -0.050899  0  3.969684  0
C  C162  1  0.80701924  0.07056744  0.86652103  1  0.388367  0  0.006703  -0.052043  0  3.96888  0
C  C163  1  0.13468446  0.93230282  0.83874808  1  0.425392  0  0.002947  -0.056162  0  4.015698  0
C  C164  1  0.48580631  0.63834008  0.68687168  1  0.397303  0  0.005441  -0.052467  0  4.052909  0
C  C165  1  0.62548312  0.31527697  0.59178691  1  0.310531  0  -0.006041  -0.075791  0  4.035312  0
C  C166  1  0.87440841  0.18467658  0.09169632  1  0.30516  0  -0.006308  -0.076449  0  4.035565  0
C  C167  1  0.01411148  0.86165388  0.18685251  1  0.396452  0  0.005316  -0.052905  0  4.051835  0
C  C168  1  0.41248590  0.60778930  0.71459793  1  0.016923  0  -0.058922  -0.186013  0  4.156523  0
C  C169  1  0.69381294  0.32879268  0.63109936  1  0.025491  0  -0.051598  -0.160994  0  4.112714  0
C  C170  1  0.80603384  0.17116054  0.13096205  1  0.031515  0  -0.05149  -0.161655  0  4.113112  0
C  C171  1  0.08744053  0.89219180  0.21458506  1  0.017962  0  -0.058728  -0.184843  0  4.154557  0
N  N172  1  0.48719394  0.49948515  0.65738136  1  -0.788216  0  -0.28875  -0.294313  0  3.433376  0
N  N173  1  0.64701367  0.45534421  0.58041991  1  -0.804655  0  -0.28679  -0.274773  0  3.493816  0
N  N174  1  0.85291683  0.04460143  0.08031577  1  -0.805756  0  -0.287316  -0.275463  0  3.494078  0
N  N175  1  0.01278893  0.00048115  0.15732924  1  -0.788528  0  -0.289028  -0.293862  0  3.434319  0
N  N176  1  0.50031235  0.59360201  0.36222894  1  -0.779771  0  -0.26953  -0.199115  0  3.490674  0
N  N177  1  0.57657238  0.39871288  0.41572877  1  -0.79632  0  -0.286527  -0.186795  0  3.608792  0
N  N178  1  0.92345388  0.10128671  0.91582096  1  -0.798339  0  -0.286444  -0.187318  0  3.610266  0
N  N179  1  0.99963132  0.90648047  0.86213995  1  -0.779836  0  -0.269818  -0.199417  0  3.491601  0
N  N180  1  0.50303415  0.66758609  0.53424662  1  -0.765507  0  -0.283636  -0.190812  0  3.589823  0
N  N181  1  0.41730670  0.33205059  0.53976840  1  -0.789692  0  -0.270644  -0.16101  0  3.555535  0
N  N182  1  0.08256385  0.16802371  0.03986625  1  -0.792103  0  -0.270791  -0.161539  0  3.556791  0
N  N183  1  0.99714790  0.83251571  0.03417088  1  -0.765079  0  -0.283707  -0.19147  0  3.590673  0
N  N184  1  0.37620611  0.53466809  0.48794384  1  -0.807179  0  -0.28521  -0.189174  0  3.598447  0
N  N185  1  0.71125982  0.61288694  0.47356918  1  -0.816366  0  -0.27322  -0.197787  0  3.552923  0
N  N186  1  0.78886179  0.88688190  0.97345746  1  -0.817897  0  -0.272446  -0.196758  0  3.55181  0
N  N187  1  0.12384870  0.96537813  0.98795754  1  -0.808151  0  -0.285697  -0.189515  0  3.598611  0
N  N188  1  0.52488949  0.68020469  0.47698201  1  -0.819873  0  -0.28843  -0.298849  0  3.611486  0
N  N189  1  0.41405478  0.33615691  0.47952409  1  -0.779522  0  -0.270595  -0.27913  0  3.493192  0
N  N190  1  0.08591271  0.16391186  0.97962382  1  -0.775585  0  -0.270555  -0.278967  0  3.492396  0
N  N191  1  0.97543767  0.81987180  0.97687899  1  -0.813088  0  -0.28865  -0.299114  0  3.612409  0
N  N192  1  0.37666742  0.52574285  0.54731323  1  -0.780185  0  -0.288888  -0.189806  0  3.642314  0
N  N193  1  0.70441958  0.62606679  0.53326118  1  -0.77303  0  -0.277433  -0.185554  0  3.54794  0
N  N194  1  0.79568423  0.87375563  0.03315735  1  -0.771889  0  -0.277746  -0.186331  0  3.548587  0
N  N195  1  0.12341803  0.97436107  0.04732059  1  -0.779827  0  -0.288304  -0.189057  0  3.641464  0
N  N196  1  0.44119196  0.53198947  0.36511997  1  -0.805534  0  -0.279028  -0.195985  0  3.521633  0
N  N197  1  0.63734945  0.45691483  0.41094667  1  -0.781442  0  -0.27925  -0.185166  0  3.566568  0
N  N198  1  0.86266980  0.04308985  0.91105636  1  -0.761146  0  -0.279545  -0.185345  0  3.566707  0
N  N199  1  0.05879652  0.96804838  0.86509680  1  -0.806001  0  -0.278773  -0.195614  0  3.520463  0
N  N200  1  0.52947710  0.57486369  0.65275558  1  -0.804169  0  -0.281363  -0.183572  0  3.54775  0
N  N201  1  0.59676266  0.39150389  0.56188880  1  -0.766684  0  -0.299823  -0.215188  0  3.521035  0
N  N202  1  0.90318433  0.10844721  0.06182027  1  -0.763438  0  -0.299223  -0.213938  0  3.520347  0
N  N203  1  0.97047836  0.92512388  0.15270612  1  -0.806092  0  -0.281195  -0.183814  0  3.546932  0
O  O204  1  0.36584453  0.45557580  0.70554919  1  -1.156667  0  -0.351793  -0.460301  0  2.247755  0
O  O205  1  0.75814215  0.46957339  0.64901540  1  -1.143533  0  -0.343635  -0.452846  0  2.280083  0
O  O206  1  0.74167878  0.03038252  0.14883176  1  -1.143363  0  -0.343501  -0.452661  0  2.279511  0
O  O207  1  0.13416551  0.04436339  0.20549215  1  -1.156959  0  -0.351632  -0.460253  0  2.24835  0
O  O208  1  0.58832054  0.23451971  0.70622859  1  -1.13816  0  -0.368534  -0.445471  0  2.260743  0
O  O209  1  0.44147657  0.73786515  0.80244393  1  -1.12873  0  -0.363738  -0.447147  0  2.24557  0
O  O210  1  0.05843238  0.76224083  0.30249640  1  -1.12626  0  -0.363591  -0.447094  0  2.245059  0
O  O211  1  0.91149706  0.26555158  0.20604081  1  -1.135986  0  -0.36925  -0.448898  0  2.258288  0
O  O212  1  0.32450611  0.08214037  0.41407441  1  -1.17523  0  -0.375823  -0.47486  0  2.312411  0
O  O213  1  0.34795285  0.90798514  0.42013122  1  -1.125019  0  -0.352947  -0.429293  0  2.297809  0
O  O214  1  0.15244180  0.59205282  0.92035511  1  -1.131407  0  -0.352881  -0.430205  0  2.297679  0
O  O215  1  0.17587744  0.41784159  0.91431320  1  -1.16589  0  -0.375696  -0.474708  0  2.312759  0
F  F216  1  0.51609538  0.79809789  0.41163139  1  -0.644456  0  -0.083903  -0.139997  0  1.392554  0
F  F217  1  0.39923577  0.23927328  0.40273320  1  -0.658208  0  -0.078378  -0.146245  0  1.362419  0
F  F218  1  0.10079741  0.26084262  0.90285861  1  -0.656973  0  -0.078652  -0.146408  0  1.361564  0
F  F219  1  0.98448181  0.70195116  0.91153376  1  -0.644828  0  -0.083778  -0.139998  0  1.393593  0
