# generated using pymatgen
data_TbH20C21N4O9
_symmetry_space_group_name_H-M   'P 1'
_cell_length_a   9.89791934
_cell_length_b   11.42823964
_cell_length_c   13.47504537
_cell_angle_alpha   67.51435469
_cell_angle_beta   86.42256924
_cell_angle_gamma   76.37898419
_symmetry_Int_Tables_number   1
_chemical_formula_structural   TbH20C21N4O9
_chemical_formula_sum   'Tb2 H40 C42 N8 O18'
_cell_volume   1368.10015269
_cell_formula_units_Z   2
loop_
 _symmetry_equiv_pos_site_id
 _symmetry_equiv_pos_as_xyz
  1  'x, y, z'
loop_
 _atom_site_type_symbol
 _atom_site_label
 _atom_site_symmetry_multiplicity
 _atom_site_fract_x
 _atom_site_fract_y
 _atom_site_fract_z
 _atom_site_occupancy
 _atom_site_pbe_bader_charge
 _atom_site_pbe_bader_spin_density
 _atom_site_pbe_cm5_charge
 _atom_site_pbe_ddec_charge
 _atom_site_pbe_ddec_spin_density
 _atom_site_pbe_ddec_sum_bond_order
 _atom_site_pbe_magmom
Tb  Tb0  1  0.23631235  0.52952704  0.00264298  1  2.202141  0  1.495472  2.118661  0  2.144134  0
Tb  Tb1  1  0.76368901  0.47047318  0.99735739  1  2.202266  0  1.495497  2.118646  0  2.144115  0
H  H2  1  0.00576882  0.87527729  0.54351718  1  0.103002  0  0.107382  0.075635  0  1.020452  0
H  H3  1  0.99423041  0.12472774  0.45647354  1  0.102598  0  0.10744  0.075658  0  1.020486  0
H  H4  1  0.96263732  0.75107638  0.73495210  1  0.109245  0  0.110321  0.121802  0  1.025101  0
H  H5  1  0.03736361  0.24892183  0.26503856  1  0.109119  0  0.110325  0.121773  0  1.025177  0
H  H6  1  0.54632253  0.99201988  0.68417663  1  0.120864  0  0.109035  0.117732  0  1.030321  0
H  H7  1  0.45367448  0.00797349  0.31582096  1  0.120805  0  0.109039  0.117663  0  1.030416  0
H  H8  1  0.70391594  0.16578035  0.33371206  1  0.142023  0  0.116148  0.13142  0  1.0007  0
H  H9  1  0.29608393  0.83422182  0.66628847  1  0.142003  0  0.116137  0.131407  0  1.000706  0
H  H10  1  0.29400540  0.41737080  0.29468814  1  0.118571  0  0.106861  0.110931  0  1.05117  0
H  H11  1  0.70599451  0.58263527  0.70531186  1  0.118616  0  0.106885  0.110926  0  1.051175  0
H  H12  1  0.26693948  0.30790722  0.49301473  1  0.07202  0  0.107955  0.078659  0  0.996662  0
H  H13  1  0.73305987  0.69209300  0.50698424  1  0.072029  0  0.107955  0.078682  0  0.996597  0
H  H14  1  0.24439154  0.63429217  0.20648738  1  0.09612  0  0.125274  0.049037  0  1.039445  0
H  H15  1  0.75559824  0.36571390  0.79351379  1  0.096152  0  0.125305  0.049124  0  1.039348  0
H  H16  1  0.25740061  0.86807316  0.28550917  1  0.060554  0  0.103053  0.122126  0  0.994936  0
H  H17  1  0.74259471  0.13193097  0.71449240  1  0.060682  0  0.103106  0.122196  0  0.994884  0
H  H18  1  0.43186560  0.77466417  0.30556594  1  0.090218  0  0.107369  0.126594  0  0.987906  0
H  H19  1  0.56812847  0.22534092  0.69443463  1  0.090209  0  0.107387  0.126588  0  0.98788  0
H  H20  1  0.28990857  0.69520151  0.32884982  1  0.094742  0  0.106832  0.118145  0  1.027318  0
H  H21  1  0.71008775  0.30480262  0.67115245  1  0.090111  0  0.106839  0.118152  0  1.027343  0
H  H22  1  0.49067178  0.88880930  0.10930324  1  0.074685  0  0.113227  0.132945  0  0.964529  0
H  H23  1  0.50932947  0.11118706  0.89070359  1  0.07471  0  0.113225  0.133005  0  0.964344  0
H  H24  1  0.32192637  0.99292215  0.08637727  1  0.087008  0  0.10408  0.120462  0  1.000148  0
H  H25  1  0.67808104  0.00707809  0.91362582  1  0.087098  0  0.104084  0.12045  0  1.000105  0
H  H26  1  0.37762489  0.89368505  0.00813548  1  0.09505  0  0.11716  0.14328  0  0.989882  0
H  H27  1  0.62237924  0.10631616  0.99186668  1  0.094955  0  0.117179  0.14329  0  0.989914  0
H  H28  1  0.90209429  0.44884491  0.66815223  1  0.108826  0  0.105622  0.108045  0  1.057686  0
H  H29  1  0.09791194  0.55114366  0.33185398  1  0.108388  0  0.10562  0.108022  0  1.057725  0
H  H30  1  0.25436313  0.57111408  0.73509134  1  0.127803  0  0.113505  0.117461  0  1.045897  0
H  H31  1  0.74563974  0.42888418  0.26490738  1  0.127743  0  0.113518  0.117473  0  1.045874  0
H  H32  1  0.32254037  0.61223357  0.54432884  1  0.077795  0  0.108223  0.07662  0  0.995339  0
H  H33  1  0.67745698  0.38776662  0.45566725  1  0.077778  0  0.108226  0.076576  0  0.99534  0
H  H34  1  0.96036130  0.70990989  0.91460011  1  0.65865  0  0.30157  0.402267  0  0.93409  0
H  H35  1  0.03964156  0.29008837  0.08539935  1  0.658648  0  0.30153  0.402231  0  0.934134  0
H  H36  1  0.04787838  0.78315866  0.95819423  1  0.625392  0  0.330381  0.415471  0  0.870493  0
H  H37  1  0.95212337  0.21683574  0.04181099  1  0.625332  0  0.330344  0.415365  0  0.870628  0
H  H38  1  0.48944159  0.39466472  0.93682047  1  0.618858  0  0.301279  0.379777  0  0.962545  0
H  H39  1  0.51056335  0.60534137  0.06318229  1  0.618877  0  0.301291  0.379805  0  0.962541  0
H  H40  1  0.41037341  0.28703880  0.01111978  1  0.652596  0  0.289709  0.382572  0  0.965109  0
H  H41  1  0.58963404  0.71296535  0.98888351  1  0.652684  0  0.289647  0.382499  0  0.965202  0
C  C42  1  0.71385340  0.78810724  0.83814596  1  1.579813  0  0.219393  0.585922  0  4.182139  0
C  C43  1  0.28614742  0.21188711  0.16185116  1  1.579642  0  0.219419  0.58593  0  4.181926  0
C  C44  1  0.90419595  0.89831417  0.57688753  1  0.466312  0  0.04101  0.093161  0  4.000753  0
C  C45  1  0.09580074  0.10168891  0.42310245  1  0.466779  0  0.040896  0.093054  0  4.000769  0
C  C46  1  0.88057125  0.82872532  0.68420607  1  0.013231  0  -0.082984  -0.142034  0  3.932502  0
C  C47  1  0.11942894  0.17127583  0.31578588  1  0.013331  0  -0.0829  -0.141862  0  3.932603  0
C  C48  1  0.74980916  0.86208592  0.72465955  1  -0.116177  0  -0.009752  -0.010855  0  3.984153  0
C  C49  1  0.25018738  0.13790940  0.27533743  1  -0.11579  0  -0.0098  -0.010953  0  3.984393  0
C  C50  1  0.64956505  0.96408873  0.65589457  1  -0.008992  0  -0.076173  -0.173739  0  3.939175  0
C  C51  1  0.35043228  0.03590754  0.34409909  1  -0.009433  0  -0.07611  -0.173557  0  3.939198  0
C  C52  1  0.68326006  0.02983228  0.54951980  1  0.531113  0  0.116017  0.166223  0  4.003948  0
C  C53  1  0.31673857  0.97016692  0.45047433  1  0.531095  0  0.116071  0.166283  0  4.003795  0
C  C54  1  0.57949932  0.14078646  0.47530573  1  0.538576  0  0.118524  0.166865  0  3.99465  0
C  C55  1  0.42049902  0.85921375  0.52469255  1  0.53873  0  0.118483  0.166777  0  3.994799  0
C  C56  1  0.60564511  0.19998747  0.36585114  1  -0.098223  0  -0.067978  -0.153916  0  3.879183  0
C  C57  1  0.39435399  0.80001372  0.63414827  1  -0.098205  0  -0.067962  -0.153844  0  3.879254  0
C  C58  1  0.50301397  0.30229209  0.29961390  1  -0.007969  0  -0.00257  -0.005436  0  3.942796  0
C  C59  1  0.49698719  0.69771300  0.70038637  1  -0.008561  0  -0.002557  -0.005507  0  3.942987  0
C  C60  1  0.37777737  0.34101009  0.34493058  1  -0.089018  0  -0.082447  -0.149369  0  3.947134  0
C  C61  1  0.62222098  0.65899403  0.65507086  1  -0.089021  0  -0.082461  -0.149322  0  3.947072  0
C  C62  1  0.36240478  0.27833595  0.45493714  1  0.560081  0  0.040632  0.095461  0  4.014179  0
C  C63  1  0.63758980  0.72166718  0.54506182  1  0.560195  0  0.040626  0.095431  0  4.01419  0
C  C64  1  0.52548916  0.37233046  0.18228472  1  1.593625  0  0.240884  0.656054  0  4.120718  0
C  C65  1  0.47451303  0.62767463  0.81771403  1  1.594011  0  0.240866  0.656017  0  4.120811  0
C  C66  1  0.28082399  0.70969896  0.13870261  1  1.373828  0  0.178051  0.309277  0  4.095877  0
C  C67  1  0.71916751  0.29030419  0.86130018  1  1.373864  0  0.177989  0.309056  0  4.096177  0
C  C68  1  0.32698379  0.78175825  0.27781149  1  0.23603  0  -0.129312  -0.274905  0  3.88623  0
C  C69  1  0.67301683  0.21824491  0.72219092  1  0.240405  0  -0.129363  -0.274991  0  3.886282  0
C  C70  1  0.38237075  0.89863744  0.08732785  1  0.233863  0  -0.128905  -0.270127  0  3.874006  0
C  C71  1  0.61763032  0.10136378  0.91267740  1  0.233856  0  -0.128935  -0.270211  0  3.873755  0
C  C72  1  0.02118568  0.48522249  0.82781906  1  1.609652  0  0.239224  0.653022  0  4.153536  0
C  C73  1  0.97881479  0.51476897  0.17218495  1  1.609459  0  0.239174  0.653059  0  4.153439  0
C  C74  1  0.04053332  0.51076361  0.53901361  1  0.541705  0  0.116125  0.167517  0  4.010023  0
C  C75  1  0.95946943  0.48922688  0.46098915  1  0.503091  0  0.11614  0.16749  0  4.010133  0
C  C76  1  0.99602525  0.48482450  0.64413953  1  -0.034887  0  -0.075664  -0.161314  0  3.914246  0
C  C77  1  0.00397772  0.51516502  0.35586576  1  -0.034127  0  -0.075723  -0.161273  0  3.914378  0
C  C78  1  0.07230491  0.50637870  0.71628323  1  -0.066067  0  0.001287  0.004026  0  3.945096  0
C  C79  1  0.92769836  0.49361374  0.28371961  1  -0.066603  0  0.001296  0.003937  0  3.945148  0
C  C80  1  0.19275722  0.55227494  0.68108548  1  -0.013903  0  -0.073177  -0.13114  0  3.909494  0
C  C81  1  0.80724386  0.44772236  0.31891511  1  -0.013607  0  -0.073168  -0.131127  0  3.909529  0
C  C82  1  0.22944885  0.57548006  0.57459638  1  0.51818  0  0.043479  0.092534  0  4.001357  0
C  C83  1  0.77055145  0.42451626  0.42540457  1  0.518196  0  0.043432  0.092552  0  4.001416  0
N  N84  1  0.80893590  0.99686543  0.51033398  1  -1.186415  0  -0.31296  -0.296975  0  3.312804  0
N  N85  1  0.19105872  0.00313768  0.48966127  1  -1.186213  0  -0.313028  -0.297053  0  3.312655  0
N  N86  1  0.46021724  0.18104296  0.51938634  1  -1.183796  0  -0.31465  -0.298955  0  3.31691  0
N  N87  1  0.53977854  0.81895530  0.48061342  1  -1.183861  0  -0.314612  -0.298905  0  3.317116  0
N  N88  1  0.32833006  0.79322942  0.16627121  1  -1.209829  0  -0.274741  0.043444  0  3.710234  0
N  N89  1  0.67166778  0.20677275  0.83372942  1  -1.209673  0  -0.274751  0.043552  0  3.710143  0
N  N90  1  0.15618337  0.55617215  0.50423549  1  -1.209341  0  -0.314516  -0.304959  0  3.323695  0
N  N91  1  0.84381414  0.44382320  0.49576515  1  -1.209405  0  -0.314458  -0.304898  0  3.323675  0
O  O92  1  0.80450413  0.68434404  0.89375071  1  -1.216155  0  -0.38754  -0.677657  0  2.338003  0
O  O93  1  0.19549878  0.31565420  0.10624431  1  -1.216141  0  -0.387595  -0.677727  0  2.337707  0
O  O94  1  0.59844327  0.82873713  0.87250591  1  -1.158976  0  -0.297737  -0.517841  0  2.146556  0
O  O95  1  0.40156297  0.17126796  0.12749267  1  -1.158963  0  -0.297726  -0.517817  0  2.146586  0
O  O96  1  0.64676765  0.35246495  0.14706429  1  -1.181316  0  -0.37296  -0.625057  0  2.249794  0
O  O97  1  0.35323326  0.64754112  0.85293641  1  -1.18118  0  -0.372959  -0.625065  0  2.249826  0
O  O98  1  0.42029678  0.45397138  0.12530253  1  -1.224233  0  -0.408462  -0.717547  0  2.403061  0
O  O99  1  0.57970746  0.54603762  0.87469708  1  -1.224192  0  -0.408466  -0.71746  0  2.402927  0
O  O100  1  0.90303904  0.45775655  0.84951478  1  -1.19492  0  -0.381712  -0.667362  0  2.339014  0
O  O101  1  0.09696372  0.54223392  0.15048650  1  -1.194628  0  -0.381626  -0.667306  0  2.338962  0
O  O102  1  0.09702611  0.49842610  0.89324081  1  -1.204973  0  -0.412242  -0.67272  0  2.388059  0
O  O103  1  0.90297287  0.50156731  0.10676262  1  -1.205019  0  -0.412274  -0.672792  0  2.388018  0
O  O104  1  0.27575150  0.71298812  0.04445046  1  -1.174444  0  -0.35477  -0.544867  0  2.329621  0
O  O105  1  0.72424078  0.28701601  0.95555198  1  -1.174598  0  -0.354742  -0.544789  0  2.329788  0
O  O106  1  0.05502807  0.72420893  0.92090873  1  -1.25812  0  -0.626727  -0.831893  0  2.077957  0
O  O107  1  0.94497328  0.27579130  0.07909238  1  -1.258063  0  -0.62666  -0.831757  0  2.078118  0
O  O108  1  0.39861176  0.37211487  0.94681788  1  -1.275239  0  -0.647119  -0.854473  0  2.091057  0
O  O109  1  0.60139519  0.62789122  0.05318553  1  -1.275359  0  -0.647082  -0.854458  0  2.091028  0
