# generated using pymatgen
data_CdH22C34(NO)4
_symmetry_space_group_name_H-M   'P 1'
_cell_length_a   7.89285203
_cell_length_b   13.08010087
_cell_length_c   15.80834805
_cell_angle_alpha   110.12162684
_cell_angle_beta   97.71756971
_cell_angle_gamma   106.31166418
_symmetry_Int_Tables_number   1
_chemical_formula_structural   CdH22C34(NO)4
_chemical_formula_sum   'Cd2 H44 C68 N8 O8'
_cell_volume   1421.64565850
_cell_formula_units_Z   2
loop_
 _symmetry_equiv_pos_site_id
 _symmetry_equiv_pos_as_xyz
  1  'x, y, z'
loop_
 _atom_site_type_symbol
 _atom_site_label
 _atom_site_symmetry_multiplicity
 _atom_site_fract_x
 _atom_site_fract_y
 _atom_site_fract_z
 _atom_site_occupancy
 _atom_site_pbe_bader_charge
 _atom_site_pbe_bader_spin_density
 _atom_site_pbe_cm5_charge
 _atom_site_pbe_ddec_charge
 _atom_site_pbe_ddec_spin_density
 _atom_site_pbe_ddec_sum_bond_order
 _atom_site_pbe_magmom
Cd  Cd0  1  0.07903002  0.35202192  0.24559221  1  1.230383  0  0.765678  0.803239  0  2.257613  0
Cd  Cd1  1  0.33382201  0.10655162  0.75461698  1  1.229466  0  0.765806  0.803129  0  2.25891  0
H  H2  1  0.93130414  0.53543772  0.19523080  1  0.154328  0  0.11766  0.09325  0  1.022459  0
H  H3  1  0.23612664  0.34011906  0.80483171  1  0.149527  0  0.117845  0.093506  0  1.021609  0
H  H4  1  0.78580682  0.56842695  0.06042137  1  0.080119  0  0.106324  0.10899  0  0.996587  0
H  H5  1  0.22559119  0.50806776  0.93958739  1  0.08505  0  0.106619  0.110039  0  0.996662  0
H  H6  1  0.71190882  0.41260871  0.89799306  1  0.116344  0  0.112163  0.112698  0  0.992247  0
H  H7  1  0.31399039  0.51474853  0.10202002  1  0.106286  0  0.11176  0.112534  0  0.992803  0
H  H8  1  0.77609265  0.23319113  0.87844918  1  0.131294  0  0.107476  0.124875  0  1.053715  0
H  H9  1  0.39775796  0.35490705  0.12159056  1  0.149013  0  0.107181  0.125154  0  1.054025  0
H  H10  1  0.83541466  0.08812572  0.87256069  1  0.124561  0  0.119017  0.140649  0  0.991802  0
H  H11  1  0.46315170  0.21588955  0.12756274  1  0.102063  0  0.119246  0.141296  0  0.991313  0
H  H12  1  0.03341624  0.91774992  0.03244444  1  0.063568  0  0.104516  0.107811  0  1.038371  0
H  H13  1  0.50024307  0.88519644  0.96779057  1  0.061494  0  0.104906  0.10847  0  1.038211  0
H  H14  1  0.11085605  0.92052616  0.16004525  1  0.05522  0  0.104686  0.106431  0  1.013288  0
H  H15  1  0.44947691  0.76010951  0.84016349  1  0.057678  0  0.104863  0.106984  0  1.011196  0
H  H16  1  0.21793042  0.94002980  0.32127249  1  0.073325  0  0.112597  0.107162  0  1.009177  0
H  H17  1  0.39626196  0.61854773  0.67888927  1  0.072502  0  0.112053  0.105285  0  1.008915  0
H  H18  1  0.24740953  0.12139016  0.45550256  1  0.117463  0  0.114487  0.123942  0  1.008658  0
H  H19  1  0.29316862  0.66619462  0.54474145  1  0.11636  0  0.114517  0.123768  0  1.009079  0
H  H20  1  0.18204398  0.28329321  0.41922832  1  0.158028  0  0.118524  0.096527  0  1.028886  0
H  H21  1  0.26428756  0.86438673  0.58103849  1  0.146412  0  0.118355  0.096578  0  1.027649  0
H  H22  1  0.86801033  0.76466885  0.92253113  1  0.055243  0  0.10294  0.067689  0  1.005257  0
H  H23  1  0.44354433  0.84210328  0.07754685  1  0.04303  0  0.102523  0.067794  0  1.005095  0
H  H24  1  0.91153984  0.97353673  0.75931366  1  0.14438  0  0.109757  0.123596  0  1.027765  0
H  H25  1  0.65236143  0.21450746  0.24067528  1  0.165131  0  0.109872  0.123219  0  1.028301  0
H  H26  1  0.87425371  0.79586495  0.62300466  1  0.081446  0  0.109396  0.117475  0  1.000195  0
H  H27  1  0.75110059  0.17325653  0.37709634  1  0.110793  0  0.108948  0.117101  0  1.001121  0
H  H28  1  0.85741080  0.61277969  0.64496776  1  0.109383  0  0.109591  0.078959  0  1.034446  0
H  H29  1  0.71119592  0.96808821  0.35517721  1  0.109052  0  0.109023  0.078256  0  1.03512  0
H  H30  1  0.81098516  0.34594636  0.52488720  1  0.075289  0  0.094325  0.091523  0  1.05709  0
H  H31  1  0.78670619  0.82076640  0.47477973  1  0.079563  0  0.093783  0.090378  0  1.058895  0
H  H32  1  0.54602220  0.36016403  0.59280675  1  0.092797  0  0.095351  0.102522  0  1.04121  0
H  H33  1  0.45334752  0.76640389  0.40664997  1  0.097492  0  0.095046  0.102485  0  1.041521  0
H  H34  1  0.36837337  0.47729872  0.55341749  1  0.061912  0  0.09671  0.094569  0  1.051154  0
H  H35  1  0.31436006  0.92255466  0.44625319  1  0.040652  0  0.096364  0.093838  0  1.050871  0
H  H36  1  0.47243355  0.59031934  0.46284600  1  0.07213  0  0.099581  0.098189  0  1.030024  0
H  H37  1  0.50838842  0.12629672  0.53707088  1  0.063955  0  0.100003  0.097884  0  1.030305  0
H  H38  1  0.03442129  0.64983641  0.43949084  1  0.067699  0  0.101058  0.102236  0  1.02018  0
H  H39  1  0.09444503  0.20987857  0.56061619  1  0.06682  0  0.101545  0.102274  0  1.020899  0
H  H40  1  0.12780866  0.76533934  0.34834409  1  0.077055  0  0.101535  0.100027  0  1.020615  0
H  H41  1  0.27876711  0.41683145  0.65132885  1  0.060258  0  0.101211  0.099253  0  1.020511  0
H  H42  1  0.88899448  0.79101301  0.24302947  1  0.039728  0  0.090452  0.084  0  1.03547  0
H  H43  1  0.14536651  0.54803441  0.75646979  1  0.065373  0  0.090397  0.082949  0  1.036321  0
H  H44  1  0.56228603  0.68615802  0.22214856  1  0.071536  0  0.094441  0.088951  0  1.048305  0
H  H45  1  0.83997919  0.46396248  0.77757532  1  0.081674  0  0.094099  0.087902  0  1.048571  0
C  C46  1  0.89428000  0.47069478  0.12389940  1  0.480039  0  0.055813  0.110813  0  3.929426  0
C  C47  1  0.27037397  0.34674628  0.87615705  1  0.485581  0  0.056936  0.112906  0  3.927973  0
C  C48  1  0.81535147  0.48878892  0.04834889  1  -0.035529  0  -0.082766  -0.131115  0  3.97372  0
C  C49  1  0.26709768  0.44049029  0.95168754  1  -0.067672  0  -0.0839  -0.132884  0  3.975538  0
C  C50  1  0.77437331  0.40265737  0.95911129  1  -0.097967  0  -0.066871  -0.022588  0  3.954657  0
C  C51  1  0.31534337  0.44365598  0.04091897  1  -0.006406  0  -0.065934  -0.022449  0  3.95455  0
C  C52  1  0.81016970  0.30090300  0.94822119  1  0.016761  0  -0.08263  -0.157969  0  3.919194  0
C  C53  1  0.36207619  0.35282432  0.05183200  1  -0.066101  0  -0.081629  -0.157537  0  3.917037  0
C  C54  1  0.88587157  0.28811600  0.02752333  1  0.479685  0  0.116349  0.15693  0  3.995441  0
C  C55  1  0.35860438  0.26071859  0.97258569  1  0.503809  0  0.115221  0.157169  0  3.995793  0
C  C56  1  0.92224744  0.18071488  0.02280929  1  0.490477  0  0.125252  0.18941  0  3.99951  0
C  C57  1  0.39965908  0.15805170  0.97731748  1  0.479151  0  0.124711  0.187407  0  4.001989  0
C  C58  1  0.88964614  0.08602839  0.93879659  1  -0.005077  0  -0.073714  -0.194209  0  3.848214  0
C  C59  1  0.45096607  0.14745275  0.06133573  1  -0.007424  0  -0.075109  -0.196511  0  3.850056  0
C  C60  1  0.92736162  0.98790228  0.94076074  1  -0.034789  0  0.010415  0.12659  0  3.992104  0
C  C61  1  0.48630415  0.04726472  0.05935637  1  -0.003292  0  0.012403  0.129277  0  3.992117  0
C  C62  1  0.99606901  0.99005575  0.02828565  1  -0.030496  0  -0.084701  -0.219606  0  3.925243  0
C  C63  1  0.46739893  0.96175918  0.97189006  1  -0.038536  0  -0.085515  -0.221079  0  3.927084  0
C  C64  1  0.02253401  0.08642813  0.10956881  1  0.545613  0  0.124144  0.191039  0  4.017845  0
C  C65  1  0.41277244  0.97681265  0.89060742  1  0.534972  0  0.123714  0.189085  0  4.019336  0
C  C66  1  0.09086702  0.09242613  0.20434649  1  0.480123  0  0.11853  0.163317  0  3.982131  0
C  C67  1  0.38632804  0.88796700  0.79586551  1  0.529776  0  0.118523  0.163486  0  3.983977  0
C  C68  1  0.12791233  0.00017538  0.21858669  1  -0.010177  0  -0.081494  -0.160308  0  3.959606  0
C  C69  1  0.40867805  0.78133332  0.78162170  1  -0.00938  0  -0.081383  -0.160406  0  3.957752  0
C  C70  1  0.18698714  0.01061276  0.30920364  1  -0.001874  0  -0.060512  -0.016669  0  3.956754  0
C  C71  1  0.37761419  0.70128167  0.69099095  1  -0.085285  0  -0.05954  -0.013115  0  3.954682  0
C  C72  1  0.20613338  0.11209493  0.38389245  1  -0.026123  0  -0.068758  -0.108357  0  3.918909  0
C  C73  1  0.32300287  0.72837157  0.61636968  1  -0.009834  0  -0.068858  -0.109447  0  3.919035  0
C  C74  1  0.16902994  0.20102660  0.36447515  1  0.482614  0  0.058844  0.106659  0  3.921787  0
C  C75  1  0.30542964  0.83674956  0.63579542  1  0.508356  0  0.058874  0.105919  0  3.918587  0
C  C76  1  0.87693057  0.77651440  0.85783485  1  0.497738  0  0.032359  0.02578  0  4.011687  0
C  C77  1  0.51760085  0.91869934  0.14228624  1  0.547558  0  0.034195  0.027301  0  4.010339  0
C  C78  1  0.89914599  0.88583857  0.85500725  1  -0.008182  0  -0.017166  -0.003925  0  4.005016  0
C  C79  1  0.54344608  0.03092252  0.14508192  1  -0.064159  0  -0.017292  -0.005078  0  4.009338  0
C  C80  1  0.89497132  0.89225835  0.76792229  1  -0.028862  0  -0.068521  -0.079676  0  3.909782  0
C  C81  1  0.62685056  0.12459762  0.23210793  1  -0.027201  0  -0.068333  -0.077112  0  3.91062  0
C  C82  1  0.87654010  0.79319231  0.69124484  1  -0.047924  0  -0.081393  -0.112951  0  3.959723  0
C  C83  1  0.68489466  0.10228323  0.30882769  1  -0.11661  0  -0.081546  -0.114789  0  3.961098  0
C  C84  1  0.86524012  0.69067786  0.70306518  1  0.487721  0  0.046847  0.093963  0  3.959863  0
C  C85  1  0.66108165  0.98787931  0.29707281  1  0.530212  0  0.047044  0.094712  0  3.959291  0
C  C86  1  0.92239719  0.42707881  0.40044466  1  1.545225  0  0.192454  0.562509  0  4.256353  0
C  C87  1  0.02229073  0.02673843  0.59949897  1  1.54124  0  0.193971  0.562467  0  4.253305  0
C  C88  1  0.78437335  0.45513464  0.45249186  1  -0.04049  0  -0.01399  -0.06386  0  3.929483  0
C  C89  1  0.83185607  0.00233058  0.54733192  1  -0.14254  0  -0.014131  -0.062702  0  3.926227  0
C  C90  1  0.73424015  0.39835755  0.51077826  1  -0.080129  0  -0.094243  -0.111811  0  3.991553  0
C  C91  1  0.72370223  0.88708950  0.48893270  1  -0.035808  0  -0.093621  -0.109317  0  3.990694  0
C  C92  1  0.58545266  0.40578788  0.54821827  1  -0.011256  0  -0.097974  -0.09268  0  4.009422  0
C  C93  1  0.53724247  0.85667714  0.45142092  1  0.064127  0  -0.097831  -0.093888  0  4.010029  0
C  C94  1  0.48992299  0.47363405  0.52896560  1  -0.071906  0  -0.097285  -0.094035  0  4.03484  0
C  C95  1  0.46050580  0.94353816  0.47079767  1  -0.110153  0  -0.098144  -0.094449  0  4.034216  0
C  C96  1  0.54591744  0.53563795  0.47546843  1  -0.016126  0  -0.091219  -0.123006  0  3.979733  0
C  C97  1  0.56968843  0.05920756  0.52437380  1  -0.009157  0  -0.091357  -0.121046  0  3.978745  0
C  C98  1  0.69174942  0.52671861  0.43521744  1  -0.040556  0  -0.004833  0.049312  0  3.968143  0
C  C99  1  0.75603078  0.09096167  0.56464513  1  -0.005607  0  -0.004999  0.045459  0  3.969914  0
C  C100  1  0.74579029  0.59310749  0.37778684  1  -0.033512  0  0.000718  0.055412  0  3.961807  0
C  C101  1  0.86740617  0.21495036  0.62206360  1  -0.059536  0  0.00105  0.056882  0  3.960151  0
C  C102  1  0.93038161  0.65522487  0.39005576  1  0.026648  0  -0.087102  -0.123624  0  3.959343  0
C  C103  1  0.03978353  0.26479329  0.60987152  1  0.000484  0  -0.088292  -0.124001  0  3.958103  0
C  C104  1  0.98299254  0.72262875  0.33988587  1  -0.084176  0  -0.090538  -0.073907  0  4.01468  0
C  C105  1  0.14250888  0.38253496  0.65985840  1  -0.062764  0  -0.090377  -0.074379  0  4.014343  0
C  C106  1  0.85047114  0.73462140  0.27974212  1  -0.034539  0  -0.099783  -0.100664  0  4.042083  0
C  C107  1  0.07022852  0.45481508  0.71987029  1  -0.036452  0  -0.099527  -0.098372  0  4.041075  0
C  C108  1  0.66625196  0.67474370  0.26725381  1  -0.049078  0  -0.090049  -0.104888  0  4.001128  0
C  C109  1  0.89864142  0.40739414  0.73242756  1  -0.04138  0  -0.089999  -0.104863  0  4.000209  0
C  C110  1  0.61350983  0.60098260  0.31296052  1  -0.041514  0  -0.011656  -0.061921  0  3.91668  0
C  C111  1  0.80009745  0.28782487  0.68678758  1  -0.039427  0  -0.010338  -0.060222  0  3.913868  0
C  C112  1  0.41574498  0.52658351  0.28769548  1  1.528912  0  0.190278  0.555233  0  4.248577  0
C  C113  1  0.62786228  0.23891168  0.71222844  1  1.554086  0  0.18907  0.554261  0  4.249503  0
N  N114  1  0.92854539  0.37311906  0.11334356  1  -1.217151  0  -0.318741  -0.261604  0  3.475027  0
N  N115  1  0.31535393  0.25980341  0.88676018  1  -1.227702  0  -0.319169  -0.26409  0  3.478136  0
N  N116  1  0.98686620  0.17915215  0.10529171  1  -1.22536  0  -0.321327  -0.313043  0  3.480377  0
N  N117  1  0.38164024  0.07388377  0.89485689  1  -1.217715  0  -0.319904  -0.309418  0  3.475853  0
N  N118  1  0.11365103  0.19121167  0.27722643  1  -1.220776  0  -0.31475  -0.255499  0  3.464388  0
N  N119  1  0.33686495  0.91406913  0.72305796  1  -1.212454  0  -0.314797  -0.255343  0  3.463917  0
N  N120  1  0.86227370  0.68135590  0.78503099  1  -1.212773  0  -0.325424  -0.263561  0  3.337272  0
N  N121  1  0.57556808  0.89641289  0.21513610  1  -1.210547  0  -0.326209  -0.264212  0  3.335668  0
O  O122  1  0.86245136  0.38850840  0.31094926  1  -1.124466  0  -0.335741  -0.544761  0  2.285757  0
O  O123  1  0.05160831  0.07715882  0.68900289  1  -1.123597  0  -0.335852  -0.544172  0  2.28575  0
O  O124  1  0.07739502  0.43745566  0.44185524  1  -1.189257  0  -0.328259  -0.564116  0  2.140403  0
O  O125  1  0.13634967  0.99645327  0.55814890  1  -1.181419  0  -0.329796  -0.564958  0  2.137817  0
O  O126  1  0.38232152  0.41645763  0.26268417  1  -1.126895  0  -0.336486  -0.542562  0  2.235347  0
O  O127  1  0.61948329  0.15375978  0.73717188  1  -1.14701  0  -0.336973  -0.542549  0  2.235511  0
O  O128  1  0.29309061  0.57116920  0.28911646  1  -1.168073  0  -0.331793  -0.558402  0  2.119125  0
O  O129  1  0.50407771  0.28233117  0.71107224  1  -1.173581  0  -0.331864  -0.558979  0  2.118222  0
