# generated using pymatgen
data_ZnH11C10O7
_symmetry_space_group_name_H-M   'P 1'
_cell_length_a   6.53241871
_cell_length_b   9.51656972
_cell_length_c   9.89344612
_cell_angle_alpha   63.22559277
_cell_angle_beta   88.36245750
_cell_angle_gamma   100.45059428
_symmetry_Int_Tables_number   1
_chemical_formula_structural   ZnH11C10O7
_chemical_formula_sum   'Zn2 H22 C20 O14'
_cell_volume   535.71222880
_cell_formula_units_Z   2
loop_
 _symmetry_equiv_pos_site_id
 _symmetry_equiv_pos_as_xyz
  1  'x, y, z'
loop_
 _atom_site_type_symbol
 _atom_site_label
 _atom_site_symmetry_multiplicity
 _atom_site_fract_x
 _atom_site_fract_y
 _atom_site_fract_z
 _atom_site_occupancy
 _atom_site_hle17_bader_spin_density
 _atom_site_hle17_ddec_charge
 _atom_site_hle17_ddec_spin_density
 _atom_site_hle17_ddec_sum_bond_order
 _atom_site_hle17_magmom
 _atom_site_hse06_10hf_bader_spin_density
 _atom_site_hse06_10hf_ddec_charge
 _atom_site_hse06_10hf_ddec_spin_density
 _atom_site_hse06_10hf_ddec_sum_bond_order
 _atom_site_hse06_10hf_magmom
 _atom_site_hse06_bader_spin_density
 _atom_site_hse06_ddec_charge
 _atom_site_hse06_ddec_spin_density
 _atom_site_hse06_ddec_sum_bond_order
 _atom_site_hse06_magmom
 _atom_site_pbe_bader_spin_density
 _atom_site_pbe_cm5_charge
 _atom_site_pbe_ddec_charge
 _atom_site_pbe_ddec_spin_density
 _atom_site_pbe_ddec_sum_bond_order
 _atom_site_pbe_magmom
Zn  Zn0  1  0.49786210  0.33560482  0.40196057  1  0  1.201812  0  1.679638  0  0  1.029132  0  2.148998  0  0  1.079487  0  2.083963  0  0  0.692081  0.991191  0  2.195973  0
Zn  Zn1  1  0.50214314  0.66439923  0.59803611  1  0  1.201833  0  1.679774  0  0  1.029143  0  2.149151  0  0  1.079489  0  2.084127  0  0  0.692069  0.991207  0  2.196124  0
H  H2  1  0.38514157  0.36129427  0.95518216  1  0  0.121201  0  0.939576  0  0  0.130067  0  1.003931  0  0  0.133765  0  1.001126  0  0  0.113153  0.12727  0  1.006351  0
H  H3  1  0.61485626  0.63870886  0.04481850  1  0  0.121183  0  0.939619  0  0  0.13006  0  1.003943  0  0  0.133756  0  1.001137  0  0  0.113151  0.12726  0  1.006372  0
H  H4  1  0.25643289  0.98298324  0.82583845  1  0  0.125088  0  0.95398  0  0  0.134759  0  1.013822  0  0  0.138382  0  1.011414  0  0  0.114099  0.131997  0  1.015628  0
H  H5  1  0.74358582  0.01700921  0.17415938  1  0  0.125156  0  0.954139  0  0  0.134878  0  1.013913  0  0  0.138499  0  1.011505  0  0  0.114177  0.132117  0  1.015719  0
H  H6  1  0.21346822  0.86481450  0.30243810  1  0  0.113277  0  0.96489  0  0  0.121993  0  1.030046  0  0  0.126254  0  1.026265  0  0  0.109223  0.119058  0  1.032489  0
H  H7  1  0.78651640  0.13519698  0.69754428  1  0  0.11317  0  0.964665  0  0  0.121842  0  1.029895  0  0  0.126112  0  1.026102  0  0  0.109082  0.118902  0  1.032338  0
H  H8  1  0.28782041  0.71896490  0.93343514  1  0  0.055549  0  0.95898  0  0  0.06854  0  1.026124  0  0  0.068297  0  1.026583  0  0  0.099114  0.068766  0  1.025835  0
H  H9  1  0.71217037  0.28104744  0.06655762  1  0  0.055577  0  0.958839  0  0  0.068502  0  1.026035  0  0  0.068315  0  1.026435  0  0  0.099106  0.068708  0  1.025757  0
H  H10  1  0.03673903  0.77019745  0.91900588  1  0  0.045641  0  0.968116  0  0  0.060422  0  1.03273  0  0  0.059643  0  1.033889  0  0  0.097868  0.061099  0  1.03198  0
H  H11  1  0.96324775  0.22979702  0.08100596  1  0  0.045604  0  0.967912  0  0  0.060371  0  1.03255  0  0  0.059597  0  1.033706  0  0  0.09785  0.06104  0  1.031799  0
H  H12  1  0.88354936  0.49693490  0.13905114  1  0  0.082739  0  0.94632  0  0  0.097785  0  1.011463  0  0  0.09875  0  1.011689  0  0  0.093375  0.097101  0  1.011523  0
H  H13  1  0.11644218  0.50305556  0.86094348  1  0  0.082774  0  0.946362  0  0  0.097844  0  1.011492  0  0  0.09881  0  1.011719  0  0  0.093424  0.097155  0  1.011554  0
H  H14  1  0.13015760  0.44405133  0.13424123  1  0  0.084561  0  0.952686  0  0  0.102304  0  1.009968  0  0  0.10306  0  1.01119  0  0  0.092906  0.102066  0  1.00855  0
H  H15  1  0.86984620  0.55594709  0.86575254  1  0  0.084522  0  0.95281  0  0  0.102292  0  1.010077  0  0  0.103047  0  1.011299  0  0  0.092893  0.102052  0  1.008656  0
H  H16  1  0.20280851  0.46690681  0.48483564  1  0  0.407945  0  0.891083  0  0  0.376805  0  0.962292  0  0  0.386764  0  0.947543  0  0  0.290451  0.37003  0  0.972271  0
H  H17  1  0.79718589  0.53310292  0.51516490  1  0  0.407973  0  0.891076  0  0  0.376849  0  0.962225  0  0  0.38681  0  0.947472  0  0  0.2905  0.370075  0  0.972203  0
H  H18  1  0.16785430  0.55362828  0.31045987  1  0  0.419648  0  0.865143  0  0  0.385945  0  0.941739  0  0  0.396208  0  0.926821  0  0  0.30021  0.379266  0  0.951314  0
H  H19  1  0.83215068  0.44637204  0.68954023  1  0  0.419643  0  0.865115  0  0  0.385961  0  0.941699  0  0  0.396222  0  0.926782  0  0  0.300224  0.379286  0  0.951269  0
H  H20  1  0.90871259  0.30700022  0.41780850  1  0  0.435984  0  0.851379  0  0  0.408807  0  0.908032  0  0  0.418796  0  0.893379  0  0  0.296761  0.401566  0  0.918639  0
H  H21  1  0.09128741  0.69298927  0.58219292  1  0  0.436  0  0.851359  0  0  0.408858  0  0.907968  0  0  0.418839  0  0.893323  0  0  0.296771  0.401633  0  0.918564  0
H  H22  1  0.75745813  0.12643169  0.48966192  1  0  0.44514  0  0.851183  0  0  0.413388  0  0.914626  0  0  0.424911  0  0.897942  0  0  0.293335  0.405233  0  0.926394  0
H  H23  1  0.24253356  0.87356798  0.51033236  1  0  0.445195  0  0.851107  0  0  0.413423  0  0.914583  0  0  0.424946  0  0.8979  0  0  0.293349  0.405269  0  0.926352  0
C  C24  1  0.33937692  0.16948325  0.26275028  1  0  0.642392  0  3.892715  0  0  0.59282  0  4.180103  0  0  0.626817  0  4.174162  0  0  0.210369  0.569648  0  4.183065  0
C  C25  1  0.66063833  0.83052538  0.73725713  1  0  0.642551  0  3.893186  0  0  0.592957  0  4.180609  0  0  0.626957  0  4.174656  0  0  0.210315  0.569791  0  4.183562  0
C  C26  1  0.35640280  0.29613267  0.70904686  1  0  0.695314  0  3.824307  0  0  0.639838  0  4.112064  0  0  0.676306  0  4.102407  0  0  0.231003  0.615753  0  4.11699  0
C  C27  1  0.64359329  0.70386526  0.29095991  1  0  0.695363  0  3.823849  0  0  0.639857  0  4.111678  0  0  0.676324  0  4.102022  0  0  0.231091  0.615759  0  4.116621  0
C  C28  1  0.30231533  0.11815656  0.14138219  1  0  -0.057946  0  3.766163  0  0  -0.032343  0  4.007357  0  0  -0.039913  0  4.02828  0  0  -0.017725  -0.027368  0  3.993396  0
C  C29  1  0.69767622  0.88181661  0.85861370  1  0  -0.05811  0  3.766298  0  0  -0.032603  0  4.007635  0  0  -0.040174  0  4.028548  0  0  -0.017802  -0.027626  0  3.993675  0
C  C30  1  0.33752625  0.23367177  0.98674965  1  0  -0.078237  0  3.67357  0  0  -0.12208  0  3.935307  0  0  -0.118434  0  3.951223  0  0  -0.081475  -0.126316  0  3.927326  0
C  C31  1  0.66247655  0.76632490  0.01325095  1  0  -0.078219  0  3.673465  0  0  -0.122025  0  3.935212  0  0  -0.118371  0  3.95112  0  0  -0.081466  -0.126258  0  3.927207  0
C  C32  1  0.31680965  0.18178556  0.87562870  1  0  -0.049304  0  3.766419  0  0  -0.025919  0  4.007902  0  0  -0.033908  0  4.0293  0  0  -0.019254  -0.021242  0  3.995132  0
C  C33  1  0.68319559  0.81821849  0.12436797  1  0  -0.049135  0  3.766067  0  0  -0.025725  0  4.007561  0  0  -0.033716  0  4.028958  0  0  -0.019206  -0.021035  0  3.994784  0
C  C34  1  0.26296970  0.01708707  0.91680883  1  0  -0.180603  0  3.714814  0  0  -0.217379  0  3.969193  0  0  -0.219197  0  3.989811  0  0  -0.091495  -0.215348  0  3.955687  0
C  C35  1  0.73703394  0.98292099  0.08319362  1  0  -0.180812  0  3.715201  0  0  -0.217658  0  3.969699  0  0  -0.219478  0  3.990324  0  0  -0.091563  -0.21563  0  3.956201  0
C  C36  1  0.22123717  0.90333648  0.07048216  1  0  0.268245  0  3.814376  0  0  0.260717  0  4.07751  0  0  0.268568  0  4.096224  0  0  0.082896  0.254654  0  4.065719  0
C  C37  1  0.77876080  0.09667095  0.92953725  1  0  0.268454  0  3.814455  0  0  0.260839  0  4.077718  0  0  0.268687  0  4.096435  0  0  0.082916  0.254768  0  4.065937  0
C  C38  1  0.24043985  0.95406517  0.18281286  1  0  -0.146107  0  3.673002  0  0  -0.184497  0  3.930609  0  0  -0.184704  0  3.946811  0  0  -0.085162  -0.183473  0  3.919285  0
C  C39  1  0.75954468  0.04592052  0.81720644  1  0  -0.146104  0  3.671846  0  0  -0.18436  0  3.929498  0  0  -0.18457  0  3.945707  0  0  -0.085036  -0.183342  0  3.918187  0
C  C40  1  0.13425513  0.69541409  0.99699930  1  0  0.100049  0  3.607983  0  0  0.038363  0  3.874865  0  0  0.047099  0  3.881025  0  0  -0.07225  0.032291  0  3.870726  0
C  C41  1  0.86574412  0.30459030  0.00298654  1  0  0.099999  0  3.607566  0  0  0.038418  0  3.874446  0  0  0.047113  0  3.880595  0  0  -0.07218  0.032383  0  3.870272  0
C  C42  1  0.02702902  0.52026631  0.06462572  1  0  -0.145182  0  3.686708  0  0  -0.183776  0  3.941514  0  0  -0.186315  0  3.955442  0  0  -0.173923  -0.181836  0  3.931516  0
C  C43  1  0.97297188  0.47974076  0.93535698  1  0  -0.145055  0  3.686747  0  0  -0.183777  0  3.941619  0  0  -0.186318  0  3.955562  0  0  -0.173935  -0.181822  0  3.93159  0
O  O44  1  0.29724639  0.07089218  0.40281341  1  0  -0.610102  0  1.952855  0  0  -0.551135  0  2.166676  0  0  -0.575954  0  2.155523  0  0  -0.304869  -0.533368  0  2.174135  0
O  O45  1  0.70276135  0.92910217  0.59719273  1  0  -0.61011  0  1.952894  0  0  -0.551141  0  2.166719  0  0  -0.575962  0  2.155567  0  0  -0.304837  -0.533376  0  2.174171  0
O  O46  1  0.42258268  0.32069588  0.21628427  1  0  -0.651723  0  2.029611  0  0  -0.577406  0  2.293775  0  0  -0.608099  0  2.280308  0  0  -0.320269  -0.55479  0  2.3019  0
O  O47  1  0.57743029  0.67930761  0.78371301  1  0  -0.651776  0  2.029485  0  0  -0.577428  0  2.293644  0  0  -0.608122  0  2.280168  0  0  -0.320216  -0.554827  0  2.301799  0
O  O48  1  0.16276214  0.74077061  0.11803832  1  0  -0.317347  0  2.330914  0  0  -0.234339  0  2.557378  0  0  -0.255435  0  2.563198  0  0  -0.180497  -0.219662  0  2.553207  0
O  O49  1  0.83723748  0.25921522  0.88196550  1  0  -0.317274  0  2.331191  0  0  -0.234251  0  2.557653  0  0  -0.255348  0  2.563493  0  0  -0.180491  -0.219578  0  2.553467  0
O  O50  1  0.41080951  0.23878192  0.62296343  1  0  -0.633189  0  2.099206  0  0  -0.556387  0  2.370128  0  0  -0.585865  0  2.354229  0  0  -0.302143  -0.535789  0  2.380847  0
O  O51  1  0.58919505  0.76121890  0.37704466  1  0  -0.633265  0  2.099128  0  0  -0.556431  0  2.370083  0  0  -0.585908  0  2.354185  0  0  -0.302236  -0.535834  0  2.380809  0
O  O52  1  0.32645386  0.43958941  0.66099029  1  0  -0.693997  0  2.10794  0  0  -0.61965  0  2.383594  0  0  -0.646662  0  2.363989  0  0  -0.325189  -0.600536  0  2.395624  0
O  O53  1  0.67354537  0.56040619  0.33902014  1  0  -0.694021  0  2.107904  0  0  -0.619681  0  2.383592  0  0  -0.6467  0  2.363993  0  0  -0.325238  -0.60056  0  2.395613  0
O  O54  1  0.16590484  0.44767935  0.39747308  1  0  -0.825853  0  1.863958  0  0  -0.76773  0  2.051882  0  0  -0.787014  0  2.018938  0  0  -0.565582  -0.754313  0  2.074165  0
O  O55  1  0.83409964  0.55232280  0.60253249  1  0  -0.825879  0  1.863979  0  0  -0.767777  0  2.051892  0  0  -0.787053  0  2.018936  0  0  -0.565622  -0.75436  0  2.074182  0
O  O56  1  0.76934173  0.24440244  0.41971174  1  0  -0.855094  0  1.879237  0  0  -0.789095  0  2.081999  0  0  -0.81167  0  2.045644  0  0  -0.577046  -0.772997  0  2.107879  0
O  O57  1  0.23066059  0.75559450  0.58028473  1  0  -0.855141  0  1.879121  0  0  -0.789183  0  2.081885  0  0  -0.811743  0  2.045558  0  0  -0.577058  -0.773107  0  2.107706  0
