# generated using pymatgen
data_CdH19C32N5O6
_symmetry_space_group_name_H-M   'P 1'
_cell_length_a   9.45785922
_cell_length_b   13.63471968
_cell_length_c   24.99663766
_cell_angle_alpha   90.00017860
_cell_angle_beta   90.00009233
_cell_angle_gamma   97.22479967
_symmetry_Int_Tables_number   1
_chemical_formula_structural   CdH19C32N5O6
_chemical_formula_sum   'Cd4 H76 C128 N20 O24'
_cell_volume   3197.85487261
_cell_formula_units_Z   4
loop_
 _symmetry_equiv_pos_site_id
 _symmetry_equiv_pos_as_xyz
  1  'x, y, z'
loop_
 _atom_site_type_symbol
 _atom_site_label
 _atom_site_symmetry_multiplicity
 _atom_site_fract_x
 _atom_site_fract_y
 _atom_site_fract_z
 _atom_site_occupancy
 _atom_site_pbe_bader_charge
 _atom_site_pbe_bader_spin_density
 _atom_site_pbe_cm5_charge
 _atom_site_pbe_ddec_charge
 _atom_site_pbe_ddec_spin_density
 _atom_site_pbe_ddec_sum_bond_order
 _atom_site_pbe_magmom
Cd  Cd0  1  0.54677301  0.24026759  0.16658077  1  1.260974  0  0.773078  0.793853  0  2.309903  0
Cd  Cd1  1  0.45322417  0.25973409  0.66658121  1  1.260912  0  0.773107  0.793893  0  2.309732  0
Cd  Cd2  1  0.45322619  0.75973304  0.83341967  1  1.260981  0  0.773102  0.793882  0  2.309867  0
Cd  Cd3  1  0.54677608  0.74026654  0.33341924  1  1.260945  0  0.773132  0.793978  0  2.309742  0
H  H4  1  0.07403761  0.36287126  0.12438306  1  0.150927  0  0.111189  0.119788  0  0.999075  0
H  H5  1  0.92595696  0.13712868  0.62438237  1  0.150949  0  0.11118  0.119789  0  0.999072  0
H  H6  1  0.92596489  0.63713010  0.87561819  1  0.150864  0  0.111185  0.119807  0  0.999062  0
H  H7  1  0.07404104  0.86287121  0.37561688  1  0.15098  0  0.111184  0.119802  0  0.999055  0
H  H8  1  0.93588254  0.33324822  0.28827174  1  0.10468  0  0.109961  0.116806  0  1.031527  0
H  H9  1  0.06411503  0.16675273  0.78827138  1  0.104743  0  0.109989  0.116833  0  1.031505  0
H  H10  1  0.06411389  0.66675463  0.71173031  1  0.104786  0  0.109992  0.116852  0  1.031436  0
H  H11  1  0.93588417  0.83324789  0.21172827  1  0.104726  0  0.10998  0.116824  0  1.031505  0
H  H12  1  0.38063817  0.41543797  0.25158031  1  0.148671  0  0.110341  0.118195  0  1.0287  0
H  H13  1  0.61936091  0.08456053  0.75158054  1  0.148595  0  0.110318  0.118148  0  1.028725  0
H  H14  1  0.61936116  0.58456340  0.74842094  1  0.148584  0  0.110332  0.118188  0  1.028704  0
H  H15  1  0.38064026  0.91543935  0.24841831  1  0.148572  0  0.110284  0.118112  0  1.028751  0
H  H16  1  0.62781249  0.20440815  0.29130834  1  0.119126  0  0.11848  0.09344  0  1.014064  0
H  H17  1  0.37218536  0.29559429  0.79130839  1  0.119132  0  0.118481  0.093431  0  1.014102  0
H  H18  1  0.37218736  0.79559026  0.70869251  1  0.119131  0  0.11849  0.093465  0  1.014061  0
H  H19  1  0.62781001  0.70440855  0.20869126  1  0.119177  0  0.118454  0.093382  0  1.014081  0
H  H20  1  0.51659714  0.15811096  0.38040465  1  0.093032  0  0.112392  0.114101  0  0.998923  0
H  H21  1  0.48340595  0.34188907  0.88040485  1  0.093065  0  0.112402  0.114107  0  0.998967  0
H  H22  1  0.48340217  0.84188449  0.61959580  1  0.092723  0  0.112399  0.114075  0  0.998912  0
H  H23  1  0.51659458  0.65811303  0.11959520  1  0.093047  0  0.112403  0.1141  0  0.998949  0
H  H24  1  0.25031990  0.11465295  0.38566124  1  0.117849  0  0.117533  0.121962  0  0.976099  0
H  H25  1  0.74968136  0.38534860  0.88566247  1  0.117802  0  0.117509  0.121921  0  0.976098  0
H  H26  1  0.74967756  0.88534398  0.61433801  1  0.117854  0  0.11754  0.121938  0  0.976132  0
H  H27  1  0.25031916  0.61465351  0.11433798  1  0.117816  0  0.117528  0.121951  0  0.976112  0
H  H28  1  0.01679048  0.08666300  0.33764269  1  0.085248  0  0.114875  0.123657  0  0.967409  0
H  H29  1  0.98321329  0.41333604  0.83764291  1  0.085211  0  0.11489  0.123645  0  0.967459  0
H  H30  1  0.98320858  0.91333689  0.66235576  1  0.085206  0  0.114873  0.123653  0  0.967427  0
H  H31  1  0.01678881  0.58666311  0.16235594  1  0.085193  0  0.11489  0.123669  0  0.967385  0
H  H32  1  0.88251828  0.07379978  0.25220785  1  0.106624  0  0.108115  0.113471  0  0.992886  0
H  H33  1  0.11748660  0.42619576  0.75220797  1  0.106639  0  0.108107  0.11347  0  0.992916  0
H  H34  1  0.11748355  0.92619789  0.74779100  1  0.106646  0  0.108088  0.11343  0  0.992868  0
H  H35  1  0.88251615  0.57380116  0.24779168  1  0.106637  0  0.108113  0.113456  0  0.992908  0
H  H36  1  0.88177026  0.08769023  0.15252966  1  0.12605  0  0.105118  0.099182  0  1.048449  0
H  H37  1  0.11822920  0.41230692  0.65252935  1  0.126087  0  0.10511  0.099162  0  1.048479  0
H  H38  1  0.11822720  0.91230670  0.84746999  1  0.125669  0  0.10511  0.099171  0  1.048529  0
H  H39  1  0.88177197  0.58769296  0.34746950  1  0.126082  0  0.105103  0.099149  0  1.048525  0
H  H40  1  0.01676982  0.13023597  0.06783324  1  0.074784  0  0.112337  0.119512  0  0.979994  0
H  H41  1  0.98322536  0.36976288  0.56783378  1  0.074759  0  0.112335  0.119527  0  0.980111  0
H  H42  1  0.98322805  0.86976318  0.93216521  1  0.074848  0  0.112325  0.119496  0  0.980137  0
H  H43  1  0.01677172  0.63023775  0.43216507  1  0.074855  0  0.11233  0.11953  0  0.980136  0
H  H44  1  0.28026182  0.18633523  0.07380137  1  0.108942  0  0.114321  0.076699  0  1.011847  0
H  H45  1  0.71973353  0.31366439  0.57380206  1  0.108952  0  0.114297  0.076692  0  1.011837  0
H  H46  1  0.71973605  0.81366391  0.92619868  1  0.108941  0  0.114315  0.076691  0  1.011832  0
H  H47  1  0.28026342  0.68633550  0.42619839  1  0.108945  0  0.114308  0.076697  0  1.011838  0
H  H48  1  0.59774152  0.02941339  0.22924704  1  0.092288  0  0.118243  0.08606  0  0.993861  0
H  H49  1  0.40225903  0.47058793  0.72924620  1  0.092321  0  0.118258  0.086098  0  0.993847  0
H  H50  1  0.40225662  0.97058724  0.77075341  1  0.092306  0  0.118261  0.086099  0  0.993825  0
H  H51  1  0.59774691  0.52941491  0.27075385  1  0.092322  0  0.118258  0.086088  0  0.993862  0
H  H52  1  0.69627648  0.87163624  0.21080491  1  0.150747  0  0.108003  0.125669  0  1.054985  0
H  H53  1  0.30372474  0.62836627  0.71080343  1  0.150639  0  0.108004  0.125675  0  1.054939  0
H  H54  1  0.30372510  0.12836586  0.78919674  1  0.150777  0  0.107991  0.125621  0  1.054969  0
H  H55  1  0.69627790  0.37163583  0.28919582  1  0.150768  0  0.107966  0.125603  0  1.054933  0
H  H56  1  0.75766878  0.83258097  0.11533165  1  0.103707  0  0.114034  0.11601  0  0.969691  0
H  H57  1  0.24233350  0.66741800  0.61533020  1  0.103714  0  0.11405  0.116032  0  0.96965  0
H  H58  1  0.24233465  0.16741965  0.88466960  1  0.10373  0  0.114033  0.116031  0  0.96967  0
H  H59  1  0.75766979  0.33258188  0.38466905  1  0.103698  0  0.114029  0.116011  0  0.969668  0
H  H60  1  0.77003299  0.88412408  0.01913556  1  0.063065  0  0.10633  0.109198  0  0.996603  0
H  H61  1  0.22996665  0.61587429  0.51913441  1  0.062931  0  0.10634  0.109199  0  0.996623  0
H  H62  1  0.22996910  0.11587506  0.98086529  1  0.063097  0  0.106339  0.10919  0  0.996595  0
H  H63  1  0.77003241  0.38412560  0.48086563  1  0.062943  0  0.106343  0.10921  0  0.996594  0
H  H64  1  0.73788791  0.01024076  0.94946793  1  0.084342  0  0.102478  0.105698  0  1.033128  0
H  H65  1  0.26211316  0.48975822  0.44946655  1  0.084297  0  0.102459  0.105683  0  1.033184  0
H  H66  1  0.26211869  0.98975986  0.05053252  1  0.084378  0  0.102459  0.105702  0  1.033104  0
H  H67  1  0.73788113  0.51023871  0.55053350  1  0.084292  0  0.102494  0.105743  0  1.03308  0
H  H68  1  0.66621113  0.17336571  0.92496875  1  0.13089  0  0.103038  0.101756  0  1.044576  0
H  H69  1  0.33378769  0.32663313  0.42496753  1  0.130852  0  0.10306  0.101748  0  1.044572  0
H  H70  1  0.33379243  0.82663565  0.07503170  1  0.130913  0  0.103025  0.101715  0  1.044569  0
H  H71  1  0.66620673  0.67336455  0.57503291  1  0.13083  0  0.103017  0.101708  0  1.044581  0
H  H72  1  0.57377058  0.33098368  0.95505250  1  0.082499  0  0.111967  0.117433  0  1.013926  0
H  H73  1  0.42622272  0.16901313  0.45505147  1  0.082383  0  0.111974  0.117486  0  1.013923  0
H  H74  1  0.42623179  0.66901694  0.04494794  1  0.082481  0  0.111952  0.117401  0  1.013952  0
H  H75  1  0.57377052  0.83098381  0.54494857  1  0.082467  0  0.111969  0.117455  0  1.013933  0
H  H76  1  0.50468892  0.34797221  0.05093290  1  0.167236  0  0.121034  0.102178  0  1.006947  0
H  H77  1  0.49530695  0.15202506  0.55093198  1  0.167091  0  0.121025  0.102197  0  1.00689  0
H  H78  1  0.49531225  0.65202767  0.94906795  1  0.167236  0  0.121023  0.102166  0  1.006959  0
H  H79  1  0.50469078  0.84797335  0.44906847  1  0.16725  0  0.121026  0.1022  0  1.006929  0
C  C80  1  0.24012371  0.39160768  0.18351429  1  0.070296  0  -0.017305  -0.027643  0  3.950403  0
C  C81  1  0.75987381  0.10838966  0.68351425  1  0.070285  0  -0.017261  -0.027565  0  3.950385  0
C  C82  1  0.75987720  0.60839073  0.81648656  1  0.070049  0  -0.017256  -0.027559  0  3.950319  0
C  C83  1  0.24012723  0.89160948  0.31648460  1  0.069869  0  -0.017236  -0.027607  0  3.950374  0
C  C84  1  0.09871077  0.36673715  0.16696600  1  -0.12474  0  -0.061439  -0.081415  0  3.88852  0
C  C85  1  0.90128508  0.13326305  0.66696529  1  -0.124859  0  -0.061441  -0.081461  0  3.888539  0
C  C86  1  0.90128948  0.63326347  0.83303565  1  -0.124804  0  -0.061455  -0.081446  0  3.888551  0
C  C87  1  0.09871412  0.86673758  0.33303396  1  -0.124795  0  -0.061459  -0.081501  0  3.888607  0
C  C88  1  0.98908962  0.34321697  0.20425046  1  0.044927  0  -0.014238  -0.021742  0  3.963115  0
C  C89  1  0.01090684  0.15678568  0.70424965  1  0.045073  0  -0.014311  -0.021828  0  3.963163  0
C  C90  1  0.01091039  0.65678809  0.79575159  1  0.04488  0  -0.014321  -0.021919  0  3.963277  0
C  C91  1  0.98909263  0.84321643  0.29574999  1  0.044939  0  -0.0143  -0.021787  0  3.963141  0
C  C92  1  0.01962426  0.35036375  0.25879231  1  -0.013519  0  -0.075186  -0.138204  0  3.963505  0
C  C93  1  0.98037287  0.14963554  0.75879168  1  -0.013581  0  -0.075106  -0.138059  0  3.963434  0
C  C94  1  0.98037507  0.64963762  0.74120934  1  -0.013599  0  -0.075155  -0.138135  0  3.963312  0
C  C95  1  0.01962619  0.85036435  0.24120797  1  -0.01352  0  -0.075134  -0.138147  0  3.963438  0
C  C96  1  0.15968134  0.37951783  0.27482253  1  0.203804  0  0.06823  0.048699  0  3.977163  0
C  C97  1  0.84031483  0.12048156  0.77482257  1  0.20386  0  0.068176  0.048572  0  3.977203  0
C  C98  1  0.84031523  0.62048575  0.72517872  1  0.20366  0  0.068189  0.048692  0  3.976855  0
C  C99  1  0.15968331  0.87951907  0.22517788  1  0.203804  0  0.068191  0.048688  0  3.97696  0
C  C100  1  0.27110139  0.39797030  0.23812005  1  -0.05111  0  -0.075009  -0.135882  0  3.943061  0
C  C101  1  0.72889669  0.10202886  0.73811998  1  -0.051154  0  -0.075005  -0.13584  0  3.943052  0
C  C102  1  0.72889477  0.60203107  0.76188080  1  -0.050549  0  -0.074986  -0.135894  0  3.94288  0
C  C103  1  0.27110540  0.89797028  0.26187887  1  -0.050703  0  -0.074953  -0.135779  0  3.94289  0
C  C104  1  0.35952017  0.40700055  0.14238401  1  1.600799  0  0.183688  0.558146  0  4.28169  0
C  C105  1  0.64047515  0.09299729  0.64238467  1  1.600699  0  0.183679  0.558167  0  4.281765  0
C  C106  1  0.64048101  0.59299934  0.85761724  1  1.600773  0  0.183676  0.558109  0  4.281653  0
C  C107  1  0.35952285  0.90700260  0.35761458  1  1.60065  0  0.183676  0.558203  0  4.281696  0
C  C108  1  0.83974342  0.30768068  0.18584751  1  1.538423  0  0.185876  0.554634  0  4.241416  0
C  C109  1  0.16025267  0.19232038  0.68584765  1  1.5384  0  0.185885  0.55464  0  4.241404  0
C  C110  1  0.16025605  0.69232143  0.81415254  1  1.538511  0  0.185765  0.554533  0  4.241622  0
C  C111  1  0.83974771  0.80768098  0.31415199  1  1.538396  0  0.18589  0.554657  0  4.241385  0
C  C112  1  0.51316023  0.18353869  0.29539884  1  0.543634  0  0.054649  0.09934  0  3.949739  0
C  C113  1  0.48684082  0.31646378  0.79539859  1  0.543787  0  0.054601  0.099267  0  3.949818  0
C  C114  1  0.48684095  0.81646120  0.70460121  1  0.543481  0  0.05459  0.099243  0  3.949768  0
C  C115  1  0.51315745  0.68353758  0.20460066  1  0.543316  0  0.054629  0.099341  0  3.949792  0
C  C116  1  0.44949515  0.15918088  0.34511629  1  -0.08772  0  -0.078853  -0.116442  0  3.976618  0
C  C117  1  0.55050657  0.34082411  0.84511572  1  -0.087848  0  -0.078884  -0.11645  0  3.976691  0
C  C118  1  0.55050456  0.84081678  0.65488416  1  -0.087699  0  -0.07888  -0.116391  0  3.976588  0
C  C119  1  0.44949330  0.65918021  0.15488353  1  -0.087729  0  -0.078963  -0.116549  0  3.976667  0
C  C120  1  0.30327731  0.13526779  0.34781859  1  -0.013629  0  -0.057416  -0.06308  0  3.908136  0
C  C121  1  0.69672310  0.36473575  0.84781935  1  -0.013667  0  -0.057386  -0.063013  0  3.908209  0
C  C122  1  0.69672108  0.86472840  0.65218066  1  -0.013676  0  -0.057396  -0.063049  0  3.908164  0
C  C123  1  0.30327558  0.63526784  0.15218070  1  -0.013956  0  -0.05737  -0.063004  0  3.908098  0
C  C124  1  0.22195742  0.13241611  0.30030457  1  -0.030808  0  -0.003255  0.037311  0  4.011496  0
C  C125  1  0.77804260  0.36758639  0.80030579  1  -0.030799  0  -0.003278  0.03726  0  4.011602  0
C  C126  1  0.77804124  0.86758156  0.69969428  1  -0.030506  0  -0.00328  0.037327  0  4.011497  0
C  C127  1  0.22195700  0.63241645  0.19969466  1  -0.030539  0  -0.003247  0.037333  0  4.011484  0
C  C128  1  0.07097375  0.10407610  0.29967601  1  -0.07797  0  -0.078925  -0.113482  0  3.979771  0
C  C129  1  0.92902811  0.39592492  0.79967657  1  -0.077968  0  -0.07889  -0.113359  0  3.979697  0
C  C130  1  0.92902596  0.89592157  0.70032283  1  -0.077987  0  -0.078934  -0.113522  0  3.979735  0
C  C131  1  0.07097255  0.60407793  0.20032268  1  -0.077997  0  -0.078968  -0.113545  0  3.979719  0
C  C132  1  0.99727887  0.09631432  0.25263476  1  -0.020871  0  -0.080243  -0.105899  0  3.973894  0
C  C133  1  0.00272339  0.40368418  0.75263557  1  -0.020918  0  -0.080275  -0.105972  0  3.973988  0
C  C134  1  0.00271940  0.90368704  0.74736409  1  -0.02085  0  -0.080203  -0.105802  0  3.973898  0
C  C135  1  0.99727963  0.59631422  0.24736408  1  -0.02087  0  -0.0802  -0.105845  0  3.973978  0
C  C136  1  0.06854957  0.11728238  0.20261217  1  0.023061  0  -0.003445  0.036982  0  4.003438  0
C  C137  1  0.93145163  0.38271730  0.70261311  1  0.022989  0  -0.003413  0.037003  0  4.003473  0
C  C138  1  0.93144871  0.88271899  0.79738668  1  0.023088  0  -0.003487  0.036949  0  4.003519  0
C  C139  1  0.06854900  0.61727963  0.29738654  1  0.022987  0  -0.003506  0.036984  0  4.003505  0
C  C140  1  0.99620278  0.11002386  0.15313739  1  -0.06166  0  -0.062115  -0.05971  0  3.91688  0
C  C141  1  0.00379709  0.38997551  0.65313778  1  -0.061354  0  -0.062064  -0.059649  0  3.916871  0
C  C142  1  0.00379628  0.88997602  0.84686266  1  -0.06123  0  -0.062068  -0.05969  0  3.916903  0
C  C143  1  0.99620276  0.61002290  0.34686227  1  -0.061606  0  -0.062008  -0.059597  0  3.916927  0
C  C144  1  0.07074372  0.13368089  0.10641765  1  -0.045068  0  -0.078256  -0.11539  0  3.957983  0
C  C145  1  0.92925181  0.36631894  0.60641855  1  -0.045197  0  -0.078256  -0.115375  0  3.958099  0
C  C146  1  0.92925336  0.86631974  0.89358120  1  -0.045073  0  -0.078233  -0.115324  0  3.958143  0
C  C147  1  0.07074712  0.63368021  0.39358110  1  -0.045053  0  -0.078299  -0.115456  0  3.958224  0
C  C148  1  0.21787531  0.16495175  0.10960095  1  0.530018  0  0.056613  0.108828  0  3.958547  0
C  C149  1  0.78212050  0.33504957  0.60960171  1  0.529969  0  0.056524  0.108662  0  3.958589  0
C  C150  1  0.78212283  0.83504888  0.89039870  1  0.529976  0  0.056631  0.108805  0  3.958549  0
C  C151  1  0.21787671  0.66495179  0.39039834  1  0.529981  0  0.056575  0.108753  0  3.958518  0
C  C152  1  0.21787248  0.14840594  0.20161051  1  0.481674  0  0.118412  0.123674  0  3.975634  0
C  C153  1  0.78212819  0.35159669  0.70161130  1  0.48172  0  0.118364  0.123626  0  3.975766  0
C  C154  1  0.78212763  0.85159394  0.79838954  1  0.481724  0  0.118373  0.123635  0  3.97586  0
C  C155  1  0.21787192  0.64840320  0.29838915  1  0.481719  0  0.11839  0.123637  0  3.97571  0
C  C156  1  0.29613678  0.15552617  0.25150685  1  0.568299  0  0.117654  0.124666  0  3.962903  0
C  C157  1  0.70386324  0.34447750  0.75150758  1  0.568336  0  0.117654  0.12461  0  3.963083  0
C  C158  1  0.70386307  0.84447223  0.74849240  1  0.568334  0  0.117656  0.124542  0  3.963044  0
C  C159  1  0.29613636  0.65552534  0.24849247  1  0.568328  0  0.117679  0.124633  0  3.962974  0
C  C160  1  0.62481942  0.01027552  0.18838794  1  0.515394  0  0.057671  0.10796  0  3.957801  0
C  C161  1  0.37518211  0.48972628  0.68838711  1  0.514806  0  0.057656  0.107907  0  3.957994  0
C  C162  1  0.37518162  0.98972362  0.81161331  1  0.515493  0  0.057711  0.107986  0  3.957988  0
C  C163  1  0.62482172  0.51027656  0.31161333  1  0.515522  0  0.057622  0.107891  0  3.957794  0
C  C164  1  0.67899708  0.92093748  0.17764568  1  -0.036531  0  -0.084477  -0.13388  0  3.96716  0
C  C165  1  0.32101123  0.57906409  0.67764493  1  -0.035613  0  -0.084497  -0.133968  0  3.967221  0
C  C166  1  0.32100608  0.07906167  0.82235477  1  -0.036573  0  -0.08448  -0.133864  0  3.967189  0
C  C167  1  0.67899550  0.42093727  0.32235552  1  -0.036556  0  -0.084442  -0.133859  0  3.967093  0
C  C168  1  0.71251319  0.90014671  0.12534024  1  -0.074846  0  -0.062642  -0.075627  0  3.924231  0
C  C169  1  0.28748730  0.59985380  0.62533910  1  -0.075035  0  -0.062639  -0.075575  0  3.92409  0
C  C170  1  0.28748719  0.09985466  0.87466021  1  -0.07488  0  -0.062587  -0.075594  0  3.924032  0
C  C171  1  0.71251613  0.40014682  0.37466055  1  -0.074871  0  -0.062622  -0.075593  0  3.924189  0
C  C172  1  0.69145375  0.96791997  0.08416915  1  -0.070657  0  -0.001359  0.043916  0  4.011029  0
C  C173  1  0.30854519  0.53207881  0.58416791  1  -0.071199  0  -0.001414  0.043861  0  4.011148  0
C  C174  1  0.30854756  0.03208065  0.91583169  1  -0.070834  0  -0.001421  0.043865  0  4.010874  0
C  C175  1  0.69145704  0.46792108  0.41583173  1  -0.071159  0  -0.001384  0.043934  0  4.010987  0
C  C176  1  0.72721338  0.95240309  0.02940139  1  -0.053241  0  -0.088721  -0.133947  0  4.008819  0
C  C177  1  0.27278527  0.54759535  0.52940135  1  -0.052874  0  -0.088741  -0.13395  0  4.00896  0
C  C178  1  0.27278885  0.04759680  0.97059866  1  -0.053074  0  -0.088704  -0.133878  0  4.008818  0
C  C179  1  0.72721352  0.45240306  0.47059910  1  -0.052841  0  -0.088708  -0.133917  0  4.008758  0
C  C180  1  0.70965313  0.02140220  0.99113433  1  -0.015183  0  -0.083726  -0.118163  0  3.984227  0
C  C181  1  0.29034486  0.47859631  0.49113335  1  -0.015166  0  -0.083665  -0.118152  0  3.984338  0
C  C182  1  0.29035122  0.97859769  0.00886571  1  -0.01522  0  -0.083706  -0.118198  0  3.984295  0
C  C183  1  0.70965182  0.52140210  0.50886670  1  -0.015296  0  -0.083768  -0.118271  0  3.984199  0
C  C184  1  0.65437943  0.11134115  0.00473453  1  0.035772  0  4e-06  0.048394  0  3.989707  0
C  C185  1  0.34561858  0.38865731  0.50473352  1  0.035794  0  -6.4e-05  0.048282  0  3.989823  0
C  C186  1  0.34562294  0.88865948  0.99526592  1  0.03574  0  -1.6e-05  0.048365  0  3.989818  0
C  C187  1  0.65438126  0.61134110  0.49526693  1  0.035852  0  -1.9e-05  0.048359  0  3.989779  0
C  C188  1  0.63755326  0.18548053  0.96651514  1  -0.079685  0  -0.064727  -0.071247  0  3.923935  0
C  C189  1  0.36244354  0.31451782  0.46651432  1  -0.079638  0  -0.064763  -0.071162  0  3.92398  0
C  C190  1  0.36245255  0.81452157  0.03348531  1  -0.079635  0  -0.064675  -0.071108  0  3.923828  0
C  C191  1  0.63755089  0.68547985  0.53348613  1  -0.079645  0  -0.0647  -0.07114  0  3.923956  0
C  C192  1  0.58556267  0.27099563  0.98275938  1  -0.008152  0  -0.081165  -0.130765  0  3.969837  0
C  C193  1  0.41443513  0.22900208  0.48275805  1  -0.008179  0  -0.081182  -0.13093  0  3.969941  0
C  C194  1  0.41444181  0.72900499  0.01724147  1  -0.008211  0  -0.081167  -0.130786  0  3.969801  0
C  C195  1  0.58556352  0.77099559  0.51724200  1  -0.008248  0  -0.081186  -0.130836  0  3.969885  0
C  C196  1  0.54799195  0.28190953  0.03667694  1  0.498277  0  0.06682  0.122064  0  3.899129  0
C  C197  1  0.45200399  0.21808839  0.53667610  1  0.498417  0  0.066804  0.12205  0  3.899134  0
C  C198  1  0.45201161  0.71809183  0.96332351  1  0.498324  0  0.066841  0.122131  0  3.899119  0
C  C199  1  0.54799256  0.78190929  0.46332395  1  0.4983  0  0.066829  0.122057  0  3.899169  0
C  C200  1  0.61574423  0.12909238  0.05850497  1  0.475133  0  0.122351  0.128625  0  3.949956  0
C  C201  1  0.38425077  0.37090568  0.55850355  1  0.475079  0  0.122442  0.128779  0  3.94998  0
C  C202  1  0.38425589  0.87090751  0.94149548  1  0.475079  0  0.122327  0.128537  0  3.950085  0
C  C203  1  0.61574816  0.62909347  0.44149650  1  0.475086  0  0.122453  0.128742  0  3.950049  0
C  C204  1  0.63593921  0.05635918  0.09914237  1  0.550721  0  0.122172  0.130783  0  3.944451  0
C  C205  1  0.36405799  0.44363838  0.59914187  1  0.551068  0  0.122132  0.130676  0  3.944583  0
C  C206  1  0.36406197  0.94364071  0.90085767  1  0.550723  0  0.122194  0.130821  0  3.944419  0
C  C207  1  0.63594319  0.55636150  0.40085818  1  0.551487  0  0.122078  0.130625  0  3.944633  0
N  N208  1  0.19036026  0.38835246  0.33211026  1  0.33343  0  0.051935  0.514943  0  4.191304  0
N  N209  1  0.80963820  0.11164654  0.83211025  1  0.33342  0  0.051907  0.514896  0  4.191325  0
N  N210  1  0.80963761  0.61164668  0.66789059  1  0.333281  0  0.051864  0.514794  0  4.191342  0
N  N211  1  0.19035994  0.88835409  0.16788939  1  0.333459  0  0.051959  0.514938  0  4.191172  0
N  N212  1  0.43885415  0.18248890  0.25016153  1  -1.244325  0  -0.320165  -0.261174  0  3.483895  0
N  N213  1  0.56114587  0.31751477  0.75016093  1  -1.244297  0  -0.320141  -0.261135  0  3.483957  0
N  N214  1  0.56114703  0.81751099  0.74983892  1  -1.2442  0  -0.320138  -0.2611  0  3.483962  0
N  N215  1  0.43885360  0.68248733  0.24983872  1  -1.243994  0  -0.320125  -0.261136  0  3.483977  0
N  N216  1  0.28921528  0.17183531  0.15553915  1  -1.228767  0  -0.315742  -0.277764  0  3.485884  0
N  N217  1  0.71078290  0.32816629  0.65554066  1  -1.228814  0  -0.315611  -0.277567  0  3.485844  0
N  N218  1  0.71078470  0.82816383  0.84445970  1  -1.228822  0  -0.31569  -0.277652  0  3.485987  0
N  N219  1  0.28921537  0.67183507  0.34445939  1  -1.228794  0  -0.315651  -0.277647  0  3.485833  0
N  N220  1  0.60517409  0.07587098  0.15067771  1  -1.208198  0  -0.318958  -0.264946  0  3.505863  0
N  N221  1  0.39482365  0.42412838  0.65067719  1  -1.208191  0  -0.318904  -0.264804  0  3.50581  0
N  N222  1  0.39482351  0.92412669  0.84932234  1  -1.208259  0  -0.319014  -0.265001  0  3.505988  0
N  N223  1  0.60517779  0.57587299  0.34932326  1  -1.208677  0  -0.3189  -0.264827  0  3.505813  0
N  N224  1  0.56218074  0.21267217  0.07307738  1  -1.21324  0  -0.317419  -0.251238  0  3.499533  0
N  N225  1  0.43781750  0.28732597  0.57307665  1  -1.213175  0  -0.317397  -0.251187  0  3.499443  0
N  N226  1  0.43782043  0.78732771  0.92692267  1  -1.213242  0  -0.317424  -0.251268  0  3.499603  0
N  N227  1  0.56218248  0.71267318  0.42692340  1  -1.213191  0  -0.317419  -0.251266  0  3.499578  0
O  O228  1  0.48469796  0.39506511  0.15989319  1  -1.180297  0  -0.373053  -0.593779  0  2.227091  0
O  O229  1  0.51529956  0.10493282  0.65989340  1  -1.180246  0  -0.373079  -0.593854  0  2.227176  0
O  O230  1  0.51530386  0.60493255  0.84010806  1  -1.180325  0  -0.373013  -0.593748  0  2.227065  0
O  O231  1  0.48469937  0.89506632  0.34010505  1  -1.180236  0  -0.37308  -0.593869  0  2.227137  0
O  O232  1  0.32818370  0.42896355  0.09564253  1  -1.169162  0  -0.345567  -0.561801  0  2.059959  0
O  O233  1  0.67181269  0.07103547  0.59564277  1  -1.169109  0  -0.345585  -0.561837  0  2.059975  0
O  O234  1  0.67182040  0.57104077  0.90435912  1  -1.169172  0  -0.34563  -0.561843  0  2.059891  0
O  O235  1  0.32818624  0.92896367  0.40435647  1  -1.169036  0  -0.345561  -0.561813  0  2.059967  0
O  O236  1  0.74581965  0.28453047  0.22266161  1  -1.174815  0  -0.34342  -0.57336  0  2.237186  0
O  O237  1  0.25417531  0.21546933  0.72266265  1  -1.174752  0  -0.343399  -0.573334  0  2.237173  0
O  O238  1  0.25417927  0.71546867  0.77733843  1  -1.174819  0  -0.343414  -0.573346  0  2.237213  0
O  O239  1  0.74582269  0.78453056  0.27733779  1  -1.174759  0  -0.343419  -0.573367  0  2.237191  0
O  O240  1  0.81422945  0.30045338  0.13660167  1  -1.14344  0  -0.333079  -0.539623  0  2.114413  0
O  O241  1  0.18576809  0.19954516  0.63660185  1  -1.143411  0  -0.333082  -0.539622  0  2.114351  0
O  O242  1  0.18577292  0.69954725  0.86339877  1  -1.14346  0  -0.332934  -0.539468  0  2.114474  0
O  O243  1  0.81423203  0.80045473  0.36339820  1  -1.143404  0  -0.333073  -0.539617  0  2.114314  0
O  O244  1  0.31300061  0.42328151  0.34597939  1  -0.486983  0  -0.132108  -0.340451  0  1.967152  0
O  O245  1  0.68699950  0.07671462  0.84597965  1  -0.487023  0  -0.132103  -0.340394  0  1.96708  0
O  O246  1  0.68700081  0.57671394  0.65402226  1  -0.486894  0  -0.132088  -0.340399  0  1.967268  0
O  O247  1  0.31299956  0.92328527  0.15401960  1  -0.487003  0  -0.132137  -0.34044  0  1.967038  0
O  O248  1  0.09323212  0.36077419  0.36442815  1  -0.470744  0  -0.146927  -0.356989  0  1.901201  0
O  O249  1  0.90676664  0.13922575  0.86442785  1  -0.470701  0  -0.146895  -0.356965  0  1.901221  0
O  O250  1  0.90676680  0.63922496  0.63557270  1  -0.470667  0  -0.146889  -0.356919  0  1.901144  0
O  O251  1  0.09323242  0.86077414  0.13557140  1  -0.470755  0  -0.146939  -0.357016  0  1.901222  0
