# generated using pymatgen
data_ZnH7C11N7O5
_symmetry_space_group_name_H-M   'P 1'
_cell_length_a   7.15636662
_cell_length_b   11.77799004
_cell_length_c   16.97838956
_cell_angle_alpha   90.00006829
_cell_angle_beta   92.76059100
_cell_angle_gamma   89.99967147
_symmetry_Int_Tables_number   1
_chemical_formula_structural   ZnH7C11N7O5
_chemical_formula_sum   'Zn4 H28 C44 N28 O20'
_cell_volume   1429.40720714
_cell_formula_units_Z   4
loop_
 _symmetry_equiv_pos_site_id
 _symmetry_equiv_pos_as_xyz
  1  'x, y, z'
loop_
 _atom_site_type_symbol
 _atom_site_label
 _atom_site_symmetry_multiplicity
 _atom_site_fract_x
 _atom_site_fract_y
 _atom_site_fract_z
 _atom_site_occupancy
 _atom_site_hle17_bader_spin_density
 _atom_site_hle17_ddec_charge
 _atom_site_hle17_ddec_spin_density
 _atom_site_hle17_ddec_sum_bond_order
 _atom_site_hle17_magmom
 _atom_site_hse06_10hf_bader_spin_density
 _atom_site_hse06_10hf_ddec_charge
 _atom_site_hse06_10hf_ddec_spin_density
 _atom_site_hse06_10hf_ddec_sum_bond_order
 _atom_site_hse06_10hf_magmom
 _atom_site_hse06_bader_spin_density
 _atom_site_hse06_ddec_charge
 _atom_site_hse06_ddec_spin_density
 _atom_site_hse06_ddec_sum_bond_order
 _atom_site_hse06_magmom
 _atom_site_pbe_bader_spin_density
 _atom_site_pbe_cm5_charge
 _atom_site_pbe_ddec_charge
 _atom_site_pbe_ddec_spin_density
 _atom_site_pbe_ddec_sum_bond_order
 _atom_site_pbe_magmom
Zn  Zn0  1  0.18667029  0.07859821  0.27266543  1  0  0.996453  0  1.864163  0  0  0.797042  0  2.348273  0  0  0.843439  0  2.292761  0  0  0.717647  0.764657  0  2.386545  0
Zn  Zn1  1  0.81332692  0.57859664  0.22733419  1  0  0.996574  0  1.864059  0  0  0.797127  0  2.348175  0  0  0.843525  0  2.292665  0  0  0.717677  0.764743  0  2.386446  0
Zn  Zn2  1  0.81332338  0.92140260  0.72733378  1  0  0.99657  0  1.864032  0  0  0.797125  0  2.348144  0  0  0.843524  0  2.292629  0  0  0.717659  0.764743  0  2.386424  0
Zn  Zn3  1  0.18667796  0.42140162  0.77266580  1  0  0.996573  0  1.864042  0  0  0.797144  0  2.348155  0  0  0.84354  0  2.292639  0  0  0.717662  0.764755  0  2.386435  0
H  H4  1  0.25532249  0.37860110  0.51921592  1  0  0.122967  0  0.934971  0  0  0.133699  0  0.993435  0  0  0.137267  0  0.991248  0  0  0.11425  0.131116  0  0.995094  0
H  H5  1  0.74468624  0.87859767  0.98078316  1  0  0.123091  0  0.934776  0  0  0.133783  0  0.993282  0  0  0.137353  0  0.99109  0  0  0.114279  0.131207  0  0.994951  0
H  H6  1  0.74468656  0.62140225  0.48078296  1  0  0.123075  0  0.934745  0  0  0.13377  0  0.993253  0  0  0.13734  0  0.99106  0  0  0.114276  0.13119  0  0.994913  0
H  H7  1  0.25531723  0.12139889  0.01921621  1  0  0.122985  0  0.93492  0  0  0.133703  0  0.993393  0  0  0.137272  0  0.991205  0  0  0.114254  0.131127  0  0.995055  0
H  H8  1  0.22031741  0.73627344  0.56324536  1  0  0.123242  0  0.994059  0  0  0.124067  0  1.071474  0  0  0.128182  0  1.06833  0  0  0.109368  0.121066  0  1.073789  0
H  H9  1  0.77969267  0.23627151  0.93675539  1  0  0.123202  0  0.994091  0  0  0.12406  0  1.071455  0  0  0.128175  0  1.06831  0  0  0.109372  0.121061  0  1.073761  0
H  H10  1  0.77968747  0.26372907  0.43675463  1  0  0.123213  0  0.994059  0  0  0.124038  0  1.071464  0  0  0.128153  0  1.068319  0  0  0.109344  0.121038  0  1.073776  0
H  H11  1  0.22031506  0.76372675  0.06324700  1  0  0.123259  0  0.994049  0  0  0.124069  0  1.071474  0  0  0.128184  0  1.068331  0  0  0.109384  0.12107  0  1.073785  0
H  H12  1  0.34388776  0.61865872  0.33088683  1  0  0.136459  0  0.958211  0  0  0.1399  0  1.030284  0  0  0.1443  0  1.025825  0  0  0.118732  0.136633  0  1.033703  0
H  H13  1  0.65610486  0.11865506  0.16911157  1  0  0.136459  0  0.958278  0  0  0.13994  0  1.030292  0  0  0.144338  0  1.025839  0  0  0.118728  0.136673  0  1.033707  0
H  H14  1  0.65610309  0.38134548  0.66911116  1  0  0.136445  0  0.958307  0  0  0.139958  0  1.030286  0  0  0.144356  0  1.025831  0  0  0.118736  0.13669  0  1.033702  0
H  H15  1  0.34389164  0.88133895  0.83088887  1  0  0.136464  0  0.958229  0  0  0.139944  0  1.030245  0  0  0.144343  0  1.025788  0  0  0.118759  0.13668  0  1.033658  0
H  H16  1  0.43768777  0.47903026  0.26315028  1  0  0.105111  0  0.961132  0  0  0.108826  0  1.034089  0  0  0.111761  0  1.030417  0  0  0.139629  0.106625  0  1.036814  0
H  H17  1  0.56231970  0.97903299  0.23684924  1  0  0.105134  0  0.961117  0  0  0.108841  0  1.034081  0  0  0.111783  0  1.030387  0  0  0.139648  0.106636  0  1.036808  0
H  H18  1  0.56230865  0.52096885  0.73684662  1  0  0.105088  0  0.961143  0  0  0.108798  0  1.034122  0  0  0.111742  0  1.030425  0  0  0.139607  0.106592  0  1.036856  0
H  H19  1  0.43769222  0.02096527  0.76315264  1  0  0.105046  0  0.961255  0  0  0.108774  0  1.034191  0  0  0.111702  0  1.030539  0  0  0.139593  0.106568  0  1.036915  0
H  H20  1  0.17533064  0.25594780  0.41996370  1  0  0.120872  0  0.92229  0  0  0.131217  0  0.981801  0  0  0.133944  0  0.977904  0  0  0.152734  0.12914  0  0.984728  0
H  H21  1  0.82466632  0.75594339  0.08003606  1  0  0.120847  0  0.922307  0  0  0.131204  0  0.981811  0  0  0.133931  0  0.977914  0  0  0.152715  0.129126  0  0.984743  0
H  H22  1  0.82467008  0.74405640  0.58003799  1  0  0.120801  0  0.922398  0  0  0.131155  0  0.981914  0  0  0.133881  0  0.978019  0  0  0.152715  0.129075  0  0.984844  0
H  H23  1  0.17533154  0.24405317  0.91996264  1  0  0.120842  0  0.922288  0  0  0.131207  0  0.981805  0  0  0.133935  0  0.977906  0  0  0.152711  0.129125  0  0.984743  0
H  H24  1  0.18836109  0.79863280  0.29648777  1  0  0.133744  0  0.929981  0  0  0.139355  0  0.995547  0  0  0.142805  0  0.991321  0  0  0.149924  0.136761  0  0.998645  0
H  H25  1  0.81164247  0.29863120  0.20351214  1  0  0.133723  0  0.929994  0  0  0.13936  0  0.995527  0  0  0.142808  0  0.9913  0  0  0.149922  0.136764  0  0.998642  0
H  H26  1  0.81164377  0.20136801  0.70351105  1  0  0.133726  0  0.930004  0  0  0.139337  0  0.995575  0  0  0.142786  0  0.991348  0  0  0.149927  0.136743  0  0.998674  0
H  H27  1  0.18835963  0.70136706  0.79648899  1  0  0.133751  0  0.92997  0  0  0.139371  0  0.995519  0  0  0.14282  0  0.991293  0  0  0.149935  0.136775  0  0.998625  0
H  H28  1  0.40893020  0.88912428  0.52519930  1  0  0.112446  0  0.968974  0  0  0.11002  0  1.049971  0  0  0.113956  0  1.044974  0  0  0.138429  0.107132  0  1.053572  0
H  H29  1  0.59107426  0.38912053  0.97480090  1  0  0.112459  0  0.968916  0  0  0.110016  0  1.049941  0  0  0.113955  0  1.04494  0  0  0.138422  0.10713  0  1.053539  0
H  H30  1  0.59105652  0.11087822  0.47480157  1  0  0.112532  0  0.968706  0  0  0.110069  0  1.049771  0  0  0.114011  0  1.044765  0  0  0.138444  0.107183  0  1.053377  0
H  H31  1  0.40893343  0.61087603  0.02519973  1  0  0.112411  0  0.968886  0  0  0.109988  0  1.049902  0  0  0.113924  0  1.044903  0  0  0.138416  0.107108  0  1.053502  0
C  C32  1  0.29449501  0.48844991  0.41793196  1  0  0.204872  0  3.756175  0  0  0.198404  0  4.007886  0  0  0.203483  0  4.030436  0  0  0.104076  0.194901  0  3.992696  0
C  C33  1  0.70550817  0.98844762  0.08206691  1  0  0.204841  0  3.756134  0  0  0.198438  0  4.007769  0  0  0.203518  0  4.030321  0  0  0.104112  0.194937  0  3.992581  0
C  C34  1  0.70550846  0.51155259  0.58206742  1  0  0.204888  0  3.756008  0  0  0.198446  0  4.007696  0  0  0.203525  0  4.030247  0  0  0.104138  0.194946  0  3.992501  0
C  C35  1  0.29449249  0.01154894  0.91793184  1  0  0.204757  0  3.756044  0  0  0.198249  0  4.007805  0  0  0.203325  0  4.030357  0  0  0.103945  0.19475  0  3.992621  0
C  C36  1  0.26105009  0.46499272  0.49666425  1  0  -0.156197  0  3.693862  0  0  -0.193908  0  3.952733  0  0  -0.196486  0  3.973573  0  0  -0.082361  -0.192048  0  3.938777  0
C  C37  1  0.73895752  0.96499018  0.00333585  1  0  -0.156159  0  3.693623  0  0  -0.193857  0  3.952432  0  0  -0.196428  0  3.973266  0  0  -0.082365  -0.192015  0  3.938502  0
C  C38  1  0.73895478  0.53500893  0.50333515  1  0  -0.156156  0  3.693706  0  0  -0.193849  0  3.952542  0  0  -0.196425  0  3.973382  0  0  -0.082372  -0.191998  0  3.93859  0
C  C39  1  0.26104457  0.03500723  0.99666469  1  0  -0.15615  0  3.693734  0  0  -0.193817  0  3.952584  0  0  -0.196391  0  3.973415  0  0  -0.082339  -0.191967  0  3.938646  0
C  C40  1  0.23615601  0.55501157  0.54880022  1  0  -0.025592  0  3.774704  0  0  -0.001045  0  4.009753  0  0  -0.007376  0  4.033302  0  0  -0.014872  0.002791  0  3.994385  0
C  C41  1  0.76385155  0.05500972  0.95119977  1  0  -0.02573  0  3.774915  0  0  -0.001152  0  4.00993  0  0  -0.007494  0  4.033493  0  0  -0.014865  0.002708  0  3.994528  0
C  C42  1  0.76385028  0.44499348  0.45120039  1  0  -0.025672  0  3.774981  0  0  -0.00109  0  4.010007  0  0  -0.007425  0  4.033561  0  0  -0.014843  0.002761  0  3.994614  0
C  C43  1  0.23615194  0.94498854  0.04880079  1  0  -0.025548  0  3.774914  0  0  -0.00101  0  4.009934  0  0  -0.007336  0  4.033469  0  0  -0.014813  0.002836  0  3.994565  0
C  C44  1  0.24607014  0.66707989  0.52271702  1  0  -0.157606  0  3.69259  0  0  -0.193066  0  3.945646  0  0  -0.19575  0  3.965241  0  0  -0.086086  -0.191101  0  3.932524  0
C  C45  1  0.75393915  0.16707642  0.97728191  1  0  -0.157602  0  3.692786  0  0  -0.193103  0  3.945817  0  0  -0.195774  0  3.965401  0  0  -0.08613  -0.191137  0  3.932695  0
C  C46  1  0.75393332  0.33292262  0.47728177  1  0  -0.157656  0  3.69274  0  0  -0.193151  0  3.945816  0  0  -0.195823  0  3.965397  0  0  -0.086133  -0.191189  0  3.932701  0
C  C47  1  0.24606713  0.83292099  0.02271811  1  0  -0.157659  0  3.692705  0  0  -0.193081  0  3.945753  0  0  -0.195766  0  3.965344  0  0  -0.086106  -0.191115  0  3.932639  0
C  C48  1  0.28686601  0.68826078  0.44467438  1  0  0.200921  0  3.772656  0  0  0.198085  0  4.015326  0  0  0.202793  0  4.038034  0  0  0.101117  0.194821  0  3.999997  0
C  C49  1  0.71314137  0.18825927  0.05532550  1  0  0.20103  0  3.77259  0  0  0.198209  0  4.015244  0  0  0.202914  0  4.037961  0  0  0.101124  0.194935  0  3.99993  0
C  C50  1  0.71313745  0.31174087  0.55532500  1  0  0.201059  0  3.772631  0  0  0.198259  0  4.015261  0  0  0.202961  0  4.037983  0  0  0.101174  0.194984  0  3.999946  0
C  C51  1  0.28686354  0.81173814  0.94467567  1  0  0.200951  0  3.772683  0  0  0.198076  0  4.015389  0  0  0.202787  0  4.038092  0  0  0.101077  0.194806  0  4.000079  0
C  C52  1  0.31310393  0.60016077  0.39155868  1  0  -0.181406  0  3.642016  0  0  -0.215729  0  3.901165  0  0  -0.218128  0  3.9169  0  0  -0.074439  -0.214097  0  3.890755  0
C  C53  1  0.68689727  0.10015859  0.10844102  1  0  -0.181486  0  3.641951  0  0  -0.215873  0  3.901087  0  0  -0.218275  0  3.916828  0  0  -0.074446  -0.214233  0  3.890672  0
C  C54  1  0.68689532  0.39984089  0.60844004  1  0  -0.181558  0  3.642058  0  0  -0.215943  0  3.901155  0  0  -0.218346  0  3.916898  0  0  -0.0745  -0.214301  0  3.890737  0
C  C55  1  0.31310064  0.89983797  0.89156003  1  0  -0.181407  0  3.641937  0  0  -0.215727  0  3.90107  0  0  -0.218128  0  3.916806  0  0  -0.07439  -0.214088  0  3.890659  0
C  C56  1  0.37899084  0.40319232  0.28832745  1  0  0.171585  0  3.624933  0  0  0.112085  0  3.906436  0  0  0.122896  0  3.918943  0  0  0.158567  0.104995  0  3.898  0
C  C57  1  0.62101174  0.90319395  0.21167193  1  0  0.171551  0  3.624871  0  0  0.112049  0  3.906386  0  0  0.122861  0  3.918895  0  0  0.15854  0.104963  0  3.897942  0
C  C58  1  0.62100420  0.59680849  0.71167002  1  0  0.171647  0  3.624993  0  0  0.112137  0  3.906516  0  0  0.122949  0  3.919026  0  0  0.158618  0.105052  0  3.898079  0
C  C59  1  0.37899735  0.09680261  0.78832872  1  0  0.1716  0  3.624944  0  0  0.112077  0  3.906463  0  0  0.122886  0  3.918966  0  0  0.158505  0.104998  0  3.898009  0
C  C60  1  0.24588088  0.28986344  0.37014829  1  0  0.198324  0  3.598592  0  0  0.126962  0  3.86869  0  0  0.14279  0  3.878305  0  0  0.174104  0.116633  0  3.862033  0
C  C61  1  0.75411578  0.78986021  0.12985208  1  0  0.198239  0  3.598649  0  0  0.126859  0  3.868742  0  0  0.142687  0  3.878358  0  0  0.174067  0.116523  0  3.862092  0
C  C62  1  0.75411701  0.71014076  0.62985158  1  0  0.198273  0  3.598637  0  0  0.126872  0  3.868739  0  0  0.142697  0  3.878355  0  0  0.174051  0.116545  0  3.862079  0
C  C63  1  0.24588490  0.21013635  0.87014784  1  0  0.198404  0  3.598506  0  0  0.126973  0  3.868655  0  0  0.142799  0  3.878272  0  0  0.174118  0.116644  0  3.862003  0
C  C64  1  0.24377189  0.84659339  0.34692565  1  0  0.197722  0  3.577825  0  0  0.129032  0  3.840725  0  0  0.144876  0  3.849851  0  0  0.176424  0.118727  0  3.83446  0
C  C65  1  0.75623124  0.34659020  0.15307487  1  0  0.197799  0  3.577788  0  0  0.129067  0  3.840698  0  0  0.144919  0  3.849822  0  0  0.176431  0.118757  0  3.83443  0
C  C66  1  0.75622880  0.15340911  0.65307427  1  0  0.197829  0  3.577775  0  0  0.129091  0  3.840726  0  0  0.144944  0  3.84985  0  0  0.176455  0.118786  0  3.834451  0
C  C67  1  0.24377087  0.65340721  0.84692625  1  0  0.197796  0  3.577724  0  0  0.12908  0  3.840655  0  0  0.144925  0  3.84978  0  0  0.176449  0.11878  0  3.834377  0
C  C68  1  0.35525803  0.89493261  0.46436173  1  0  0.172524  0  3.607335  0  0  0.116539  0  3.877842  0  0  0.128107  0  3.888043  0  0  0.164594  0.108937  0  3.871049  0
C  C69  1  0.64474325  0.39493046  0.03563880  1  0  0.172551  0  3.607261  0  0  0.116567  0  3.877771  0  0  0.128132  0  3.887974  0  0  0.164597  0.108965  0  3.870972  0
C  C70  1  0.64473291  0.10506989  0.53564039  1  0  0.172471  0  3.607098  0  0  0.116493  0  3.877622  0  0  0.128056  0  3.887827  0  0  0.164596  0.108885  0  3.870835  0
C  C71  1  0.35526024  0.60506780  0.96436117  1  0  0.172579  0  3.607284  0  0  0.116563  0  3.877809  0  0  0.12813  0  3.888011  0  0  0.164576  0.108948  0  3.871026  0
C  C72  1  0.19808459  0.53443604  0.63396296  1  0  0.621461  0  3.942073  0  0  0.574446  0  4.233012  0  0  0.607934  0  4.226765  0  0  0.193853  0.551822  0  4.236328  0
C  C73  1  0.80191757  0.03443306  0.86603751  1  0  0.621497  0  3.942015  0  0  0.574466  0  4.232967  0  0  0.607958  0  4.226717  0  0  0.193874  0.55184  0  4.236285  0
C  C74  1  0.80191746  0.46556476  0.36603580  1  0  0.621439  0  3.942281  0  0  0.574395  0  4.233258  0  0  0.607882  0  4.227012  0  0  0.193838  0.551769  0  4.236576  0
C  C75  1  0.19808311  0.96556859  0.13396242  1  0  0.621403  0  3.942126  0  0  0.574413  0  4.23304  0  0  0.607901  0  4.226795  0  0  0.193829  0.551777  0  4.236365  0
N  N76  1  0.31049202  0.39812118  0.36291564  1  0  -0.116496  0  3.539532  0  0  -0.026067  0  3.753866  0  0  -0.043194  0  3.777635  0  0  -0.209646  -0.014757  0  3.737658  0
N  N77  1  0.68951059  0.89811904  0.13708314  1  0  -0.116467  0  3.53958  0  0  -0.026045  0  3.75389  0  0  -0.043174  0  3.777665  0  0  -0.209643  -0.014738  0  3.737684  0
N  N78  1  0.68950865  0.60188048  0.63708369  1  0  -0.116452  0  3.539605  0  0  -0.026026  0  3.75395  0  0  -0.043152  0  3.77772  0  0  -0.209645  -0.014717  0  3.737735  0
N  N79  1  0.31049149  0.10187752  0.86291680  1  0  -0.116442  0  3.539511  0  0  -0.025974  0  3.753843  0  0  -0.043101  0  3.777619  0  0  -0.209515  -0.014673  0  3.737637  0
N  N80  1  0.27543422  0.23390641  0.30464274  1  0  -0.254796  0  3.246371  0  0  -0.175647  0  3.554279  0  0  -0.192907  0  3.564584  0  0  -0.242126  -0.164136  0  3.547321  0
N  N81  1  0.72456017  0.73390426  0.19535755  1  0  -0.254733  0  3.24631  0  0  -0.175556  0  3.554177  0  0  -0.192816  0  3.564484  0  0  -0.242094  -0.16404  0  3.54721  0
N  N82  1  0.72455669  0.76609609  0.69535761  1  0  -0.254702  0  3.246324  0  0  -0.175484  0  3.554149  0  0  -0.192743  0  3.564457  0  0  -0.242061  -0.163979  0  3.547197  0
N  N83  1  0.27544611  0.26609315  0.80464246  1  0  -0.254861  0  3.246369  0  0  -0.175676  0  3.55427  0  0  -0.192934  0  3.564573  0  0  -0.242122  -0.164165  0  3.547311  0
N  N84  1  0.36036410  0.30497607  0.25240518  1  0  -0.207072  0  2.872474  0  0  -0.197019  0  3.148923  0  0  -0.202991  0  3.161753  0  0  -0.227573  -0.193097  0  3.140419  0
N  N85  1  0.63963240  0.80497685  0.24759402  1  0  -0.207026  0  2.872415  0  0  -0.196976  0  3.148852  0  0  -0.20295  0  3.161684  0  0  -0.22755  -0.193058  0  3.140338  0
N  N86  1  0.63962537  0.69502473  0.74759338  1  0  -0.207141  0  2.872452  0  0  -0.197102  0  3.148889  0  0  -0.203077  0  3.161722  0  0  -0.227599  -0.193181  0  3.140388  0
N  N87  1  0.36037669  0.19502226  0.75240663  1  0  -0.207056  0  2.872425  0  0  -0.196995  0  3.148857  0  0  -0.202966  0  3.161685  0  0  -0.227562  -0.19308  0  3.140342  0
N  N88  1  0.29740090  0.80315980  0.41897603  1  0  -0.110953  0  3.536434  0  0  -0.019532  0  3.745803  0  0  -0.035924  0  3.76785  0  0  -0.207264  -0.008699  0  3.730658  0
N  N89  1  0.70260262  0.30315667  0.08102387  1  0  -0.111095  0  3.536634  0  0  -0.019662  0  3.745982  0  0  -0.036058  0  3.768034  0  0  -0.207214  -0.008822  0  3.730838  0
N  N90  1  0.70259556  0.19684270  0.58102264  1  0  -0.111057  0  3.536567  0  0  -0.019637  0  3.745944  0  0  -0.036029  0  3.767994  0  0  -0.207324  -0.0088  0  3.730803  0
N  N91  1  0.29740089  0.69683904  0.91897727  1  0  -0.111029  0  3.536518  0  0  -0.019575  0  3.745882  0  0  -0.03597  0  3.767929  0  0  -0.207256  -0.008739  0  3.730748  0
N  N92  1  0.26800906  0.95783389  0.34934346  1  0  -0.277061  0  3.284831  0  0  -0.199868  0  3.598686  0  0  -0.217722  0  3.609955  0  0  -0.245571  -0.187974  0  3.59109  0
N  N93  1  0.73198603  0.45783163  0.15065643  1  0  -0.277121  0  3.284641  0  0  -0.199912  0  3.598499  0  0  -0.217772  0  3.609768  0  0  -0.245584  -0.188009  0  3.590893  0
N  N94  1  0.73198183  0.04216861  0.65065630  1  0  -0.277178  0  3.284649  0  0  -0.199932  0  3.598476  0  0  -0.217798  0  3.609749  0  0  -0.245593  -0.188029  0  3.590865  0
N  N95  1  0.26801607  0.54216578  0.84934411  1  0  -0.27713  0  3.284625  0  0  -0.199943  0  3.598513  0  0  -0.217792  0  3.609773  0  0  -0.245616  -0.188035  0  3.590896  0
N  N96  1  0.33905214  0.98896223  0.42320902  1  0  -0.210074  0  2.92689  0  0  -0.193835  0  3.205723  0  0  -0.201964  0  3.220407  0  0  -0.220797  -0.188414  0  3.19591  0
N  N97  1  0.66094264  0.48895840  0.07679029  1  0  -0.210034  0  2.926634  0  0  -0.193805  0  3.205453  0  0  -0.201929  0  3.220134  0  0  -0.220842  -0.188385  0  3.195638  0
N  N98  1  0.66093317  0.01104112  0.57679123  1  0  -0.210031  0  2.926598  0  0  -0.193805  0  3.205402  0  0  -0.201927  0  3.220086  0  0  -0.220814  -0.188383  0  3.195588  0
N  N99  1  0.33906084  0.51103816  0.92320967  1  0  -0.210077  0  2.926686  0  0  -0.193822  0  3.205518  0  0  -0.201951  0  3.220197  0  0  -0.220763  -0.188394  0  3.195696  0
N  N100  1  0.82943319  0.10897413  0.33246552  1  0  0.697585  0  4.123504  0  0  0.737128  0  4.399035  0  0  0.766199  0  4.404229  0  0  0.102289  0.717487  0  4.395064  0
N  N101  1  0.17056097  0.60897472  0.16753526  1  0  0.697595  0  4.123521  0  0  0.73705  0  4.399104  0  0  0.766123  0  4.404292  0  0  0.102268  0.717426  0  4.395111  0
N  N102  1  0.17055771  0.89102667  0.66753483  1  0  0.697645  0  4.123384  0  0  0.737137  0  4.398933  0  0  0.766209  0  4.404119  0  0  0.102334  0.717511  0  4.39494  0
N  N103  1  0.82944249  0.39102778  0.83246353  1  0  0.697503  0  4.123168  0  0  0.736907  0  4.398878  0  0  0.765976  0  4.404069  0  0  0.102161  0.717277  0  4.394891  0
O  O104  1  0.24490721  0.43462269  0.66075240  1  0  -0.63472  0  2.020481  0  0  -0.561386  0  2.287892  0  0  -0.58949  0  2.272544  0  0  -0.336268  -0.541618  0  2.297656  0
O  O105  1  0.75509822  0.93462067  0.83924785  1  0  -0.634658  0  2.020514  0  0  -0.56134  0  2.287925  0  0  -0.589442  0  2.272575  0  0  -0.336232  -0.541575  0  2.297694  0
O  O106  1  0.75509628  0.56538151  0.33924816  1  0  -0.634717  0  2.020463  0  0  -0.561382  0  2.287869  0  0  -0.589485  0  2.272521  0  0  -0.336271  -0.541614  0  2.297632  0
O  O107  1  0.24489826  0.06538013  0.16075141  1  0  -0.634537  0  2.02064  0  0  -0.561219  0  2.28804  0  0  -0.589322  0  2.272693  0  0  -0.336178  -0.541445  0  2.297803  0
O  O108  1  0.12898506  0.61172867  0.67378921  1  0  -0.602997  0  1.920782  0  0  -0.559809  0  2.147607  0  0  -0.583319  0  2.141415  0  0  -0.32005  -0.543389  0  2.151309  0
O  O109  1  0.87101492  0.11172793  0.82620834  1  0  -0.60308  0  1.920649  0  0  -0.559872  0  2.147462  0  0  -0.583383  0  2.141269  0  0  -0.320097  -0.543446  0  2.151161  0
O  O110  1  0.87101140  0.38827553  0.32620946  1  0  -0.602962  0  1.920998  0  0  -0.55976  0  2.147826  0  0  -0.583267  0  2.141634  0  0  -0.320034  -0.543341  0  2.151533  0
O  O111  1  0.12898437  0.88827203  0.17379215  1  0  -0.603033  0  1.920517  0  0  -0.559921  0  2.147409  0  0  -0.583434  0  2.14122  0  0  -0.32011  -0.54349  0  2.151107  0
O  O112  1  0.90366515  0.09321234  0.26417651  1  0  -0.520649  0  1.871674  0  0  -0.485476  0  2.129299  0  0  -0.506905  0  2.117053  0  0  -0.212138  -0.470243  0  2.137087  0
O  O113  1  0.09632777  0.59321416  0.23582483  1  0  -0.520654  0  1.871818  0  0  -0.485394  0  2.129424  0  0  -0.506819  0  2.117172  0  0  -0.212036  -0.470163  0  2.137212  0
O  O114  1  0.09632577  0.90678677  0.73582443  1  0  -0.520643  0  1.871746  0  0  -0.485452  0  2.129381  0  0  -0.506868  0  2.117126  0  0  -0.212067  -0.470227  0  2.137177  0
O  O115  1  0.90367570  0.40678835  0.76417455  1  0  -0.520527  0  1.871537  0  0  -0.485299  0  2.129194  0  0  -0.50672  0  2.116947  0  0  -0.211988  -0.470068  0  2.136982  0
O  O116  1  0.93483329  0.11197791  0.39350379  1  0  -0.44198  0  1.761217  0  0  -0.435897  0  1.962835  0  0  -0.450354  0  1.957083  0  0  -0.170805  -0.425773  0  1.966646  0
O  O117  1  0.06516085  0.61197706  0.10649758  1  0  -0.442033  0  1.761277  0  0  -0.435921  0  1.962929  0  0  -0.450381  0  1.957177  0  0  -0.170833  -0.425805  0  1.966737  0
O  O118  1  0.06515901  0.88802290  0.60649658  1  0  -0.442097  0  1.761223  0  0  -0.435986  0  1.962851  0  0  -0.450445  0  1.957094  0  0  -0.170887  -0.425867  0  1.966663  0
O  O119  1  0.93484122  0.38802205  0.89350178  1  0  -0.442066  0  1.761233  0  0  -0.435917  0  1.962882  0  0  -0.450378  0  1.957129  0  0  -0.170844  -0.425808  0  1.966699  0
O  O120  1  0.65620137  0.12027603  0.33291984  1  0  -0.418748  0  1.758822  0  0  -0.418547  0  1.970189  0  0  -0.432259  0  1.96477  0  0  -0.165754  -0.408921  0  1.973781  0
O  O121  1  0.34379407  0.62027600  0.16708038  1  0  -0.41874  0  1.75863  0  0  -0.418552  0  1.970056  0  0  -0.432261  0  1.964637  0  0  -0.16581  -0.408952  0  1.973678  0
O  O122  1  0.34379233  0.87972648  0.66708056  1  0  -0.418705  0  1.758576  0  0  -0.418534  0  1.969995  0  0  -0.432242  0  1.964569  0  0  -0.165799  -0.408927  0  1.973606  0
O  O123  1  0.65620796  0.37972735  0.83291721  1  0  -0.418696  0  1.758527  0  0  -0.418497  0  1.96999  0  0  -0.432212  0  1.96458  0  0  -0.165765  -0.40889  0  1.973606  0
