# generated using pymatgen
data_CdH4C4(N3O)2
_symmetry_space_group_name_H-M   'P 1'
_cell_length_a   6.72535577
_cell_length_b   8.23562490
_cell_length_c   6.69736236
_cell_angle_alpha   90.00124416
_cell_angle_beta   89.99625783
_cell_angle_gamma   93.13481892
_symmetry_Int_Tables_number   1
_chemical_formula_structural   CdH4C4(N3O)2
_chemical_formula_sum   'Cd2 H8 C8 N12 O4'
_cell_volume   370.39512503
_cell_formula_units_Z   2
loop_
 _symmetry_equiv_pos_site_id
 _symmetry_equiv_pos_as_xyz
  1  'x, y, z'
loop_
 _atom_site_type_symbol
 _atom_site_label
 _atom_site_symmetry_multiplicity
 _atom_site_fract_x
 _atom_site_fract_y
 _atom_site_fract_z
 _atom_site_occupancy
 _atom_site_pbe_bader_spin_density
 _atom_site_pbe_cm5_charge
 _atom_site_pbe_ddec_charge
 _atom_site_pbe_ddec_spin_density
 _atom_site_pbe_ddec_sum_bond_order
 _atom_site_pbe_magmom
Cd  Cd0  1  0.00000322  0.50000610  0.50001125  1  0  0.816344  0.93512  0  2.266586  0
Cd  Cd1  1  0.49998951  0.00000075  0.00000671  1  0  0.816383  0.93518  0  2.266669  0
H  H2  1  0.60859193  0.46644509  0.33872222  1  0  0.287927  0.300128  0  0.981062  0
H  H3  1  0.89139882  0.03356160  0.83871314  1  0  0.288048  0.300206  0  0.981052  0
H  H4  1  0.39140290  0.53355635  0.66127486  1  0  0.287946  0.300188  0  0.980931  0
H  H5  1  0.10857542  0.96644249  0.16129141  1  0  0.287939  0.300043  0  0.980952  0
H  H6  1  0.00292514  0.67372313  0.14251144  1  0  0.307876  0.358722  0  0.976625  0
H  H7  1  0.49705994  0.82627747  0.64252365  1  0  0.307885  0.35869  0  0.97663  0
H  H8  1  0.99706831  0.32627953  0.85747072  1  0  0.307923  0.358757  0  0.976563  0
H  H9  1  0.50294043  0.17371903  0.35747642  1  0  0.307915  0.358702  0  0.976674  0
C  C10  1  0.37691612  0.64842524  0.18483606  1  0  0.30984  0.501494  0  4.239642  0
C  C11  1  0.12311082  0.85156498  0.68484877  1  0  0.309861  0.501789  0  4.239352  0
C  C12  1  0.62307790  0.35156647  0.81514012  1  0  0.309986  0.501703  0  4.239075  0
C  C13  1  0.87687259  0.14842441  0.31514682  1  0  0.309622  0.501241  0  4.23842  0
C  C14  1  0.71985684  0.64497693  0.17664204  1  0  0.330521  0.700558  0  4.159204  0
C  C15  1  0.78017641  0.85500988  0.67666467  1  0  0.330892  0.701027  0  4.159303  0
C  C16  1  0.28013046  0.35502337  0.82336400  1  0  0.330541  0.7006  0  4.158932  0
C  C17  1  0.21986689  0.14496666  0.32333540  1  0  0.330664  0.700661  0  4.157843  0
N  N18  1  0.21413741  0.60407003  0.23588963  1  0  -0.399634  -0.579836  0  3.082752  0
N  N19  1  0.28590765  0.89594020  0.73591450  1  0  -0.399647  -0.580188  0  3.082264  0
N  N20  1  0.78585670  0.39592289  0.76409700  1  0  -0.399724  -0.57991  0  3.082633  0
N  N21  1  0.71408026  0.10406739  0.26408557  1  0  -0.39951  -0.579627  0  3.082487  0
N  N22  1  0.74144591  0.51944067  0.29257270  1  0  -0.565617  -0.753679  0  3.226591  0
N  N23  1  0.75859818  0.98053246  0.79255064  1  0  -0.565835  -0.753878  0  3.227097  0
N  N24  1  0.25854395  0.48055473  0.70741543  1  0  -0.565705  -0.753804  0  3.226555  0
N  N25  1  0.24145410  0.01942695  0.20741210  1  0  -0.565646  -0.75348  0  3.226982  0
N  N26  1  0.54461000  0.70751186  0.11787239  1  0  -0.350432  -0.513708  0  3.456723  0
N  N27  1  0.95544837  0.79251678  0.61791343  1  0  -0.350648  -0.513998  0  3.457428  0
N  N28  1  0.45537777  0.29247626  0.88212618  1  0  -0.350586  -0.514021  0  3.456553  0
N  N29  1  0.04455186  0.20754910  0.38215234  1  0  -0.35049  -0.513943  0  3.454888  0
O  O30  1  0.87847135  0.72789161  0.10106572  1  0  -0.328648  -0.481218  0  2.314615  0
O  O31  1  0.62154545  0.77211493  0.60109791  1  0  -0.328767  -0.481303  0  2.314537  0
O  O32  1  0.12150990  0.27210754  0.89893435  1  0  -0.328566  -0.481097  0  2.314571  0
O  O33  1  0.37849133  0.22790794  0.39893053  1  0  -0.328658  -0.481119  0  2.314121  0
