# generated using pymatgen
data_CdH14C12(BrN)2
_symmetry_space_group_name_H-M   'P 1'
_cell_length_a   3.99616672
_cell_length_b   11.47211758
_cell_length_c   14.85019372
_cell_angle_alpha   90.00035514
_cell_angle_beta   89.99991008
_cell_angle_gamma   88.03256055
_symmetry_Int_Tables_number   1
_chemical_formula_structural   CdH14C12(BrN)2
_chemical_formula_sum   'Cd2 H28 C24 Br4 N4'
_cell_volume   680.39829265
_cell_formula_units_Z   2
loop_
 _symmetry_equiv_pos_site_id
 _symmetry_equiv_pos_as_xyz
  1  'x, y, z'
loop_
 _atom_site_type_symbol
 _atom_site_label
 _atom_site_symmetry_multiplicity
 _atom_site_fract_x
 _atom_site_fract_y
 _atom_site_fract_z
 _atom_site_occupancy
 _atom_site_hle17_bader_spin_density
 _atom_site_hle17_ddec_charge
 _atom_site_hle17_ddec_spin_density
 _atom_site_hle17_ddec_sum_bond_order
 _atom_site_hle17_magmom
 _atom_site_hse06_10hf_bader_spin_density
 _atom_site_hse06_10hf_ddec_charge
 _atom_site_hse06_10hf_ddec_spin_density
 _atom_site_hse06_10hf_ddec_sum_bond_order
 _atom_site_hse06_10hf_magmom
 _atom_site_hse06_bader_spin_density
 _atom_site_hse06_ddec_charge
 _atom_site_hse06_ddec_spin_density
 _atom_site_hse06_ddec_sum_bond_order
 _atom_site_hse06_magmom
 _atom_site_pbe_bader_spin_density
 _atom_site_pbe_cm5_charge
 _atom_site_pbe_ddec_charge
 _atom_site_pbe_ddec_spin_density
 _atom_site_pbe_ddec_sum_bond_order
 _atom_site_pbe_magmom
Cd  Cd0  1  0.00001010  0.00001818  0.00000741  1  0  0.850994  0  1.956319  0  0  0.682178  0  2.401547  0  0  0.732766  0  2.364192  0  0  0.541525  0.646738  0  2.427122  0
Cd  Cd1  1  0.00001368  0.50000088  0.49999732  1  0  0.851053  0  1.956197  0  0  0.682243  0  2.401396  0  0  0.732833  0  2.36404  0  0  0.541551  0.646805  0  2.426968  0
H  H2  1  0.74631797  0.90289915  0.80623923  1  0  0.071835  0  0.983993  0  0  0.077883  0  1.058621  0  0  0.080548  0  1.056341  0  0  0.096443  0.07587  0  1.060389  0
H  H3  1  0.74633537  0.40290212  0.69376615  1  0  0.071835  0  0.983935  0  0  0.077919  0  1.058545  0  0  0.080535  0  1.05632  0  0  0.096451  0.075906  0  1.060309  0
H  H4  1  0.25367073  0.09709220  0.19375119  1  0  0.07176  0  0.983993  0  0  0.077882  0  1.058562  0  0  0.080535  0  1.056295  0  0  0.096457  0.075869  0  1.060328  0
H  H5  1  0.25366337  0.59709782  0.30622763  1  0  0.071689  0  0.984084  0  0  0.077837  0  1.058659  0  0  0.080452  0  1.056437  0  0  0.096429  0.075824  0  1.060421  0
H  H6  1  0.01566797  0.13600052  0.59131785  1  0  0.09619  0  0.952306  0  0  0.107097  0  1.015969  0  0  0.110162  0  1.013303  0  0  0.095878  0.104714  0  1.018135  0
H  H7  1  0.01564237  0.63601943  0.90868186  1  0  0.096104  0  0.952485  0  0  0.107037  0  1.016118  0  0  0.110133  0  1.013419  0  0  0.095877  0.10465  0  1.018288  0
H  H8  1  0.98440584  0.86398715  0.40869277  1  0  0.096242  0  0.952181  0  0  0.107085  0  1.015911  0  0  0.110209  0  1.013186  0  0  0.095858  0.104693  0  1.018081  0
H  H9  1  0.98430885  0.36399069  0.09131193  1  0  0.096165  0  0.952437  0  0  0.107081  0  1.01608  0  0  0.110148  0  1.013413  0  0  0.095879  0.104716  0  1.018223  0
H  H10  1  0.26329223  0.26252438  0.70668898  1  0  0.096842  0  0.97469  0  0  0.104732  0  1.041356  0  0  0.107738  0  1.040521  0  0  0.094736  0.102582  0  1.042059  0
H  H11  1  0.26328002  0.76254303  0.79331593  1  0  0.096893  0  0.974584  0  0  0.104802  0  1.041244  0  0  0.107815  0  1.040403  0  0  0.094797  0.102642  0  1.041977  0
H  H12  1  0.73678656  0.73745625  0.29332097  1  0  0.096886  0  0.974748  0  0  0.104828  0  1.041377  0  0  0.107853  0  1.0405  0  0  0.094821  0.102669  0  1.04211  0
H  H13  1  0.73673378  0.23746544  0.20668324  1  0  0.096856  0  0.974742  0  0  0.104805  0  1.04134  0  0  0.107815  0  1.040503  0  0  0.094779  0.102647  0  1.042068  0
H  H14  1  0.23889760  0.20217061  0.87053789  1  0  0.06674  0  0.994681  0  0  0.073723  0  1.066942  0  0  0.076572  0  1.064078  0  0  0.094426  0.071573  0  1.069142  0
H  H15  1  0.23889655  0.70216334  0.62947416  1  0  0.066703  0  0.994947  0  0  0.073687  0  1.067194  0  0  0.076533  0  1.064336  0  0  0.094423  0.071565  0  1.069367  0
H  H16  1  0.76108357  0.79781822  0.12947543  1  0  0.066606  0  0.99481  0  0  0.073626  0  1.067017  0  0  0.076474  0  1.064152  0  0  0.094399  0.071465  0  1.069229  0
H  H17  1  0.76109467  0.29783321  0.37052770  1  0  0.066772  0  0.994758  0  0  0.07379  0  1.066977  0  0  0.076634  0  1.064122  0  0  0.094474  0.071647  0  1.069167  0
H  H18  1  0.90714770  0.88626677  0.57677213  1  0  0.109441  0  0.9513  0  0  0.130173  0  1.017559  0  0  0.131064  0  1.017336  0  0  0.089281  0.129448  0  1.017801  0
H  H19  1  0.90713578  0.38626244  0.92323447  1  0  0.109325  0  0.951178  0  0  0.130071  0  1.017458  0  0  0.130966  0  1.017228  0  0  0.089241  0.129344  0  1.017705  0
H  H20  1  0.09285857  0.11373656  0.42322301  1  0  0.109429  0  0.951203  0  0  0.130162  0  1.017481  0  0  0.131056  0  1.017254  0  0  0.089307  0.129436  0  1.017723  0
H  H21  1  0.09282540  0.61373449  0.07676874  1  0  0.109479  0  0.951149  0  0  0.130205  0  1.017399  0  0  0.131095  0  1.017175  0  0  0.089296  0.129479  0  1.017643  0
H  H22  1  0.53056650  0.97188303  0.57811446  1  0  0.107573  0  0.957103  0  0  0.131025  0  1.017617  0  0  0.131711  0  1.018139  0  0  0.090409  0.130461  0  1.017278  0
H  H23  1  0.53055212  0.47188656  0.92188930  1  0  0.107588  0  0.956948  0  0  0.130997  0  1.017523  0  0  0.131679  0  1.018049  0  0  0.090408  0.130452  0  1.017164  0
H  H24  1  0.46944729  0.02812021  0.42188135  1  0  0.107624  0  0.957036  0  0  0.131059  0  1.017564  0  0  0.131742  0  1.018094  0  0  0.09044  0.130498  0  1.017222  0
H  H25  1  0.46941910  0.52811634  0.07810516  1  0  0.107729  0  0.956867  0  0  0.13112  0  1.017459  0  0  0.131802  0  1.017986  0  0  0.090471  0.130565  0  1.017112  0
H  H26  1  0.58860016  0.85363128  0.65452598  1  0  0.109248  0  0.959955  0  0  0.131888  0  1.020674  0  0  0.13273  0  1.021527  0  0  0.090243  0.131194  0  1.02017  0
H  H27  1  0.58859888  0.35363488  0.84547587  1  0  0.109242  0  0.959914  0  0  0.131883  0  1.020634  0  0  0.132711  0  1.021503  0  0  0.090267  0.131197  0  1.02012  0
H  H28  1  0.41140361  0.14637121  0.34546646  1  0  0.109224  0  0.960032  0  0  0.131878  0  1.020721  0  0  0.13273  0  1.021566  0  0  0.090244  0.131186  0  1.020211  0
H  H29  1  0.41136730  0.64636198  0.15451657  1  0  0.109252  0  0.960013  0  0  0.131931  0  1.020657  0  0  0.132773  0  1.021511  0  0  0.090276  0.131236  0  1.020152  0
C  C30  1  0.85999613  0.98155092  0.78065185  1  0  0.058559  0  3.679576  0  0  0.022202  0  3.924283  0  0  0.027874  0  3.94356  0  0  0.033789  0.018705  0  3.911091  0
C  C31  1  0.86002837  0.48155566  0.71935116  1  0  0.058526  0  3.679808  0  0  0.022126  0  3.924592  0  0  0.027842  0  3.943861  0  0  0.033766  0.018612  0  3.911433  0
C  C32  1  0.14000260  0.01844379  0.21934934  1  0  0.058585  0  3.679498  0  0  0.022139  0  3.924268  0  0  0.027821  0  3.943532  0  0  0.033768  0.018639  0  3.911084  0
C  C33  1  0.13996036  0.51844353  0.28064733  1  0  0.058726  0  3.679863  0  0  0.02222  0  3.924587  0  0  0.027932  0  3.943878  0  0  0.033819  0.01872  0  3.911398  0
C  C34  1  0.86180232  0.00673031  0.68848516  1  0  0.094009  0  3.745194  0  0  0.127679  0  3.975768  0  0  0.123499  0  4.002076  0  0  -0.005896  0.130183  0  3.957962  0
C  C35  1  0.86183247  0.50673289  0.81151298  1  0  0.094128  0  3.745757  0  0  0.127724  0  3.976413  0  0  0.123545  0  4.002712  0  0  -0.005935  0.130222  0  3.958611  0
C  C36  1  0.13817389  0.99326817  0.31151469  1  0  0.094141  0  3.745505  0  0  0.127752  0  3.976122  0  0  0.123572  0  4.002441  0  0  -0.005907  0.130253  0  3.958317  0
C  C37  1  0.13817377  0.49326434  0.18848350  1  0  0.094102  0  3.745626  0  0  0.127762  0  3.976192  0  0  0.123584  0  4.002491  0  0  -0.005911  0.130263  0  3.958382  0
C  C38  1  0.00864816  0.11043152  0.66205020  1  0  -0.061374  0  3.687336  0  0  -0.085923  0  3.928945  0  0  -0.083759  0  3.947574  0  0  -0.07098  -0.086942  0  3.916256  0
C  C39  1  0.00861800  0.61042985  0.83795814  1  0  -0.061288  0  3.687221  0  0  -0.085818  0  3.928796  0  0  -0.083683  0  3.947423  0  0  -0.070953  -0.086833  0  3.916108  0
C  C40  1  0.99138815  0.88956969  0.33795705  1  0  -0.061536  0  3.687093  0  0  -0.085986  0  3.928672  0  0  -0.083882  0  3.947296  0  0  -0.070987  -0.086993  0  3.915977  0
C  C41  1  0.99136320  0.38956508  0.16204035  1  0  -0.06131  0  3.687352  0  0  -0.08584  0  3.928909  0  0  -0.083677  0  3.947535  0  0  -0.07099  -0.086871  0  3.9162  0
C  C42  1  0.14504293  0.18244350  0.72682997  1  0  -0.116022  0  3.758572  0  0  -0.126005  0  4.010349  0  0  -0.132935  0  4.033061  0  0  -0.090368  -0.12153  0  3.995056  0
C  C43  1  0.14505088  0.68245388  0.77317192  1  0  -0.116088  0  3.75798  0  0  -0.126102  0  4.009751  0  0  -0.133037  0  4.032467  0  0  -0.090326  -0.121631  0  3.994458  0
C  C44  1  0.85498329  0.81754128  0.27316651  1  0  -0.115969  0  3.758071  0  0  -0.126032  0  4.009815  0  0  -0.132964  0  4.032553  0  0  -0.090317  -0.121564  0  3.994515  0
C  C45  1  0.85494539  0.31755306  0.22682253  1  0  -0.116037  0  3.758354  0  0  -0.126087  0  4.010158  0  0  -0.133021  0  4.032874  0  0  -0.090322  -0.12161  0  3.994854  0
C  C46  1  0.13178017  0.15001751  0.81699774  1  0  0.111586  0  3.720883  0  0  0.078108  0  3.971829  0  0  0.084265  0  3.991783  0  0  0.031464  0.07406  0  3.958524  0
C  C47  1  0.13181128  0.65001465  0.68300872  1  0  0.111718  0  3.721535  0  0  0.07825  0  3.972436  0  0  0.084403  0  3.992392  0  0  0.03146  0.074195  0  3.959093  0
C  C48  1  0.86820856  0.84998081  0.18299806  1  0  0.111724  0  3.721224  0  0  0.07823  0  3.972125  0  0  0.084381  0  3.992075  0  0  0.031488  0.074206  0  3.958798  0
C  C49  1  0.86821497  0.34997623  0.31699113  1  0  0.111522  0  3.7207  0  0  0.077976  0  3.971659  0  0  0.084131  0  3.99162  0  0  0.031323  0.073902  0  3.958399  0
C  C50  1  0.71403168  0.92540242  0.62131780  1  0  -0.334199  0  3.738224  0  0  -0.418919  0  3.971671  0  0  -0.42066  0  3.983606  0  0  -0.240161  -0.417323  0  3.963502  0
C  C51  1  0.71405021  0.42541215  0.87867558  1  0  -0.33419  0  3.73802  0  0  -0.418845  0  3.971543  0  0  -0.420575  0  3.983496  0  0  -0.24018  -0.417266  0  3.963355  0
C  C52  1  0.28596455  0.07459581  0.37867262  1  0  -0.334276  0  3.738327  0  0  -0.418978  0  3.971827  0  0  -0.420719  0  3.983739  0  0  -0.24024  -0.417378  0  3.963649  0
C  C53  1  0.28593603  0.57459143  0.12131753  1  0  -0.334469  0  3.738077  0  0  -0.419143  0  3.971557  0  0  -0.420878  0  3.983489  0  0  -0.240273  -0.417552  0  3.963387  0
Br  Br54  1  0.48631581  0.16860908  0.03235611  1  0  -0.517098  0  1.042594  0  0  -0.457437  0  1.351582  0  0  -0.476683  0  1.330192  0  0  -0.248364  -0.443513  0  1.36676  0
Br  Br55  1  0.48629963  0.66859612  0.46764989  1  0  -0.517077  0  1.042473  0  0  -0.457433  0  1.351494  0  0  -0.476681  0  1.330115  0  0  -0.248349  -0.443513  0  1.366669  0
Br  Br56  1  0.51364055  0.83143061  0.96766259  1  0  -0.517042  0  1.04253  0  0  -0.457419  0  1.351592  0  0  -0.476665  0  1.330213  0  0  -0.248339  -0.443496  0  1.366765  0
Br  Br57  1  0.51371918  0.33141142  0.53235399  1  0  -0.517119  0  1.042519  0  0  -0.457478  0  1.351525  0  0  -0.47672  0  1.33013  0  0  -0.248374  -0.443554  0  1.366697  0
N  N58  1  0.99175793  0.05087011  0.84347042  1  0  -0.318823  0  3.306876  0  0  -0.237318  0  3.565735  0  0  -0.25851  0  3.5899  0  0  -0.331669  -0.222845  0  3.548787  0
N  N59  1  0.99179430  0.55087829  0.65653528  1  0  -0.318945  0  3.30736  0  0  -0.237423  0  3.566184  0  0  -0.258613  0  3.590343  0  0  -0.331708  -0.222952  0  3.549239  0
N  N60  1  0.00823076  0.94912037  0.15653751  1  0  -0.318888  0  3.307386  0  0  -0.237324  0  3.566173  0  0  -0.258524  0  3.590361  0  0  -0.331738  -0.222856  0  3.549225  0
N  N61  1  0.00823950  0.44912208  0.34346793  1  0  -0.318897  0  3.306803  0  0  -0.237284  0  3.565628  0  0  -0.258479  0  3.589785  0  0  -0.331674  -0.222807  0  3.548661  0
