# generated using pymatgen
data_Er2H18(C3O8)3
_symmetry_space_group_name_H-M   'P 1'
_cell_length_a   8.72543834
_cell_length_b   8.72546302
_cell_length_c   8.72539757
_cell_angle_alpha   66.46302332
_cell_angle_beta   66.46303253
_cell_angle_gamma   66.46299190
_symmetry_Int_Tables_number   1
_chemical_formula_structural   Er2H18(C3O8)3
_chemical_formula_sum   'Er2 H18 C9 O24'
_cell_volume   535.13846820
_cell_formula_units_Z   1
loop_
 _symmetry_equiv_pos_site_id
 _symmetry_equiv_pos_as_xyz
  1  'x, y, z'
loop_
 _atom_site_type_symbol
 _atom_site_label
 _atom_site_symmetry_multiplicity
 _atom_site_fract_x
 _atom_site_fract_y
 _atom_site_fract_z
 _atom_site_occupancy
 _atom_site_hle17_bader_spin_density
 _atom_site_hle17_ddec_charge
 _atom_site_hle17_ddec_spin_density
 _atom_site_hle17_ddec_sum_bond_order
 _atom_site_hle17_magmom
 _atom_site_hse06_10hf_bader_spin_density
 _atom_site_hse06_10hf_ddec_charge
 _atom_site_hse06_10hf_ddec_spin_density
 _atom_site_hse06_10hf_ddec_sum_bond_order
 _atom_site_hse06_10hf_magmom
 _atom_site_hse06_bader_spin_density
 _atom_site_hse06_ddec_charge
 _atom_site_hse06_ddec_spin_density
 _atom_site_hse06_ddec_sum_bond_order
 _atom_site_hse06_magmom
 _atom_site_pbe_bader_spin_density
 _atom_site_pbe_cm5_charge
 _atom_site_pbe_ddec_charge
 _atom_site_pbe_ddec_spin_density
 _atom_site_pbe_ddec_sum_bond_order
 _atom_site_pbe_magmom
Er  Er0  1  0.23304104  0.23304340  0.23304216  1  0  2.295896  0  1.573372  0  0  2.226098  0  1.88216  0  0  2.268927  0  1.845417  0  0  1.496349  2.099952  0  2.088718  0
Er  Er1  1  0.76695476  0.76696085  0.76696466  1  0  2.295897  0  1.573399  0  0  2.226096  0  1.882197  0  0  2.268922  0  1.845455  0  0  1.49634  2.099987  0  2.0887  0
H  H2  1  0.32436775  0.55059925  0.19215854  1  0  0.41806  0  0.879135  0  0  0.385175  0  0.954467  0  0  0.397602  0  0.936578  0  0  0.308243  0.376202  0  0.967175  0
H  H3  1  0.19216304  0.32438236  0.55058904  1  0  0.418042  0  0.87927  0  0  0.385202  0  0.954446  0  0  0.397612  0  0.936584  0  0  0.308236  0.376227  0  0.967158  0
H  H4  1  0.55059510  0.19216754  0.32437184  1  0  0.418104  0  0.879166  0  0  0.385226  0  0.954417  0  0  0.397654  0  0.936529  0  0  0.308254  0.376251  0  0.967131  0
H  H5  1  0.80784313  0.44940370  0.67562797  1  0  0.41801  0  0.879255  0  0  0.385197  0  0.954441  0  0  0.397587  0  0.936607  0  0  0.308258  0.376221  0  0.967155  0
H  H6  1  0.44941079  0.67562442  0.80783351  1  0  0.418046  0  0.879232  0  0  0.385181  0  0.95447  0  0  0.397611  0  0.93658  0  0  0.308249  0.376212  0  0.967174  0
H  H7  1  0.67563266  0.80783937  0.44940613  1  0  0.41802  0  0.879215  0  0  0.385179  0  0.954468  0  0  0.397609  0  0.936576  0  0  0.30825  0.376205  0  0.967178  0
H  H8  1  0.23115663  0.28387736  0.86322767  1  0  0.449063  0  0.845592  0  0  0.417034  0  0.908275  0  0  0.428731  0  0.891192  0  0  0.30073  0.407973  0  0.921435  0
H  H9  1  0.86322728  0.23116037  0.28387844  1  0  0.449067  0  0.845585  0  0  0.417045  0  0.908259  0  0  0.428745  0  0.891173  0  0  0.300737  0.407983  0  0.921424  0
H  H10  1  0.28387622  0.86322880  0.23115934  1  0  0.449072  0  0.84558  0  0  0.41705  0  0.908252  0  0  0.428744  0  0.891174  0  0  0.300745  0.407986  0  0.921419  0
H  H11  1  0.13677682  0.71611894  0.76884110  1  0  0.449023  0  0.845649  0  0  0.416995  0  0.908332  0  0  0.428696  0  0.891244  0  0  0.3007  0.407934  0  0.921494  0
H  H12  1  0.71612624  0.76883747  0.13677891  1  0  0.44897  0  0.845703  0  0  0.417002  0  0.908279  0  0  0.428691  0  0.891213  0  0  0.300768  0.407965  0  0.921414  0
H  H13  1  0.76884467  0.13676633  0.71612590  1  0  0.449145  0  0.845476  0  0  0.417066  0  0.908238  0  0  0.428783  0  0.891129  0  0  0.300737  0.408004  0  0.921401  0
H  H14  1  0.04640004  0.37426186  0.97667301  1  0  0.443768  0  0.843957  0  0  0.415768  0  0.904274  0  0  0.426078  0  0.888874  0  0  0.31141  0.407907  0  0.915766  0
H  H15  1  0.97667240  0.04640343  0.37426612  1  0  0.443738  0  0.843947  0  0  0.415734  0  0.904308  0  0  0.426054  0  0.888892  0  0  0.31139  0.407882  0  0.915784  0
H  H16  1  0.37427039  0.97667189  0.04640284  1  0  0.443718  0  0.844004  0  0  0.415724  0  0.904331  0  0  0.426038  0  0.888924  0  0  0.311372  0.407865  0  0.915818  0
H  H17  1  0.02333266  0.62572786  0.95359677  1  0  0.443748  0  0.844002  0  0  0.415749  0  0.904301  0  0  0.426065  0  0.888892  0  0  0.311395  0.407896  0  0.91578  0
H  H18  1  0.62573553  0.95359573  0.02333638  1  0  0.443722  0  0.843934  0  0  0.415734  0  0.904287  0  0  0.42605  0  0.888879  0  0  0.311411  0.407879  0  0.915768  0
H  H19  1  0.95360160  0.02332070  0.62574091  1  0  0.443759  0  0.844017  0  0  0.415761  0  0.904292  0  0  0.426072  0  0.888892  0  0  0.311428  0.4079  0  0.915784  0
C  C20  1  0.53562923  0.46436800  0.00000049  1  0  0.330831  0  3.682483  0  0  0.308374  0  3.952175  0  0  0.315661  0  3.953632  0  0  0.157587  0.302077  0  3.947618  0
C  C21  1  0.99999841  0.53563502  0.46436885  1  0  0.330776  0  3.682554  0  0  0.308239  0  3.952371  0  0  0.315523  0  3.953815  0  0  0.157598  0.301939  0  3.947813  0
C  C22  1  0.46437706  0.00000044  0.53562815  1  0  0.330734  0  3.682582  0  0  0.308209  0  3.952393  0  0  0.315494  0  3.953853  0  0  0.157594  0.301914  0  3.947829  0
C  C23  1  0.58413616  0.31547974  0.91794415  1  0  0.620445  0  3.812067  0  0  0.563301  0  4.11779  0  0  0.595753  0  4.110284  0  0  0.231819  0.540768  0  4.120488  0
C  C24  1  0.91793532  0.58414502  0.31548333  1  0  0.620471  0  3.812136  0  0  0.563376  0  4.117826  0  0  0.595848  0  4.110315  0  0  0.231865  0.540844  0  4.120525  0
C  C25  1  0.31548896  0.91794177  0.58413887  1  0  0.620545  0  3.812144  0  0  0.563421  0  4.117824  0  0  0.595884  0  4.110319  0  0  0.231873  0.540891  0  4.120523  0
C  C26  1  0.08205916  0.68452314  0.41586005  1  0  0.620447  0  3.812116  0  0  0.563298  0  4.117877  0  0  0.595758  0  4.11037  0  0  0.231783  0.540767  0  4.120572  0
C  C27  1  0.68451175  0.41585671  0.08206800  1  0  0.620527  0  3.812112  0  0  0.563367  0  4.117838  0  0  0.595833  0  4.110325  0  0  0.231832  0.540835  0  4.120536  0
C  C28  1  0.41586579  0.08205854  0.68451841  1  0  0.620468  0  3.812029  0  0  0.563321  0  4.117767  0  0  0.595775  0  4.110263  0  0  0.231795  0.540786  0  4.12047  0
O  O29  1  0.37205277  0.46235584  0.12269788  1  0  -0.704079  0  2.247651  0  0  -0.666152  0  2.486921  0  0  -0.682906  0  2.469868  0  0  -0.43451  -0.642441  0  2.5009  0
O  O30  1  0.12270519  0.37206813  0.46234430  1  0  -0.704035  0  2.24773  0  0  -0.666139  0  2.486944  0  0  -0.682885  0  2.469913  0  0  -0.434505  -0.642424  0  2.500921  0
O  O31  1  0.46235679  0.12270027  0.37205686  1  0  -0.704068  0  2.247698  0  0  -0.66614  0  2.486943  0  0  -0.68289  0  2.469891  0  0  -0.434506  -0.642426  0  2.50092  0
O  O32  1  0.87730034  0.53764843  0.62794212  1  0  -0.70396  0  2.247716  0  0  -0.666079  0  2.486929  0  0  -0.682805  0  2.469919  0  0  -0.434508  -0.642368  0  2.500908  0
O  O33  1  0.53765476  0.62793343  0.87729414  1  0  -0.704053  0  2.247721  0  0  -0.666153  0  2.486961  0  0  -0.682904  0  2.469908  0  0  -0.434496  -0.642446  0  2.500942  0
O  O34  1  0.62794860  0.87730271  0.53764789  1  0  -0.704036  0  2.247664  0  0  -0.666127  0  2.486926  0  0  -0.682874  0  2.469867  0  0  -0.434528  -0.642419  0  2.500904  0
O  O35  1  0.50964265  0.19660799  0.00901414  1  0  -0.660005  0  2.086994  0  0  -0.612684  0  2.331003  0  0  -0.637427  0  2.321524  0  0  -0.34807  -0.58489  0  2.339131  0
O  O36  1  0.00901526  0.50965353  0.19660426  1  0  -0.66009  0  2.087002  0  0  -0.612736  0  2.330955  0  0  -0.637477  0  2.321473  0  0  -0.348095  -0.584942  0  2.339083  0
O  O37  1  0.19661180  0.00901565  0.50965597  1  0  -0.66007  0  2.087161  0  0  -0.612705  0  2.331112  0  0  -0.637445  0  2.321633  0  0  -0.348062  -0.584922  0  2.339255  0
O  O38  1  0.99098305  0.80339503  0.49035792  1  0  -0.660093  0  2.086943  0  0  -0.612716  0  2.330918  0  0  -0.637465  0  2.321437  0  0  -0.348102  -0.584932  0  2.339046  0
O  O39  1  0.80339106  0.49034676  0.99098723  1  0  -0.66016  0  2.087046  0  0  -0.612765  0  2.330995  0  0  -0.637514  0  2.321523  0  0  -0.348065  -0.58498  0  2.339132  0
O  O40  1  0.49034469  0.99098986  0.80339291  1  0  -0.659953  0  2.087064  0  0  -0.61261  0  2.331047  0  0  -0.637347  0  2.321563  0  0  -0.348011  -0.584826  0  2.339181  0
O  O41  1  0.69903162  0.31826081  0.77197342  1  0  -0.557936  0  2.012168  0  0  -0.495337  0  2.214828  0  0  -0.520177  0  2.203061  0  0  -0.280407  -0.479168  0  2.224622  0
O  O42  1  0.77196930  0.69902807  0.31827231  1  0  -0.557784  0  2.012321  0  0  -0.495308  0  2.215049  0  0  -0.520192  0  2.203302  0  0  -0.280432  -0.479149  0  2.224848  0
O  O43  1  0.31827532  0.77197132  0.69902969  1  0  -0.557949  0  2.012207  0  0  -0.495395  0  2.214914  0  0  -0.520275  0  2.203156  0  0  -0.28049  -0.47923  0  2.224708  0
O  O44  1  0.22801995  0.68174340  0.30096826  1  0  -0.55782  0  2.012305  0  0  -0.495263  0  2.215057  0  0  -0.520121  0  2.20329  0  0  -0.280348  -0.479093  0  2.224844  0
O  O45  1  0.68172727  0.30097495  0.22803236  1  0  -0.557841  0  2.012291  0  0  -0.495311  0  2.215047  0  0  -0.520186  0  2.203286  0  0  -0.280422  -0.479144  0  2.224843  0
O  O46  1  0.30096853  0.22803547  0.68172715  1  0  -0.558024  0  2.012158  0  0  -0.495408  0  2.214792  0  0  -0.520266  0  2.203035  0  0  -0.280466  -0.479237  0  2.224586  0
O  O47  1  0.17015860  0.31978643  0.97302151  1  0  -0.940058  0  1.921477  0  0  -0.90336  0  2.119449  0  0  -0.921812  0  2.085047  0  0  -0.666803  -0.877401  0  2.152201  0
O  O48  1  0.97302262  0.17016089  0.31979067  1  0  -0.940023  0  1.921443  0  0  -0.903308  0  2.119428  0  0  -0.921764  0  2.085014  0  0  -0.666773  -0.877355  0  2.152175  0
O  O49  1  0.31978998  0.97302183  0.17016058  1  0  -0.940029  0  1.921491  0  0  -0.903309  0  2.119446  0  0  -0.921769  0  2.085044  0  0  -0.666765  -0.877358  0  2.152197  0
O  O50  1  0.02698239  0.68020723  0.82983954  1  0  -0.940002  0  1.921548  0  0  -0.903291  0  2.119497  0  0  -0.921748  0  2.085091  0  0  -0.666744  -0.877345  0  2.152241  0
O  O51  1  0.68021910  0.82983828  0.02698197  1  0  -0.939929  0  1.921514  0  0  -0.903258  0  2.119528  0  0  -0.92171  0  2.085129  0  0  -0.666821  -0.877338  0  2.152222  0
O  O52  1  0.82984304  0.02697331  0.68021443  1  0  -0.940114  0  1.921452  0  0  -0.903368  0  2.119418  0  0  -0.921843  0  2.084977  0  0  -0.666818  -0.877418  0  2.152171  0
