# generated using pymatgen
data_H3PbC8NO6
_symmetry_space_group_name_H-M   'P 1'
_cell_length_a   8.18958100
_cell_length_b   10.01455744
_cell_length_c   10.43053966
_cell_angle_alpha   90.00035072
_cell_angle_beta   90.00010118
_cell_angle_gamma   92.30708982
_symmetry_Int_Tables_number   1
_chemical_formula_structural   H3PbC8NO6
_chemical_formula_sum   'H12 Pb4 C32 N4 O24'
_cell_volume   854.76759743
_cell_formula_units_Z   4
loop_
 _symmetry_equiv_pos_site_id
 _symmetry_equiv_pos_as_xyz
  1  'x, y, z'
loop_
 _atom_site_type_symbol
 _atom_site_label
 _atom_site_symmetry_multiplicity
 _atom_site_fract_x
 _atom_site_fract_y
 _atom_site_fract_z
 _atom_site_occupancy
 _atom_site_pbe_bader_spin_density
 _atom_site_pbe_cm5_charge
 _atom_site_pbe_ddec_charge
 _atom_site_pbe_ddec_spin_density
 _atom_site_pbe_ddec_sum_bond_order
 _atom_site_pbe_magmom
H  H0  1  0.95379271  0.43852648  0.77256217  1  0  0.117636  0.131058  0  1.00838  0
H  H1  1  0.54620458  0.56147449  0.27256128  1  0  0.117649  0.131054  0  1.008411  0
H  H2  1  0.04620692  0.56147166  0.22743863  1  0  0.117651  0.13109  0  1.008353  0
H  H3  1  0.45379404  0.43852864  0.72743952  1  0  0.117638  0.13105  0  1.008392  0
H  H4  1  0.30633297  0.65309103  0.00903715  1  0  0.111387  0.120158  0  1.01139  0
H  H5  1  0.19366617  0.34690685  0.50903426  1  0  0.111395  0.120173  0  1.011382  0
H  H6  1  0.69366671  0.34690811  0.99096365  1  0  0.111391  0.120149  0  1.011403  0
H  H7  1  0.80633481  0.65309429  0.49096366  1  0  0.111402  0.120164  0  1.011371  0
H  H8  1  0.41058465  0.43739506  0.08521289  1  0  0.106022  0.114853  0  1.041473  0
H  H9  1  0.08941708  0.56260233  0.58521497  1  0  0.106024  0.114891  0  1.041438  0
H  H10  1  0.58941747  0.56260409  0.91478407  1  0  0.106014  0.11489  0  1.041471  0
H  H11  1  0.91058377  0.43739581  0.41478775  1  0  0.106031  0.114914  0  1.041474  0
Pb  Pb12  1  0.59445455  0.08367197  0.19123238  1  0  0.669562  1.182943  0  1.807203  0
Pb  Pb13  1  0.90555348  0.91632753  0.69123219  1  0  0.669542  1.18291  0  1.807169  0
Pb  Pb14  1  0.40554634  0.91632717  0.80876938  1  0  0.669551  1.18295  0  1.807183  0
Pb  Pb15  1  0.09445613  0.08367565  0.30877436  1  0  0.669534  1.182897  0  1.807161  0
C  C16  1  0.24619587  0.31563262  0.97094895  1  0  0.01281  -0.019147  0  3.87039  0
C  C17  1  0.25380680  0.68436625  0.47095290  1  0  0.012827  -0.019201  0  3.87048  0
C  C18  1  0.75380860  0.68436454  0.02904898  1  0  0.012869  -0.01917  0  3.870506  0
C  C19  1  0.74619426  0.31563689  0.52904790  1  0  0.012858  -0.019152  0  3.870479  0
C  C20  1  0.11277261  0.31986252  0.88684967  1  0  0.085142  0.042272  0  3.915838  0
C  C21  1  0.38722496  0.68013579  0.38685378  1  0  0.085104  0.042281  0  3.915842  0
C  C22  1  0.88722605  0.68014161  0.11315017  1  0  0.085111  0.04226  0  3.915947  0
C  C23  1  0.61277096  0.31986133  0.61314893  1  0  0.085101  0.042259  0  3.915945  0
C  C24  1  0.05484866  0.43987897  0.84022536  1  0  -0.06468  -0.12043  0  3.926775  0
C  C25  1  0.44514884  0.56012004  0.34022597  1  0  -0.06468  -0.12043  0  3.926862  0
C  C26  1  0.94515093  0.56011817  0.15977352  1  0  -0.06467  -0.120422  0  3.926627  0
C  C27  1  0.55484965  0.43988010  0.65977100  1  0  -0.064654  -0.120422  0  3.926757  0
C  C28  1  0.12786995  0.56052644  0.88095041  1  0  -0.013662  -0.034788  0  3.970979  0
C  C29  1  0.37212773  0.43947483  0.38094829  1  0  -0.013678  -0.034817  0  3.971034  0
C  C30  1  0.87212719  0.43947069  0.11904943  1  0  -0.013748  -0.034936  0  3.971169  0
C  C31  1  0.62786853  0.56053029  0.61905251  1  0  -0.013736  -0.034918  0  3.971044  0
C  C32  1  0.25293408  0.55897027  0.97286136  1  0  -0.06079  -0.045363  0  3.904163  0
C  C33  1  0.24706734  0.44102762  0.47286195  1  0  -0.060771  -0.045362  0  3.904124  0
C  C34  1  0.74706315  0.44102886  0.02713848  1  0  -0.060687  -0.045192  0  3.904254  0
C  C35  1  0.75293115  0.55897252  0.52713789  1  0  -0.06069  -0.045163  0  3.903922  0
C  C36  1  0.31133569  0.43847011  0.01584057  1  0  -0.079811  -0.097721  0  3.910132  0
C  C37  1  0.18866481  0.56153082  0.51584374  1  0  -0.079815  -0.097743  0  3.910097  0
C  C38  1  0.68866271  0.56152802  0.98415351  1  0  -0.079841  -0.097793  0  3.910156  0
C  C39  1  0.81133613  0.43846932  0.48415610  1  0  -0.079869  -0.0979  0  3.910246  0
C  C40  1  0.33008944  0.19222490  0.01593190  1  0  0.213664  0.579752  0  4.264113  0
C  C41  1  0.16991216  0.80777304  0.51593649  1  0  0.213746  0.579928  0  4.26373  0
C  C42  1  0.66991516  0.80777526  0.98406794  1  0  0.213624  0.57975  0  4.263916  0
C  C43  1  0.83008507  0.19222609  0.48406431  1  0  0.213664  0.57979  0  4.263734  0
C  C44  1  0.07148629  0.68983883  0.82848558  1  0  0.212648  0.566616  0  4.208046  0
C  C45  1  0.42851118  0.31016011  0.32848278  1  0  0.212712  0.5668  0  4.207691  0
C  C46  1  0.92851225  0.31016231  0.17151426  1  0  0.212672  0.566704  0  4.20796  0
C  C47  1  0.57148980  0.68984104  0.67151323  1  0  0.212667  0.566848  0  4.207956  0
N  N48  1  0.02689640  0.19751053  0.84677462  1  0  0.06498  0.537386  0  4.15371  0
N  N49  1  0.47310247  0.80249153  0.34677574  1  0  0.064907  0.537297  0  4.153607  0
N  N50  1  0.97310685  0.80248663  0.15322426  1  0  0.065005  0.5374  0  4.153794  0
N  N51  1  0.52689742  0.19751261  0.65322602  1  0  0.064978  0.537425  0  4.153647  0
O  O52  1  0.10098574  0.09063544  0.85196201  1  0  -0.100353  -0.359572  0  2.07106  0
O  O53  1  0.39901676  0.90936567  0.35196365  1  0  -0.100277  -0.359457  0  2.071042  0
O  O54  1  0.89901398  0.90936470  0.14803975  1  0  -0.100383  -0.359565  0  2.070941  0
O  O55  1  0.60098051  0.09063446  0.64803810  1  0  -0.100395  -0.359586  0  2.070878  0
O  O56  1  0.88348808  0.20308259  0.81014338  1  0  -0.098118  -0.32115  0  2.013994  0
O  O57  1  0.61651293  0.79691765  0.31014780  1  0  -0.098099  -0.321138  0  2.013877  0
O  O58  1  0.11650915  0.79691654  0.18986030  1  0  -0.098111  -0.321153  0  2.014073  0
O  O59  1  0.38349293  0.20308352  0.68985779  1  0  -0.098079  -0.321128  0  2.01398  0
O  O60  1  0.46884296  0.17462475  0.96564215  1  0  -0.296325  -0.574827  0  2.179007  0
O  O61  1  0.03115974  0.82537509  0.46564759  1  0  -0.296369  -0.574905  0  2.179026  0
O  O62  1  0.53116042  0.82537541  0.03435865  1  0  -0.296316  -0.574815  0  2.17885  0
O  O63  1  0.96883862  0.17462204  0.53435130  1  0  -0.296366  -0.574862  0  2.179014  0
O  O64  1  0.27042744  0.12064547  0.10640252  1  0  -0.29287  -0.588908  0  2.28566  0
O  O65  1  0.22957439  0.87935306  0.60641241  1  0  -0.292895  -0.588993  0  2.285501  0
O  O66  1  0.72957341  0.87935268  0.89359541  1  0  -0.292877  -0.588925  0  2.285651  0
O  O67  1  0.77042292  0.12064807  0.39358743  1  0  -0.292844  -0.588917  0  2.285495  0
O  O68  1  0.13187792  0.79982638  0.87253544  1  0  -0.299068  -0.575424  0  2.240475  0
O  O69  1  0.36811731  0.20017483  0.37253670  1  0  -0.299131  -0.575539  0  2.240283  0
O  O70  1  0.86811936  0.20017375  0.12746440  1  0  -0.299074  -0.575463  0  2.240344  0
O  O71  1  0.63187874  0.79982529  0.62746218  1  0  -0.299041  -0.575494  0  2.240424  0
O  O72  1  0.96213680  0.68370258  0.74094230  1  0  -0.288173  -0.537697  0  2.247508  0
O  O73  1  0.53785658  0.31629418  0.24094090  1  0  -0.288179  -0.537771  0  2.247433  0
O  O74  1  0.03786288  0.31629657  0.25905563  1  0  -0.288187  -0.537709  0  2.247439  0
O  O75  1  0.46214073  0.68370695  0.75905990  1  0  -0.288203  -0.537842  0  2.2474  0
