# generated using pymatgen
data_SmH23C27O10
_symmetry_space_group_name_H-M   'P 1'
_cell_length_a   7.77776838
_cell_length_b   12.94418664
_cell_length_c   13.67602164
_cell_angle_alpha   97.66678573
_cell_angle_beta   97.39721470
_cell_angle_gamma   103.55808835
_symmetry_Int_Tables_number   1
_chemical_formula_structural   SmH23C27O10
_chemical_formula_sum   'Sm2 H46 C54 O20'
_cell_volume   1308.09901201
_cell_formula_units_Z   2
loop_
 _symmetry_equiv_pos_site_id
 _symmetry_equiv_pos_as_xyz
  1  'x, y, z'
loop_
 _atom_site_type_symbol
 _atom_site_label
 _atom_site_symmetry_multiplicity
 _atom_site_fract_x
 _atom_site_fract_y
 _atom_site_fract_z
 _atom_site_occupancy
 _atom_site_hle17_bader_spin_density
 _atom_site_hle17_ddec_charge
 _atom_site_hle17_ddec_spin_density
 _atom_site_hle17_ddec_sum_bond_order
 _atom_site_hle17_magmom
 _atom_site_hse06_10hf_bader_spin_density
 _atom_site_hse06_10hf_ddec_charge
 _atom_site_hse06_10hf_ddec_spin_density
 _atom_site_hse06_10hf_ddec_sum_bond_order
 _atom_site_hse06_10hf_magmom
 _atom_site_hse06_bader_spin_density
 _atom_site_hse06_ddec_charge
 _atom_site_hse06_ddec_spin_density
 _atom_site_hse06_ddec_sum_bond_order
 _atom_site_hse06_magmom
 _atom_site_pbe_bader_spin_density
 _atom_site_pbe_cm5_charge
 _atom_site_pbe_ddec_charge
 _atom_site_pbe_ddec_spin_density
 _atom_site_pbe_ddec_sum_bond_order
 _atom_site_pbe_magmom
Sm  Sm0  1  0.23137119  0.46235254  0.48161443  1  0  2.270922  0  1.674926  0  0  2.113617  0  2.143363  0  0  2.225518  0  1.980614  0  0  1.530153  2.078828  0  2.175964  0
Sm  Sm1  1  0.76863453  0.53764809  0.51838618  1  0  2.270906  0  1.674964  0  0  2.113534  0  2.143502  0  0  2.225495  0  1.98066  0  0  1.530115  2.078753  0  2.176091  0
H  H2  1  0.94346084  0.31944715  0.57155341  1  0  0.454552  0  0.836109  0  0  0.423311  0  0.899606  0  0  0.434799  0  0.882903  0  0  0.308972  0.415289  0  0.911427  0
H  H3  1  0.05654418  0.68055186  0.42844183  1  0  0.45461  0  0.836044  0  0  0.42339  0  0.899496  0  0  0.434876  0  0.882798  0  0  0.308982  0.41537  0  0.911315  0
H  H4  1  0.12515071  0.32524390  0.64207029  1  0  0.443508  0  0.799288  0  0  0.433178  0  0.841354  0  0  0.440828  0  0.832577  0  0  0.341999  0.427907  0  0.84718  0
H  H5  1  0.87484879  0.67475431  0.35792737  1  0  0.443494  0  0.799274  0  0  0.433163  0  0.841343  0  0  0.440813  0  0.83259  0  0  0.341966  0.427891  0  0.847166  0
H  H6  1  0.40829810  0.52800413  0.24445476  1  0  0.397845  0  0.88187  0  0  0.372164  0  0.954417  0  0  0.382958  0  0.941882  0  0  0.30473  0.364713  0  0.962762  0
H  H7  1  0.59170339  0.47199570  0.75554544  1  0  0.397901  0  0.881826  0  0  0.372231  0  0.954354  0  0  0.383025  0  0.941817  0  0  0.304782  0.36478  0  0.9627  0
H  H8  1  0.09701741  0.17032706  0.37694859  1  0  0.394512  0  0.900619  0  0  0.368849  0  0.973187  0  0  0.379824  0  0.960065  0  0  0.302737  0.361227  0  0.981589  0
H  H9  1  0.90298011  0.82966953  0.62304946  1  0  0.394582  0  0.900567  0  0  0.36888  0  0.973186  0  0  0.379852  0  0.960034  0  0  0.30275  0.361259  0  0.981587  0
H  H10  1  0.34399019  0.08682683  0.77662169  1  0  0.357085  0  0.895309  0  0  0.335476  0  0.968839  0  0  0.342355  0  0.9624  0  0  0.302951  0.330599  0  0.973382  0
H  H11  1  0.65600175  0.91316575  0.22338204  1  0  0.357118  0  0.895201  0  0  0.335488  0  0.968773  0  0  0.342368  0  0.962331  0  0  0.30297  0.330607  0  0.973312  0
H  H12  1  0.16442756  0.61621867  0.23679998  1  0  0.109579  0  0.958013  0  0  0.117738  0  1.021923  0  0  0.121243  0  1.020512  0  0  0.102123  0.115332  0  1.022796  0
H  H13  1  0.83557918  0.38378438  0.76319881  1  0  0.109561  0  0.95803  0  0  0.117728  0  1.021929  0  0  0.121235  0  1.020514  0  0  0.102102  0.115299  0  1.022839  0
H  H14  1  0.94048299  0.66001792  0.11215899  1  0  0.088056  0  0.938279  0  0  0.10183  0  0.990439  0  0  0.104823  0  0.98888  0  0  0.100525  0.099635  0  0.991652  0
H  H15  1  0.05952394  0.33997948  0.88783692  1  0  0.088167  0  0.938194  0  0  0.101929  0  0.990352  0  0  0.104921  0  0.988794  0  0  0.100545  0.099738  0  0.991574  0
H  H16  1  0.98481118  0.65753879  0.93583231  1  0  0.085563  0  0.976154  0  0  0.095002  0  1.043942  0  0  0.097138  0  1.044003  0  0  0.095101  0.093451  0  1.044013  0
H  H17  1  0.01518920  0.34245538  0.06416345  1  0  0.085503  0  0.976044  0  0  0.094937  0  1.043852  0  0  0.097073  0  1.043914  0  0  0.095092  0.093385  0  1.043923  0
H  H18  1  0.49137477  0.57983787  0.01083619  1  0  0.103505  0  0.963734  0  0  0.11374  0  1.027868  0  0  0.116769  0  1.026462  0  0  0.102863  0.111545  0  1.029034  0
H  H19  1  0.50864317  0.42017325  0.98916588  1  0  0.103448  0  0.963877  0  0  0.113683  0  1.028012  0  0  0.116711  0  1.026607  0  0  0.102842  0.11149  0  1.029177  0
H  H20  1  0.39356365  0.57890847  0.84507953  1  0  0.09337  0  0.970354  0  0  0.100554  0  1.039049  0  0  0.103918  0  1.035501  0  0  0.10427  0.09814  0  1.04149  0
H  H21  1  0.60645940  0.42109943  0.15492032  1  0  0.093444  0  0.970348  0  0  0.10061  0  1.039058  0  0  0.103978  0  1.035499  0  0  0.104266  0.098191  0  1.0415  0
H  H22  1  0.02224736  0.61532149  0.77965926  1  0  0.114997  0  0.992431  0  0  0.122962  0  1.056751  0  0  0.126517  0  1.056225  0  0  0.103735  0.120482  0  1.05713  0
H  H23  1  0.97777112  0.38468479  0.22033932  1  0  0.115056  0  0.992274  0  0  0.123003  0  1.056634  0  0  0.126558  0  1.05611  0  0  0.103717  0.12052  0  1.05701  0
H  H24  1  0.84758157  0.23223009  0.33742164  1  0  0.112893  0  0.976363  0  0  0.121111  0  1.040284  0  0  0.123991  0  1.039828  0  0  0.105547  0.119032  0  1.040733  0
H  H25  1  0.15241656  0.76776490  0.66257552  1  0  0.112854  0  0.976375  0  0  0.121086  0  1.040285  0  0  0.123966  0  1.03983  0  0  0.105514  0.118997  0  1.04075  0
H  H26  1  0.51601849  0.19236992  0.31799773  1  0  0.094664  0  0.952701  0  0  0.106807  0  1.008774  0  0  0.108588  0  1.009181  0  0  0.101844  0.105527  0  1.008465  0
H  H27  1  0.48397904  0.80762668  0.68200325  1  0  0.094679  0  0.952653  0  0  0.106801  0  1.00876  0  0  0.108581  0  1.009172  0  0  0.101857  0.105527  0  1.008453  0
H  H28  1  0.33792130  0.01549700  0.34754388  1  0  0.101018  0  0.952935  0  0  0.110715  0  1.016975  0  0  0.114341  0  1.014964  0  0  0.101141  0.108109  0  1.018485  0
H  H29  1  0.66207241  0.98450283  0.65245795  1  0  0.101004  0  0.95295  0  0  0.110703  0  1.016987  0  0  0.114323  0  1.014981  0  0  0.101131  0.108099  0  1.018497  0
H  H30  1  0.83355539  0.92153185  0.41725617  1  0  0.124711  0  0.950613  0  0  0.134974  0  1.009028  0  0  0.139085  0  1.005987  0  0  0.10833  0.132071  0  1.011236  0
H  H31  1  0.16643626  0.07846312  0.58273905  1  0  0.124708  0  0.950557  0  0  0.134998  0  1.00894  0  0  0.139114  0  1.005887  0  0  0.108305  0.132096  0  1.011146  0
H  H32  1  0.32117136  0.83996151  0.38692418  1  0  0.092915  0  0.924288  0  0  0.10682  0  0.979272  0  0  0.109837  0  0.976438  0  0  0.110353  0.104623  0  0.981283  0
H  H33  1  0.67882332  0.16003753  0.61308127  1  0  0.092819  0  0.924355  0  0  0.106796  0  0.979272  0  0  0.109814  0  0.976434  0  0  0.110326  0.104598  0  0.981284  0
H  H34  1  0.67975888  0.78274749  0.44711454  1  0  0.12532  0  0.960835  0  0  0.133531  0  1.023168  0  0  0.137579  0  1.021671  0  0  0.113007  0.130595  0  1.024499  0
H  H35  1  0.32023775  0.21725313  0.55288028  1  0  0.125343  0  0.960813  0  0  0.133479  0  1.023182  0  0  0.137526  0  1.021687  0  0  0.112989  0.130542  0  1.02451  0
H  H36  1  0.30583030  0.92917873  0.84622468  1  0  0.098394  0  0.974518  0  0  0.10743  0  1.038843  0  0  0.109631  0  1.039819  0  0  0.096617  0.105839  0  1.03829  0
H  H37  1  0.69415420  0.07081466  0.15377860  1  0  0.09847  0  0.974526  0  0  0.107505  0  1.038841  0  0  0.109709  0  1.03981  0  0  0.096638  0.10591  0  1.038279  0
H  H38  1  0.22958360  0.84781179  0.99494288  1  0  0.086425  0  0.968861  0  0  0.097529  0  1.027751  0  0  0.09952  0  1.027821  0  0  0.097181  0.096116  0  1.027725  0
H  H39  1  0.77039545  0.15218401  0.00506397  1  0  0.086451  0  0.968832  0  0  0.09751  0  1.027803  0  0  0.099501  0  1.027872  0  0  0.097149  0.096099  0  1.027778  0
H  H40  1  0.18359761  0.96152336  0.14591380  1  0  0.092277  0  0.947984  0  0  0.103096  0  1.008264  0  0  0.106197  0  1.007012  0  0  0.099499  0.100891  0  1.009203  0
H  H41  1  0.81639108  0.03848293  0.85409505  1  0  0.092299  0  0.947981  0  0  0.103209  0  1.008176  0  0  0.106267  0  1.006977  0  0  0.099485  0.100997  0  1.009127  0
H  H42  1  0.29428566  0.23972928  0.99762729  1  0  0.107503  0  0.953701  0  0  0.120237  0  1.012762  0  0  0.122962  0  1.011817  0  0  0.103409  0.118284  0  1.013542  0
H  H43  1  0.70571330  0.76027377  0.00237240  1  0  0.107433  0  0.953807  0  0  0.120182  0  1.012873  0  0  0.122894  0  1.011944  0  0  0.103382  0.118227  0  1.013651  0
H  H44  1  0.16873027  0.12719344  0.23146620  1  0  0.08947  0  0.951375  0  0  0.099424  0  1.015025  0  0  0.102602  0  1.011647  0  0  0.107705  0.097092  0  1.017416  0
H  H45  1  0.83126747  0.87281283  0.76853453  1  0  0.0895  0  0.951298  0  0  0.099451  0  1.014963  0  0  0.102633  0  1.011579  0  0  0.107699  0.097127  0  1.017349  0
H  H46  1  0.31544101  0.33276108  0.14517832  1  0  0.117614  0  0.95518  0  0  0.128494  0  1.015241  0  0  0.132397  0  1.013654  0  0  0.106823  0.125754  0  1.01639  0
H  H47  1  0.68456124  0.66724359  0.85482400  1  0  0.117583  0  0.955286  0  0  0.128477  0  1.015326  0  0  0.132381  0  1.013737  0  0  0.106816  0.12574  0  1.016474  0
C  C48  1  0.34234320  0.59501568  0.13126703  1  0  0.33849  0  3.840436  0  0  0.334113  0  4.100711  0  0  0.345058  0  4.116767  0  0  0.079094  0.326419  0  4.089732  0
C  C49  1  0.65765705  0.40498736  0.86872982  1  0  0.338408  0  3.840435  0  0  0.334065  0  4.10068  0  0  0.34501  0  4.116734  0  0  0.079039  0.326371  0  4.089702  0
C  C50  1  0.18658446  0.61824811  0.15987179  1  0  -0.193158  0  3.720357  0  0  -0.215494  0  3.973528  0  0  -0.221476  0  3.994527  0  0  -0.103287  -0.211277  0  3.95905  0
C  C51  1  0.81342139  0.38175896  0.84012451  1  0  -0.193025  0  3.720158  0  0  -0.215377  0  3.973317  0  0  -0.221359  0  3.994313  0  0  -0.103215  -0.211146  0  3.95887  0
C  C52  1  0.06132757  0.64232944  0.08927909  1  0  -0.046305  0  3.812839  0  0  -0.05804  0  4.065588  0  0  -0.058566  0  4.087369  0  0  -0.091047  -0.057518  0  4.050576  0
C  C53  1  0.93867649  0.35767037  0.91071618  1  0  -0.046522  0  3.812755  0  0  -0.058251  0  4.065508  0  0  -0.058777  0  4.08729  0  0  -0.091035  -0.057732  0  4.050501  0
C  C54  1  0.08616681  0.64150611  0.99027481  1  0  -0.128215  0  3.742097  0  0  -0.150328  0  3.990919  0  0  -0.153413  0  4.012987  0  0  -0.097439  -0.148192  0  3.97593  0
C  C55  1  0.91383425  0.35848968  0.00972047  1  0  -0.128069  0  3.742139  0  0  -0.150158  0  3.990977  0  0  -0.153245  0  4.01305  0  0  -0.097429  -0.148017  0  3.975979  0
C  C56  1  0.24148467  0.61739417  0.96048679  1  0  0.081639  0  3.850454  0  0  0.102605  0  4.081497  0  0  0.101237  0  4.106432  0  0  -0.014379  0.103547  0  4.064447  0
C  C57  1  0.75852657  0.38260726  0.03950993  1  0  0.081734  0  3.850378  0  0  0.10265  0  4.081455  0  0  0.101282  0  4.106389  0  0  -0.014369  0.1036  0  4.064395  0
C  C58  1  0.37029179  0.59785529  0.03260444  1  0  -0.218492  0  3.681474  0  0  -0.244653  0  3.925693  0  0  -0.250568  0  3.946044  0  0  -0.096934  -0.240597  0  3.912003  0
C  C59  1  0.62971686  0.40214615  0.96739356  1  0  -0.218513  0  3.681473  0  0  -0.244655  0  3.925677  0  0  -0.250578  0  3.946042  0  0  -0.096919  -0.240597  0  3.911988  0
C  C60  1  0.26975484  0.60103347  0.85724989  1  0  0.004689  0  3.684364  0  0  -0.017237  0  3.925683  0  0  -0.009067  0  3.939697  0  0  -0.055545  -0.022393  0  3.91563  0
C  C61  1  0.73025914  0.39897442  0.14275003  1  0  0.004526  0  3.684349  0  0  -0.017355  0  3.925657  0  0  -0.009184  0  3.939666  0  0  -0.055611  -0.022518  0  3.915598  0
C  C62  1  0.15263503  0.60009557  0.77471595  1  0  -0.264927  0  3.677072  0  0  -0.278306  0  3.928032  0  0  -0.292441  0  3.944365  0  0  -0.109055  -0.268678  0  3.916262  0
C  C63  1  0.84737491  0.39990586  0.22528068  1  0  -0.265117  0  3.677048  0  0  -0.278486  0  3.928032  0  0  -0.292623  0  3.944361  0  0  -0.10909  -0.268853  0  3.916251  0
C  C64  1  0.18819667  0.56754247  0.67447678  1  0  0.70642  0  3.912385  0  0  0.669717  0  4.191785  0  0  0.704988  0  4.188358  0  0  0.199958  0.64552  0  4.198111  0
C  C65  1  0.81181586  0.43245897  0.32552150  1  0  0.706604  0  3.912018  0  0  0.6699  0  4.191374  0  0  0.705169  0  4.187946  0  0  0.200027  0.645702  0  4.197692  0
C  C66  1  0.86028226  0.07807739  0.37794406  1  0  0.33381  0  3.858072  0  0  0.32852  0  4.11839  0  0  0.339679  0  4.134238  0  0  0.080788  0.320702  0  4.107538  0
C  C67  1  0.13971425  0.92191680  0.62205507  1  0  0.333814  0  3.858194  0  0  0.328475  0  4.118572  0  0  0.339634  0  4.134422  0  0  0.080743  0.32066  0  4.107715  0
C  C68  1  0.77001458  0.15506231  0.35023882  1  0  -0.19459  0  3.709546  0  0  -0.21326  0  3.957778  0  0  -0.218913  0  3.977479  0  0  -0.100744  -0.209199  0  3.944096  0
C  C69  1  0.22998165  0.84493428  0.64975913  1  0  -0.194619  0  3.709736  0  0  -0.21329  0  3.957973  0  0  -0.218943  0  3.977676  0  0  -0.100729  -0.209219  0  3.944303  0
C  C70  1  0.58362475  0.13183611  0.33909219  1  0  -0.043242  0  3.799473  0  0  -0.056651  0  4.054756  0  0  -0.056598  0  4.076974  0  0  -0.092475  -0.056486  0  4.039328  0
C  C71  1  0.41636924  0.86816130  0.66090862  1  0  -0.043144  0  3.799309  0  0  -0.05654  0  4.054603  0  0  -0.056489  0  4.076825  0  0  -0.092425  -0.056373  0  4.039179  0
C  C72  1  0.48357885  0.03262161  0.35453458  1  0  -0.143446  0  3.740839  0  0  -0.169278  0  3.996505  0  0  -0.174083  0  4.019152  0  0  -0.098471  -0.165937  0  3.981039  0
C  C73  1  0.51641583  0.96737742  0.64546869  1  0  -0.143413  0  3.740769  0  0  -0.169247  0  3.996422  0  0  -0.174049  0  4.019074  0  0  -0.098468  -0.165907  0  3.980963  0
C  C74  1  0.57210281  0.95513833  0.38266306  1  0  0.072039  0  3.859691  0  0  0.093785  0  4.092466  0  0  0.09315  0  4.116848  0  0  -0.0158  0.094295  0  4.075811  0
C  C75  1  0.42789643  0.04486231  0.61733854  1  0  0.071957  0  3.859791  0  0  0.093697  0  4.092589  0  0  0.09306  0  4.116974  0  0  -0.015808  0.094212  0  4.075932  0
C  C76  1  0.76085763  0.97890577  0.39414453  1  0  -0.243843  0  3.685268  0  0  -0.266575  0  3.92416  0  0  -0.271413  0  3.941211  0  0  -0.103072  -0.26331  0  3.912746  0
C  C77  1  0.23913826  0.02109003  0.60585476  1  0  -0.243846  0  3.685162  0  0  -0.266591  0  3.92406  0  0  -0.27142  0  3.941097  0  0  -0.103036  -0.263323  0  3.912639  0
C  C78  1  0.46686512  0.85239806  0.39986048  1  0  0.015047  0  3.681942  0  0  -0.010399  0  3.928863  0  0  -0.002824  0  3.943637  0  0  -0.051234  -0.01529  0  3.918375  0
C  C79  1  0.53312982  0.14759854  0.60014030  1  0  0.015193  0  3.681953  0  0  -0.010364  0  3.928837  0  0  -0.002788  0  3.94361  0  0  -0.051193  -0.015258  0  3.91835  0
C  C80  1  0.53552001  0.77349441  0.43113741  1  0  -0.250413  0  3.663373  0  0  -0.266309  0  3.918151  0  0  -0.279703  0  3.933287  0  0  -0.097567  -0.257242  0  3.907428  0
C  C81  1  0.46447431  0.22650380  0.56886060  1  0  -0.250452  0  3.663351  0  0  -0.266155  0  3.918014  0  0  -0.279545  0  3.933159  0  0  -0.097533  -0.257083  0  3.907273  0
C  C82  1  0.42684084  0.67189647  0.44823036  1  0  0.73789  0  3.865129  0  0  0.697211  0  4.145632  0  0  0.734045  0  4.139901  0  0  0.214768  0.671992  0  4.153282  0
C  C83  1  0.57315996  0.32810174  0.55176813  1  0  0.737814  0  3.865201  0  0  0.697059  0  4.14575  0  0  0.733878  0  4.140046  0  0  0.214743  0.671854  0  4.153369  0
C  C84  1  0.30178184  0.08979367  0.91370026  1  0  0.329204  0  3.846288  0  0  0.324984  0  4.106332  0  0  0.335669  0  4.122115  0  0  0.079611  0.317484  0  4.095579  0
C  C85  1  0.69821630  0.91020133  0.08630056  1  0  0.329011  0  3.84638  0  0  0.324792  0  4.106437  0  0  0.335477  0  4.122216  0  0  0.079501  0.317293  0  4.095671  0
C  C86  1  0.28501039  0.97901786  0.91241602  1  0  -0.190175  0  3.726107  0  0  -0.207549  0  3.970714  0  0  -0.213782  0  3.992509  0  0  -0.099809  -0.203233  0  3.955958  0
C  C87  1  0.71498231  0.02097956  0.08758763  1  0  -0.190048  0  3.726234  0  0  -0.207423  0  3.970797  0  0  -0.213654  0  3.992586  0  0  -0.099763  -0.203096  0  3.95602  0
C  C88  1  0.24267713  0.93365251  0.99597654  1  0  -0.032801  0  3.793942  0  0  -0.044785  0  4.044011  0  0  -0.044561  0  4.065625  0  0  -0.08967  -0.044814  0  4.029186  0
C  C89  1  0.75730658  0.06634815  0.00403417  1  0  -0.032944  0  3.79412  0  0  -0.044906  0  4.044207  0  0  -0.044682  0  4.065816  0  0  -0.089664  -0.044934  0  4.029375  0
C  C90  1  0.21736951  0.99716949  0.08075434  1  0  -0.12647  0  3.733072  0  0  -0.152891  0  3.988379  0  0  -0.157075  0  4.011324  0  0  -0.093613  -0.150004  0  3.972724  0
C  C91  1  0.78262846  0.00283117  0.91925522  1  0  -0.126465  0  3.733127  0  0  -0.152915  0  3.988452  0  0  -0.157054  0  4.011403  0  0  -0.093629  -0.150021  0  3.972807  0
C  C92  1  0.23818776  0.10867891  0.08344010  1  0  0.082064  0  3.861618  0  0  0.102689  0  4.095353  0  0  0.100451  0  4.122076  0  0  -0.014671  0.104233  0  4.077102  0
C  C93  1  0.76180698  0.89132334  0.91656284  1  0  0.082064  0  3.861591  0  0  0.102532  0  4.09555  0  0  0.100295  0  4.122266  0  0  -0.014639  0.104073  0  4.077302  0
C  C94  1  0.27998852  0.15419520  0.99897700  1  0  -0.2179  0  3.673451  0  0  -0.24488  0  3.915056  0  0  -0.250783  0  3.936317  0  0  -0.09983  -0.240838  0  3.900742  0
C  C95  1  0.72000063  0.84580302  0.00102722  1  0  -0.217671  0  3.673625  0  0  -0.244631  0  3.915246  0  0  -0.250525  0  3.936517  0  0  -0.099726  -0.240588  0  3.900931  0
C  C96  1  0.21924884  0.17301122  0.17487936  1  0  0.003617  0  3.696581  0  0  -0.018208  0  3.942  0  0  -0.009104  0  3.955653  0  0  -0.054155  -0.024012  0  3.932266  0
C  C97  1  0.78074399  0.82699264  0.82512290  1  0  0.003518  0  3.696451  0  0  -0.018247  0  3.941894  0  0  -0.00914  0  3.955543  0  0  -0.054165  -0.024048  0  3.932164  0
C  C98  1  0.26222294  0.28200110  0.19739778  1  0  -0.267943  0  3.690886  0  0  -0.284569  0  3.952754  0  0  -0.298338  0  3.96724  0  0  -0.107867  -0.275224  0  3.942404  0
C  C99  1  0.73777412  0.71800357  0.80260635  1  0  -0.267848  0  3.690995  0  0  -0.284496  0  3.952858  0  0  -0.298264  0  3.967346  0  0  -0.107848  -0.275155  0  3.942516  0
C  C100  1  0.24525773  0.34017655  0.29309867  1  0  0.693369  0  3.903425  0  0  0.647091  0  4.195644  0  0  0.682339  0  4.191228  0  0  0.196315  0.622629  0  4.202053  0
C  C101  1  0.75474608  0.65982570  0.70690273  1  0  0.693281  0  3.903493  0  0  0.646973  0  4.19579  0  0  0.682219  0  4.191387  0  0  0.196252  0.622508  0  4.202207  0
O  O102  1  0.06256724  0.55689642  0.59754702  1  0  -0.877233  0  2.143032  0  0  -0.816221  0  2.411897  0  0  -0.857754  0  2.398011  0  0  -0.482221  -0.798064  0  2.419767  0
O  O103  1  0.93744087  0.44310987  0.40245520  1  0  -0.877203  0  2.142819  0  0  -0.816225  0  2.411753  0  0  -0.857756  0  2.397876  0  0  -0.482242  -0.798072  0  2.419622  0
O  O104  1  0.07293466  0.32111172  0.57260752  1  0  -0.880393  0  1.78465  0  0  -0.837723  0  1.9617  0  0  -0.861925  0  1.928133  0  0  -0.609935  -0.826196  0  1.980923  0
O  O105  1  0.92707037  0.67888730  0.42738991  1  0  -0.880438  0  1.784604  0  0  -0.837763  0  1.961657  0  0  -0.861972  0  1.928102  0  0  -0.609921  -0.826241  0  1.980875  0
O  O106  1  0.33369293  0.54521232  0.65857284  1  0  -0.672578  0  1.963521  0  0  -0.625512  0  2.198908  0  0  -0.655991  0  2.190732  0  0  -0.366567  -0.609185  0  2.203744  0
O  O107  1  0.66631932  0.45479152  0.34141986  1  0  -0.672619  0  1.96335  0  0  -0.625577  0  2.198815  0  0  -0.656062  0  2.190637  0  0  -0.366575  -0.609249  0  2.203641  0
O  O108  1  0.46784655  0.56820379  0.19507164  1  0  -0.542236  0  2.083061  0  0  -0.498148  0  2.295128  0  0  -0.515708  0  2.284096  0  0  -0.369945  -0.485278  0  2.301927  0
O  O109  1  0.53215657  0.43179684  0.80492878  1  0  -0.542218  0  2.0832  0  0  -0.498159  0  2.295253  0  0  -0.515714  0  2.28421  0  0  -0.369943  -0.485286  0  2.30206  0
O  O110  1  0.50841195  0.60108384  0.47522814  1  0  -0.832009  0  2.126221  0  0  -0.772164  0  2.391199  0  0  -0.813818  0  2.377691  0  0  -0.460339  -0.754057  0  2.399203  0
O  O111  1  0.49159014  0.39891436  0.52476605  1  0  -0.832013  0  2.126211  0  0  -0.772193  0  2.391257  0  0  -0.813838  0  2.377757  0  0  -0.46037  -0.75409  0  2.399252  0
O  O112  1  0.25538148  0.64703120  0.43791952  1  0  -0.716883  0  2.007726  0  0  -0.658979  0  2.241389  0  0  -0.691083  0  2.230225  0  0  -0.356622  -0.641003  0  2.248259  0
O  O113  1  0.74461994  0.35296540  0.56208101  1  0  -0.716837  0  2.007778  0  0  -0.658885  0  2.241448  0  0  -0.691011  0  2.230325  0  0  -0.356601  -0.640913  0  2.2483  0
O  O114  1  0.04100920  0.09571592  0.38896976  1  0  -0.5358  0  2.096335  0  0  -0.489104  0  2.308153  0  0  -0.508214  0  2.297403  0  0  -0.362701  -0.475264  0  2.314382  0
O  O115  1  0.95898607  0.90428148  0.61102896  1  0  -0.535852  0  2.096346  0  0  -0.489131  0  2.308254  0  0  -0.50824  0  2.297474  0  0  -0.362695  -0.475285  0  2.314474  0
O  O116  1  0.18998577  0.29176486  0.36417007  1  0  -0.721768  0  2.039448  0  0  -0.661277  0  2.27712  0  0  -0.693978  0  2.267553  0  0  -0.375251  -0.643137  0  2.282928  0
O  O117  1  0.81001470  0.70823255  0.63583122  1  0  -0.721637  0  2.039575  0  0  -0.661101  0  2.277255  0  0  -0.693808  0  2.267686  0  0  -0.375159  -0.642961  0  2.283065  0
O  O118  1  0.28384036  0.44394942  0.30808153  1  0  -0.705116  0  2.047524  0  0  -0.647385  0  2.290067  0  0  -0.678675  0  2.279613  0  0  -0.369861  -0.630269  0  2.296848  0
O  O119  1  0.71616890  0.55605041  0.69191850  1  0  -0.705204  0  2.047467  0  0  -0.647462  0  2.290001  0  0  -0.678759  0  2.279547  0  0  -0.36989  -0.630334  0  2.296776  0
O  O120  1  0.33961862  0.13949072  0.83417682  1  0  -0.509055  0  2.100651  0  0  -0.463333  0  2.294627  0  0  -0.480148  0  2.288154  0  0  -0.362016  -0.451184  0  2.29874  0
O  O121  1  0.66038048  0.86050348  0.16582617  1  0  -0.509126  0  2.100494  0  0  -0.463378  0  2.294466  0  0  -0.480192  0  2.287989  0  0  -0.362061  -0.451234  0  2.29858  0
