# generated using pymatgen
data_AgP3H38C36(SO)2
_symmetry_space_group_name_H-M   'P 1'
_cell_length_a   6.88101030
_cell_length_b   16.17336026
_cell_length_c   16.59005360
_cell_angle_alpha   89.99859481
_cell_angle_beta   92.66682227
_cell_angle_gamma   89.99751848
_symmetry_Int_Tables_number   1
_chemical_formula_structural   AgP3H38C36(SO)2
_chemical_formula_sum   'Ag2 P6 H76 C72 S4 O4'
_cell_volume   1844.29188232
_cell_formula_units_Z   2
loop_
 _symmetry_equiv_pos_site_id
 _symmetry_equiv_pos_as_xyz
  1  'x, y, z'
loop_
 _atom_site_type_symbol
 _atom_site_label
 _atom_site_symmetry_multiplicity
 _atom_site_fract_x
 _atom_site_fract_y
 _atom_site_fract_z
 _atom_site_occupancy
 _atom_site_pbe_bader_charge
 _atom_site_pbe_bader_spin_density
 _atom_site_pbe_cm5_charge
 _atom_site_pbe_ddec_charge
 _atom_site_pbe_ddec_spin_density
 _atom_site_pbe_ddec_sum_bond_order
 _atom_site_pbe_magmom
Ag  Ag0  1  0.94524782  0.26641286  0.27685857  1  0.225118  0  0.359282  -0.016991  0  2.819556  0
Ag  Ag1  1  0.05471809  0.76641036  0.72314109  1  0.225155  0  0.359239  -0.017038  0  2.819462  0
P  P2  1  0.79817588  0.23548146  0.40435978  1  1.417501  0  -0.019835  0.301915  0  4.123522  0
P  P3  1  0.20180057  0.73548634  0.59563599  1  1.417383  0  -0.019775  0.302168  0  4.12348  0
P  P4  1  0.10314140  0.13993099  0.24099091  1  1.4085  0  -0.023237  0.299171  0  4.180402  0
P  P5  1  0.89686982  0.63991821  0.75899935  1  1.408494  0  -0.023219  0.299097  0  4.180579  0
P  P6  1  0.87703975  0.43859953  0.19637322  1  2.019999  0  0.168759  0.705398  0  5.133108  0
P  P7  1  0.12295331  0.93859308  0.80361698  1  2.020012  0  0.16878  0.705394  0  5.133399  0
H  H8  1  0.55372541  0.36757515  0.34488263  1  0.088161  0  0.09583  0.095094  0  1.040166  0
H  H9  1  0.44627213  0.86755730  0.65511413  1  0.087985  0  0.095805  0.09511  0  1.040062  0
H  H10  1  0.36265507  0.47591780  0.41125127  1  0.088209  0  0.095862  0.102848  0  1.013392  0
H  H11  1  0.63736602  0.97588329  0.58874949  1  0.088259  0  0.095967  0.103053  0  1.013396  0
H  H12  1  0.39152260  0.49182262  0.56172056  1  0.049245  0  0.093296  0.082248  0  1.063542  0
H  H13  1  0.60850409  0.99180612  0.43828175  1  0.049393  0  0.09331  0.08233  0  1.063647  0
H  H14  1  0.60798913  0.39948625  0.64338913  1  0.062502  0  0.095345  0.086178  0  1.040907  0
H  H15  1  0.39200945  0.89949502  0.35660570  1  0.062477  0  0.095313  0.08614  0  1.040732  0
H  H16  1  0.79227403  0.28790933  0.57712826  1  0.071871  0  0.094813  0.08809  0  1.050932  0
H  H17  1  0.20770279  0.78792660  0.42286149  1  0.071733  0  0.094788  0.088056  0  1.050831  0
H  H18  1  0.81987460  0.07069812  0.48612208  1  0.032188  0  0.095392  0.090246  0  1.060709  0
H  H19  1  0.18010297  0.57070119  0.51389079  1  0.032064  0  0.095368  0.090217  0  1.060698  0
H  H20  1  0.07333322  0.00615883  0.57561800  1  0.107368  0  0.091076  0.099385  0  1.035921  0
H  H21  1  0.92665990  0.50617268  0.42438584  1  0.107719  0  0.091134  0.099512  0  1.035768  0
H  H22  1  0.36573045  0.08622302  0.62071365  1  0.049099  0  0.093901  0.090188  0  1.048213  0
H  H23  1  0.63427767  0.58625085  0.37927417  1  0.049182  0  0.093982  0.090263  0  1.048121  0
H  H24  1  0.40157332  0.23309007  0.57720403  1  0.073622  0  0.094581  0.094216  0  1.036498  0
H  H25  1  0.59844278  0.73312300  0.42277271  1  0.073552  0  0.094641  0.094163  0  1.036545  0
H  H26  1  0.15428889  0.29695227  0.48390295  1  0.099225  0  0.098195  0.1001  0  1.01315  0
H  H27  1  0.84571616  0.79697391  0.51607631  1  0.098814  0  0.098187  0.100055  0  1.013061  0
H  H28  1  0.31999181  0.26081588  0.15867681  1  0.071006  0  0.092373  0.090637  0  1.048111  0
H  H29  1  0.68004473  0.76082538  0.84129187  1  0.071648  0  0.092191  0.090441  0  1.04799  0
H  H30  1  0.48143608  0.26389520  0.02867909  1  0.10723  0  0.094724  0.099078  0  1.010526  0
H  H31  1  0.51859434  0.76393834  0.97128638  1  0.106819  0  0.094729  0.099072  0  1.010627  0
H  H32  1  0.45062795  0.14274199  0.93488211  1  0.07935  0  0.09499  0.090469  0  1.03555  0
H  H33  1  0.54936118  0.64279434  0.06510402  1  0.07955  0  0.094958  0.09061  0  1.035274  0
H  H34  1  0.11856399  0.01261146  0.10820652  1  0.068401  0  0.097536  0.095462  0  1.018992  0
H  H35  1  0.88138623  0.51260296  0.89180051  1  0.068675  0  0.097508  0.095378  0  1.018918  0
H  H36  1  0.26715781  0.01813393  0.97516719  1  0.106303  0  0.099622  0.102405  0  1.031018  0
H  H37  1  0.73278165  0.51816106  0.02483829  1  0.106733  0  0.099652  0.102623  0  1.030988  0
H  H38  1  0.75121433  0.10366599  0.14619251  1  0.086592  0  0.104688  0.106924  0  0.99806  0
H  H39  1  0.24874370  0.60365840  0.85383306  1  0.086141  0  0.104621  0.106855  0  0.997924  0
H  H40  1  0.51932911  0.98724769  0.14328139  1  0.090338  0  0.098813  0.096852  0  1.027251  0
H  H41  1  0.48064822  0.48723762  0.85677547  1  0.089735  0  0.098715  0.096636  0  1.027071  0
H  H42  1  0.56846302  0.86866150  0.23887142  1  0.088031  0  0.097158  0.092886  0  1.061087  0
H  H43  1  0.43158786  0.36865170  0.76118186  1  0.08864  0  0.097196  0.093017  0  1.061344  0
H  H44  1  0.85015766  0.86963762  0.33859478  1  0.062803  0  0.099383  0.096928  0  1.007  0
H  H45  1  0.14993981  0.36962013  0.66143833  1  0.0632  0  0.099426  0.096972  0  1.006776  0
H  H46  1  0.08830028  0.98363641  0.33940696  1  0.06044  0  0.096497  0.092344  0  1.053077  0
H  H47  1  0.91177384  0.48361725  0.66059470  1  0.061056  0  0.096515  0.092265  0  1.05314  0
H  H48  1  0.07584019  0.36743986  0.05511080  1  0.052334  0  0.093513  0.057234  0  0.979551  0
H  H49  1  0.92417627  0.86743043  0.94488816  1  0.052116  0  0.093521  0.057279  0  0.979517  0
H  H50  1  0.23466210  0.39532824  0.13887484  1  0.06003  0  0.086965  0.046188  0  1.046161  0
H  H51  1  0.76533832  0.89532267  0.86112616  1  0.060202  0  0.086968  0.046173  0  1.046156  0
H  H52  1  0.38367267  0.43504939  0.01036798  1  0.044312  0  0.088289  0.120644  0  1.011148  0
H  H53  1  0.61634106  0.93505068  0.98963237  1  0.044653  0  0.088225  0.120545  0  1.011144  0
H  H54  1  0.33219140  0.52410112  0.06794134  1  0.051833  0  0.085121  0.121119  0  1.029677  0
H  H55  1  0.66782316  0.02410296  0.93205709  1  0.051937  0  0.085083  0.121037  0  1.029643  0
H  H56  1  0.17825976  0.49777092  0.98253056  1  0.041265  0  0.084608  0.118526  0  1.026708  0
H  H57  1  0.82175615  0.99776135  0.01746778  1  0.041216  0  0.084618  0.118485  0  1.026738  0
H  H58  1  0.46168689  0.46316745  0.22570390  1  0.099252  0  0.091874  0.093728  0  1.056687  0
H  H59  1  0.53830797  0.96315471  0.77428577  1  0.099144  0  0.091812  0.093686  0  1.056642  0
H  H60  1  0.26712236  0.58610751  0.25065186  1  0.087012  0  0.096799  0.107876  0  1.060178  0
H  H61  1  0.73287987  0.08609122  0.74934911  1  0.086991  0  0.096788  0.107889  0  1.060139  0
H  H62  1  0.77452671  0.74015650  0.22411115  1  0.074972  0  0.104823  0.115474  0  1.015422  0
H  H63  1  0.22546377  0.24015383  0.77588963  1  0.074939  0  0.104879  0.115565  0  1.015486  0
H  H64  1  0.96937661  0.61395615  0.19786647  1  0.054282  0  0.099979  0.088723  0  1.043892  0
H  H65  1  0.03061694  0.11395641  0.80212524  1  0.054266  0  0.100009  0.088699  0  1.043989  0
H  H66  1  0.68181984  0.10145271  0.36901785  1  0.041211  0  0.096891  0.115152  0  1.015284  0
H  H67  1  0.31818225  0.60145330  0.63098216  1  0.0412  0  0.096915  0.115242  0  1.015182  0
H  H68  1  0.54137341  0.14236100  0.44777488  1  0.053669  0  0.094804  0.115688  0  1.009903  0
H  H69  1  0.45860841  0.64236412  0.55222195  1  0.053639  0  0.094825  0.115697  0  1.009959  0
H  H70  1  0.51701833  0.19662559  0.26975632  1  0.068486  0  0.083801  0.081905  0  1.018361  0
H  H71  1  0.48298985  0.69662676  0.73023617  1  0.065903  0  0.083799  0.081888  0  1.018367  0
H  H72  1  0.37236490  0.23744802  0.34534774  1  0.051699  0  0.084686  0.078443  0  1.020038  0
H  H73  1  0.62762159  0.73744352  0.65463735  1  0.051961  0  0.084706  0.078476  0  1.020089  0
H  H74  1  0.23341714  0.09812233  0.37117003  1  0.074988  0  0.099212  0.123877  0  0.998826  0
H  H75  1  0.76658246  0.59811345  0.62881915  1  0.074666  0  0.099144  0.123702  0  0.998862  0
H  H76  1  0.37367343  0.05456027  0.29387267  1  0.044231  0  0.094186  0.114655  0  1.004787  0
H  H77  1  0.62633649  0.55455632  0.70612436  1  0.04422  0  0.094176  0.114595  0  1.004817  0
H  H78  1  0.16308049  0.80756627  0.26601042  1  0.072399  0  0.104956  0.109772  0  1.00366  0
H  H79  1  0.83688963  0.30757071  0.73401972  1  0.072381  0  0.104965  0.109797  0  1.003559  0
H  H80  1  0.15691995  0.70344895  0.30324066  1  0.038413  0  0.100876  0.104203  0  0.998113  0
H  H81  1  0.84309895  0.20345610  0.69678264  1  0.038599  0  0.100908  0.104239  0  0.998269  0
H  H82  1  0.14292223  0.72306790  0.19638078  1  0.026794  0  0.103575  0.107177  0  0.987611  0
H  H83  1  0.85704078  0.22306091  0.80364273  1  0.027443  0  0.103603  0.107237  0  0.987389  0
C  C84  1  0.68030723  0.31887332  0.45715322  1  -0.525704  0  -0.023897  -0.048057  0  3.966528  0
C  C85  1  0.31966485  0.81887739  0.54284354  1  -0.526143  0  -0.02395  -0.048224  0  3.96688  0
C  C86  1  0.56241688  0.37351301  0.41053056  1  -0.04983  0  -0.082331  -0.083619  0  3.943987  0
C  C87  1  0.43756987  0.87350689  0.58946222  1  -0.049124  0  -0.082195  -0.083388  0  3.943759  0
C  C88  1  0.45709797  0.43516240  0.44797156  1  -0.041568  0  -0.090158  -0.072818  0  3.979875  0
C  C89  1  0.54290266  0.93514666  0.55202731  1  -0.042003  0  -0.090397  -0.073249  0  3.98025  0
C  C90  1  0.47343681  0.44417352  0.53176084  1  -0.015621  0  -0.094039  -0.086532  0  4.007203  0
C  C91  1  0.52656869  0.94416951  0.46823913  1  -0.015678  0  -0.093937  -0.086513  0  4.007287  0
C  C92  1  0.59621985  0.39220856  0.57802364  1  -0.162357  0  -0.096104  -0.087071  0  4.026023  0
C  C93  1  0.40376345  0.89221296  0.42197587  1  -0.162509  0  -0.096177  -0.087128  0  4.025909  0
C  C94  1  0.69897355  0.32951920  0.54101722  1  -0.014506  0  -0.092321  -0.105793  0  4.000449  0
C  C95  1  0.30100180  0.82953320  0.45897635  1  -0.014038  0  -0.092268  -0.105699  0  4.000489  0
C  C96  1  0.96768513  0.18857836  0.47835115  1  -0.509439  0  -0.031438  -0.065949  0  4.000066  0
C  C97  1  0.03229623  0.68859075  0.52164400  1  -0.509295  0  -0.031515  -0.066339  0  4.00061  0
C  C98  1  0.94773070  0.10663976  0.50485170  1  0.005133  0  -0.095861  -0.112889  0  3.991501  0
C  C99  1  0.05224610  0.60664443  0.49515008  1  0.005432  0  -0.095899  -0.112716  0  3.991391  0
C  C100  1  0.09115854  0.06968994  0.55513741  1  -0.166534  0  -0.094743  -0.075171  0  3.998165  0
C  C101  1  0.90883230  0.56970360  0.44486431  1  -0.166364  0  -0.094717  -0.075358  0  3.998253  0
C  C102  1  0.25478196  0.11496131  0.58100245  1  0.060017  0  -0.094009  -0.08024  0  3.99943  0
C  C103  1  0.74521441  0.61498360  0.41898869  1  0.060094  0  -0.094163  -0.080362  0  3.999321  0
C  C104  1  0.27485687  0.19716514  0.55648267  1  -0.083042  0  -0.096788  -0.08454  0  4.002891  0
C  C105  1  0.72514549  0.69719273  0.44350126  1  -0.083404  0  -0.096776  -0.084433  0  4.002977  0
C  C106  1  0.13413535  0.23354236  0.50461861  1  -0.141101  0  -0.090804  -0.103964  0  3.980343  0
C  C107  1  0.86585738  0.73356107  0.49536609  1  -0.141377  0  -0.090765  -0.103751  0  3.980456  0
C  C108  1  0.21184427  0.13592590  0.14301385  1  -0.540332  0  -0.028935  -0.059141  0  3.986803  0
C  C109  1  0.78814406  0.63593300  0.85697965  1  -0.539771  0  -0.028908  -0.059073  0  3.986631  0
C  C110  1  0.31243697  0.20676894  0.11924137  1  -0.037101  0  -0.089354  -0.094252  0  3.975896  0
C  C111  1  0.68758770  0.70678841  0.88073797  1  -0.038567  0  -0.089331  -0.09421  0  3.97596  0
C  C112  1  0.40121744  0.20876247  0.04535521  1  -0.116614  0  -0.094173  -0.078211  0  3.993445  0
C  C113  1  0.59880410  0.70880023  0.95462523  1  -0.116234  0  -0.094063  -0.077833  0  3.99371  0
C  C114  1  0.38556150  0.14077750  0.99350412  1  -0.031424  0  -0.08976  -0.074932  0  3.989112  0
C  C115  1  0.61443658  0.64082273  0.00647922  1  -0.031443  0  -0.089799  -0.075452  0  3.989975  0
C  C116  1  0.19787812  0.06772319  0.09080666  1  -0.055078  0  -0.090719  -0.103838  0  3.999524  0
C  C117  1  0.80208824  0.56773301  0.90918917  1  -0.055577  0  -0.090718  -0.103803  0  3.999304  0
C  C118  1  0.28321528  0.07051314  0.01615204  1  -0.078344  0  -0.090792  -0.07407  0  3.984634  0
C  C119  1  0.71674640  0.57053992  0.98384665  1  -0.077988  0  -0.090768  -0.074108  0  3.985006  0
C  C120  1  0.93948028  0.05134365  0.24161648  1  -0.527447  0  -0.026983  -0.0585  0  3.980205  0
C  C121  1  0.06052555  0.55133890  0.75839079  1  -0.527216  0  -0.026839  -0.058295  0  3.980177  0
C  C122  1  0.77555689  0.05180031  0.18761576  1  -0.06875  0  -0.082158  -0.090722  0  3.961009  0
C  C123  1  0.22442701  0.55179053  0.81239949  1  -0.067814  0  -0.08218  -0.090969  0  3.96064  0
C  C124  1  0.64398084  0.98621095  0.18628465  1  -0.041957  0  -0.089428  -0.073623  0  3.998224  0
C  C125  1  0.35602876  0.48620243  0.81374878  1  -0.042086  0  -0.089247  -0.073049  0  3.997454  0
C  C126  1  0.67093453  0.92009573  0.23999416  1  -0.082064  0  -0.09722  -0.096539  0  4.012027  0
C  C127  1  0.32913143  0.42008539  0.76004498  1  -0.082958  0  -0.097347  -0.096896  0  4.012602  0
C  C128  1  0.83029315  0.92019372  0.29532765  1  -0.061539  0  -0.096409  -0.087874  0  4.026506  0
C  C129  1  0.16978306  0.42018773  0.70470084  1  -0.059696  0  -0.096471  -0.08799  0  4.026696  0
C  C130  1  0.96467522  0.98506767  0.29592158  1  -0.061483  0  -0.094331  -0.115066  0  3.991924  0
C  C131  1  0.03538702  0.48505615  0.70409247  1  -0.064164  0  -0.094315  -0.114886  0  3.99192  0
C  C132  1  0.14493793  0.41987750  0.08761593  1  0.381195  0  -0.069164  0.112052  0  3.877566  0
C  C133  1  0.85506867  0.91986957  0.91238342  1  0.380919  0  -0.069152  0.112014  0  3.877419  0
C  C134  1  0.26563209  0.47252910  0.03379554  1  -0.08041  0  -0.250036  -0.390264  0  3.950296  0
C  C135  1  0.73438356  0.97252386  0.96620157  1  -0.080523  0  -0.249878  -0.389928  0  3.950186  0
C  C136  1  0.72991875  0.52981179  0.21117212  1  -0.482298  0  -0.034872  -0.131589  0  3.990279  0
C  C137  1  0.27007198  0.02980983  0.78881967  1  -0.483199  0  -0.034899  -0.131713  0  3.990206  0
C  C138  1  0.53187104  0.52367124  0.22544694  1  -0.070614  0  -0.079289  -0.04233  0  3.980002  0
C  C139  1  0.46812905  0.02366289  0.77454579  1  -0.070177  0  -0.079249  -0.042234  0  3.979693  0
C  C140  1  0.42040522  0.59418125  0.23900378  1  -0.028525  0  -0.110994  -0.226992  0  3.987289  0
C  C141  1  0.57958600  0.09417491  0.76099436  1  -0.028307  0  -0.111026  -0.227057  0  3.98731  0
C  C142  1  0.50899524  0.67216794  0.23889469  1  0.400257  0  0.085344  0.255578  0  4.052387  0
C  C143  1  0.49099797  0.17216199  0.76110832  1  0.400276  0  0.085338  0.255441  0  4.052404  0
C  C144  1  0.70804020  0.67898800  0.22453297  1  -0.011786  0  -0.101882  -0.207606  0  3.998785  0
C  C145  1  0.29194504  0.17898721  0.77546731  1  -0.011969  0  -0.101993  -0.207765  0  3.998825  0
C  C146  1  0.81622410  0.60851141  0.21066305  1  -0.011201  0  -0.078871  -0.048904  0  4.006366  0
C  C147  1  0.18377582  0.10851102  0.78933192  1  -0.010794  0  -0.078888  -0.048805  0  4.006542  0
C  C148  1  0.60620775  0.15692151  0.39002923  1  -0.463785  0  -0.168096  -0.294415  0  3.896588  0
C  C149  1  0.39378420  0.65692434  0.60996567  1  -0.462927  0  -0.168128  -0.294585  0  3.896841  0
C  C150  1  0.44892773  0.18134419  0.32662585  1  -0.058201  0  -0.165229  -0.093233  0  3.942399  0
C  C151  1  0.55106460  0.68134309  0.67336547  1  -0.056223  0  -0.165218  -0.093203  0  3.94245  0
C  C152  1  0.30165826  0.11133923  0.31378884  1  -0.475843  0  -0.167752  -0.289856  0  3.884996  0
C  C153  1  0.69834138  0.61133385  0.68620425  1  -0.475876  0  -0.167705  -0.289549  0  3.884865  0
C  C154  1  0.20767716  0.74367018  0.25493430  1  0.425198  0  -0.135311  -0.176687  0  3.902155  0
C  C155  1  0.79230843  0.24366775  0.74508980  1  0.424375  0  -0.135352  -0.176821  0  3.902146  0
S  S156  1  0.07022841  0.41986817  0.28925535  1  -0.726948  0  -0.234964  -0.478388  0  2.3509  0
S  S157  1  0.92975492  0.91987210  0.71074172  1  -0.727142  0  -0.234889  -0.478335  0  2.35118  0
S  S158  1  0.70973107  0.34073308  0.16849006  1  -0.743316  0  -0.23651  -0.48234  0  2.344773  0
S  S159  1  0.29028248  0.84072406  0.83149017  1  -0.743492  0  -0.236492  -0.482311  0  2.344988  0
O  O160  1  0.99258432  0.47129644  0.11901672  1  -1.27716  0  -0.21651  -0.328077  0  2.515431  0
O  O161  1  0.00742278  0.97128641  0.88097362  1  -1.276891  0  -0.216552  -0.328169  0  2.515468  0
O  O162  1  0.41511790  0.74508915  0.25309581  1  -1.080205  0  -0.187162  -0.166043  0  2.582921  0
O  O163  1  0.58486183  0.24508060  0.74691186  1  -1.079982  0  -0.187099  -0.16583  0  2.583053  0
