# generated using pymatgen
data_ZnH5C3N4ClO3
_symmetry_space_group_name_H-M   'P 1'
_cell_length_a   5.16669812
_cell_length_b   6.17551495
_cell_length_c   12.74260815
_cell_angle_alpha   90.00006181
_cell_angle_beta   89.99987683
_cell_angle_gamma   105.99910189
_symmetry_Int_Tables_number   1
_chemical_formula_structural   ZnH5C3N4ClO3
_chemical_formula_sum   'Zn2 H10 C6 N8 Cl2 O6'
_cell_volume   390.83025991
_cell_formula_units_Z   2
loop_
 _symmetry_equiv_pos_site_id
 _symmetry_equiv_pos_as_xyz
  1  'x, y, z'
loop_
 _atom_site_type_symbol
 _atom_site_label
 _atom_site_symmetry_multiplicity
 _atom_site_fract_x
 _atom_site_fract_y
 _atom_site_fract_z
 _atom_site_occupancy
 _atom_site_hle17_bader_spin_density
 _atom_site_hle17_ddec_charge
 _atom_site_hle17_ddec_spin_density
 _atom_site_hle17_ddec_sum_bond_order
 _atom_site_hle17_magmom
 _atom_site_hse06_10hf_bader_spin_density
 _atom_site_hse06_10hf_ddec_charge
 _atom_site_hse06_10hf_ddec_spin_density
 _atom_site_hse06_10hf_ddec_sum_bond_order
 _atom_site_hse06_10hf_magmom
 _atom_site_hse06_bader_spin_density
 _atom_site_hse06_ddec_charge
 _atom_site_hse06_ddec_spin_density
 _atom_site_hse06_ddec_sum_bond_order
 _atom_site_hse06_magmom
 _atom_site_pbe_bader_spin_density
 _atom_site_pbe_cm5_charge
 _atom_site_pbe_ddec_charge
 _atom_site_pbe_ddec_spin_density
 _atom_site_pbe_ddec_sum_bond_order
 _atom_site_pbe_magmom
Zn  Zn0  1  0.93831652  0.47334715  0.28592704  1  0  1.037592  0  1.913553  0  0  0.85931  0  2.405895  0  0  0.903281  0  2.348544  0  0  0.636386  0.828585  0  2.445524  0
Zn  Zn1  1  0.06169175  0.52665282  0.78592712  1  0  1.037583  0  1.913534  0  0  0.859295  0  2.405922  0  0  0.90327  0  2.348565  0  0  0.636352  0.82857  0  2.445527  0
H  H2  1  0.00014924  0.97395167  0.16471848  1  0  0.130267  0  0.949715  0  0  0.134624  0  1.019748  0  0  0.138241  0  1.015546  0  0  0.136733  0.131883  0  1.022875  0
H  H3  1  0.99983966  0.02604628  0.66472533  1  0  0.130224  0  0.949798  0  0  0.134577  0  1.01983  0  0  0.138185  0  1.015656  0  0  0.13671  0.131844  0  1.022949  0
H  H4  1  0.56023229  0.11404231  0.94803176  1  0  0.152797  0  0.935993  0  0  0.161051  0  1.000068  0  0  0.164616  0  0.997607  0  0  0.128515  0.15846  0  1.00192  0
H  H5  1  0.43977646  0.88596796  0.44802683  1  0  0.152807  0  0.936042  0  0  0.161012  0  1.000123  0  0  0.164576  0  0.997665  0  0  0.12854  0.158426  0  1.001977  0
H  H6  1  0.43829717  0.26300557  0.04791706  1  0  0.12518  0  0.951504  0  0  0.127162  0  1.030805  0  0  0.129799  0  1.02854  0  0  0.118853  0.125248  0  1.032455  0
H  H7  1  0.56168400  0.73699048  0.54791131  1  0  0.125093  0  0.951537  0  0  0.127032  0  1.030875  0  0  0.129671  0  1.02861  0  0  0.118777  0.125117  0  1.032527  0
H  H8  1  0.39523980  0.47883214  0.38036085  1  0  0.433259  0  0.868757  0  0  0.399576  0  0.936469  0  0  0.41067  0  0.920566  0  0  0.293208  0.391732  0  0.947699  0
H  H9  1  0.60476520  0.52117128  0.88036280  1  0  0.43329  0  0.868734  0  0  0.399613  0  0.93644  0  0  0.410711  0  0.920531  0  0  0.29321  0.391767  0  0.947674  0
H  H10  1  0.17279882  0.23784512  0.39788477  1  0  0.434004  0  0.866674  0  0  0.39679  0  0.94173  0  0  0.407474  0  0.926343  0  0  0.292596  0.389233  0  0.952596  0
H  H11  1  0.82721158  0.76216342  0.89788194  1  0  0.43411  0  0.866547  0  0  0.396906  0  0.941589  0  0  0.40759  0  0.926201  0  0  0.292614  0.389342  0  0.952466  0
C  C12  1  0.11556870  0.86699618  0.13118131  1  0  0.202438  0  3.570828  0  0  0.119043  0  3.834785  0  0  0.132768  0  3.844744  0  0  0.190345  0.110016  0  3.828197  0
C  C13  1  0.88442653  0.13299675  0.63118518  1  0  0.202433  0  3.57095  0  0  0.119066  0  3.834898  0  0  0.132787  0  3.844853  0  0  0.190383  0.110038  0  3.828318  0
C  C14  1  0.37974455  0.12480130  0.99072561  1  0  -0.203545  0  3.617414  0  0  -0.273121  0  3.854657  0  0  -0.276032  0  3.861021  0  0  -0.054473  -0.27104  0  3.850442  0
C  C15  1  0.62025603  0.87520223  0.49072444  1  0  -0.203587  0  3.617533  0  0  -0.272958  0  3.854623  0  0  -0.275873  0  3.86099  0  0  -0.054441  -0.270878  0  3.850409  0
C  C16  1  0.17752902  0.17754309  0.91508657  1  0  0.70924  0  3.84417  0  0  0.652825  0  4.153901  0  0  0.686038  0  4.146997  0  0  0.217498  0.630275  0  4.157779  0
C  C17  1  0.82248057  0.82245707  0.41508990  1  0  0.709275  0  3.843943  0  0  0.652783  0  4.153728  0  0  0.685995  0  4.14683  0  0  0.217523  0.630231  0  4.157608  0
N  N18  1  0.28260413  0.91614513  0.04867224  1  0  0.064837  0  3.540178  0  0  0.185142  0  3.722221  0  0  0.175787  0  3.741502  0  0  -0.111753  0.191069  0  3.709265  0
N  N19  1  0.71739363  0.08385443  0.54867388  1  0  0.064887  0  3.540207  0  0  0.185086  0  3.722297  0  0  0.175732  0  3.741578  0  0  -0.111748  0.191008  0  3.709351  0
N  N20  1  0.11887087  0.66398284  0.16466656  1  0  -0.299297  0  3.235092  0  0  -0.229795  0  3.560976  0  0  -0.248456  0  3.569414  0  0  -0.231517  -0.217451  0  3.555372  0
N  N21  1  0.88111945  0.33601345  0.66466974  1  0  -0.299268  0  3.235117  0  0  -0.229745  0  3.560952  0  0  -0.248403  0  3.569392  0  0  -0.231532  -0.217394  0  3.555338  0
N  N22  1  0.29075866  0.59079926  0.10153182  1  0  -0.040948  0  2.920153  0  0  -0.039863  0  3.220371  0  0  -0.038101  0  3.230757  0  0  -0.065125  -0.040913  0  3.213438  0
N  N23  1  0.70923939  0.40920205  0.60153598  1  0  -0.040964  0  2.920001  0  0  -0.039892  0  3.220224  0  0  -0.038133  0  3.230611  0  0  -0.065116  -0.040942  0  3.213295  0
N  N24  1  0.39064683  0.74242351  0.03186397  1  0  -0.059079  0  2.850507  0  0  -0.07298  0  3.131254  0  0  -0.071636  0  3.140777  0  0  -0.05129  -0.073791  0  3.125016  0
N  N25  1  0.60936019  0.25757444  0.53186893  1  0  -0.059067  0  2.850415  0  0  -0.072945  0  3.131174  0  0  -0.0716  0  3.140699  0  0  -0.051294  -0.073748  0  3.12494  0
Cl  Cl26  1  0.66612691  0.14580312  0.23612487  1  0  -0.573769  0  0.958606  0  0  -0.512149  0  1.244665  0  0  -0.529284  0  1.220043  0  0  -0.303583  -0.499781  0  1.261538  0
Cl  Cl27  1  0.33385549  0.85419990  0.73611938  1  0  -0.573765  0  0.958707  0  0  -0.51212  0  1.244751  0  0  -0.529249  0  1.220134  0  0  -0.30356  -0.499752  0  1.261621  0
O  O28  1  0.94113475  0.05842793  0.90655577  1  0  -0.609797  0  1.993061  0  0  -0.560724  0  2.228623  0  0  -0.584708  0  2.220073  0  0  -0.30138  -0.544021  0  2.234005  0
O  O29  1  0.05887168  0.94156211  0.40656218  1  0  -0.609724  0  1.992994  0  0  -0.560682  0  2.22865  0  0  -0.584644  0  2.220052  0  0  -0.301395  -0.54398  0  2.234036  0
O  O30  1  0.19828165  0.40234953  0.38748897  1  0  -0.833678  0  1.950766  0  0  -0.764678  0  2.179327  0  0  -0.787084  0  2.141507  0  0  -0.574775  -0.748993  0  2.205644  0
O  O31  1  0.80172525  0.59765393  0.88748922  1  0  -0.833833  0  1.950659  0  0  -0.764856  0  2.179203  0  0  -0.787256  0  2.14138  0  0  -0.574796  -0.749166  0  2.205524  0
O  O32  1  0.28138448  0.36375719  0.86467695  1  0  -0.669485  0  2.131913  0  0  -0.582216  0  2.401618  0  0  -0.61339  0  2.386984  0  0  -0.32025  -0.560521  0  2.41114  0
O  O33  1  0.71862094  0.63624118  0.36467322  1  0  -0.669507  0  2.131738  0  0  -0.582171  0  2.40143  0  0  -0.613343  0  2.386789  0  0  -0.320214  -0.560472  0  2.410954  0
