# generated using pymatgen
data_Sr4H10C8N16O13
_symmetry_space_group_name_H-M   'P 1'
_cell_length_a   9.33540675
_cell_length_b   17.37867704
_cell_length_c   18.07602168
_cell_angle_alpha   107.30334448
_cell_angle_beta   90.00003894
_cell_angle_gamma   89.99993703
_symmetry_Int_Tables_number   1
_chemical_formula_structural   Sr4H10C8N16O13
_chemical_formula_sum   'Sr16 H40 C32 N64 O52'
_cell_volume   2799.88048727
_cell_formula_units_Z   4
loop_
 _symmetry_equiv_pos_site_id
 _symmetry_equiv_pos_as_xyz
  1  'x, y, z'
loop_
 _atom_site_type_symbol
 _atom_site_label
 _atom_site_symmetry_multiplicity
 _atom_site_fract_x
 _atom_site_fract_y
 _atom_site_fract_z
 _atom_site_occupancy
 _atom_site_pbe_bader_charge
 _atom_site_pbe_bader_spin_density
 _atom_site_pbe_cm5_charge
 _atom_site_pbe_ddec_charge
 _atom_site_pbe_ddec_spin_density
 _atom_site_pbe_ddec_sum_bond_order
 _atom_site_pbe_magmom
Sr  Sr0  1  0.30496002  0.87133655  0.67641690  1  1.662581  0  1.000679  1.280018  0  1.672969  0
Sr  Sr1  1  0.80320004  0.62371121  0.82721279  1  1.66823  0  1.011402  1.316484  0  1.59611  0
Sr  Sr2  1  0.46194329  0.58972471  0.67277154  1  1.662875  0  0.981424  1.287472  0  1.624034  0
Sr  Sr3  1  0.46550016  0.08300032  0.67073558  1  1.670946  0  0.991985  1.381663  0  1.56701  0
Sr  Sr4  1  0.80495623  0.12866400  0.82358306  1  1.662476  0  1.000674  1.279951  0  1.673036  0
Sr  Sr5  1  0.30319949  0.37629058  0.67279028  1  1.668204  0  1.011422  1.316387  0  1.596208  0
Sr  Sr6  1  0.96194321  0.41027456  0.82722924  1  1.662849  0  0.981388  1.287417  0  1.624119  0
Sr  Sr7  1  0.96550333  0.91700073  0.82926347  1  1.670996  0  0.99199  1.381701  0  1.566991  0
Sr  Sr8  1  0.69504746  0.12866463  0.32358345  1  1.662465  0  1.000689  1.279931  0  1.67297  0
Sr  Sr9  1  0.19680208  0.37629060  0.17278995  1  1.668199  0  1.011405  1.316415  0  1.596143  0
Sr  Sr10  1  0.53805455  0.41027345  0.32722854  1  1.662811  0  0.981388  1.287472  0  1.624085  0
Sr  Sr11  1  0.53450410  0.91700260  0.32926083  1  1.670962  0  0.992015  1.381718  0  1.566983  0
Sr  Sr12  1  0.19505124  0.87133718  0.17641784  1  1.662455  0  1.000658  1.279933  0  1.673075  0
Sr  Sr13  1  0.69679835  0.62370879  0.32721013  1  1.668209  0  1.011378  1.316433  0  1.596158  0
Sr  Sr14  1  0.03805462  0.58972604  0.17277261  1  1.662829  0  0.981407  1.287415  0  1.624108  0
Sr  Sr15  1  0.03450522  0.08299983  0.17073560  1  1.670955  0  0.991949  1.381686  0  1.56705  0
H  H16  1  0.94189738  0.93672722  0.67543261  1  0.634599  0  0.32626  0.406896  0  0.895518  0
H  H17  1  0.03516778  0.86478987  0.62175205  1  0.651032  0  0.295292  0.347464  0  1.013005  0
H  H18  1  0.26743305  0.94684600  0.87207559  1  0.632506  0  0.30251  0.389668  0  0.942735  0
H  H19  1  0.28272651  0.85584047  0.84349085  1  0.620206  0  0.294223  0.340492  0  1.029211  0
H  H20  1  0.47019471  0.66575444  0.85950597  1  0.631057  0  0.294149  0.326444  0  1.050793  0
H  H21  1  0.47287813  0.56986094  0.83875374  1  0.613287  0  0.340035  0.41822  0  0.860157  0
H  H22  1  0.36677272  0.07026041  0.51199286  1  0.642877  0  0.295464  0.383933  0  0.952762  0
H  H23  1  0.45763424  0.15333323  0.52363506  1  0.635071  0  0.292052  0.340515  0  1.025503  0
H  H24  1  0.75169605  0.56827103  0.62293911  1  0.642958  0  0.305655  0.398734  0  0.931831  0
H  H25  1  0.81752387  0.65258641  0.66624782  1  0.607803  0  0.335747  0.40747  0  0.875886  0
H  H26  1  0.44188589  0.06327866  0.82456776  1  0.634508  0  0.326266  0.406917  0  0.895523  0
H  H27  1  0.53516513  0.13521261  0.87824724  1  0.651031  0  0.295298  0.347497  0  1.012951  0
H  H28  1  0.76743452  0.05315036  0.62792432  1  0.632425  0  0.302429  0.389541  0  0.9429  0
H  H29  1  0.78272569  0.14415764  0.65650622  1  0.620401  0  0.294229  0.340459  0  1.029245  0
H  H30  1  0.97019562  0.33424480  0.64049259  1  0.631044  0  0.29413  0.326397  0  1.05087  0
H  H31  1  0.97287673  0.43013766  0.66124299  1  0.613286  0  0.340052  0.418244  0  0.860137  0
H  H32  1  0.86677714  0.92974127  0.98800467  1  0.642978  0  0.295461  0.383945  0  0.952751  0
H  H33  1  0.95763453  0.84666785  0.97636676  1  0.635045  0  0.292054  0.340564  0  1.025426  0
H  H34  1  0.25169886  0.43172780  0.87706479  1  0.642824  0  0.305612  0.398677  0  0.931911  0
H  H35  1  0.31752573  0.34741231  0.83375110  1  0.607786  0  0.335752  0.407434  0  0.87588  0
H  H36  1  0.05811974  0.06327519  0.32457029  1  0.634443  0  0.326254  0.406902  0  0.895671  0
H  H37  1  0.96484827  0.13521131  0.37824885  1  0.651187  0  0.295209  0.347334  0  1.013145  0
H  H38  1  0.73257122  0.05315453  0.12792126  1  0.632374  0  0.302458  0.389598  0  0.942835  0
H  H39  1  0.71727775  0.14416004  0.15650489  1  0.620407  0  0.294229  0.340457  0  1.029255  0
H  H40  1  0.52979884  0.33424552  0.14049350  1  0.631065  0  0.294134  0.326405  0  1.050864  0
H  H41  1  0.52712292  0.43013841  0.16124556  1  0.613289  0  0.340062  0.418248  0  0.860125  0
H  H42  1  0.63320905  0.92973292  0.48800479  1  0.643141  0  0.295496  0.384064  0  0.952578  0
H  H43  1  0.54235074  0.84665823  0.47635820  1  0.63525  0  0.292008  0.340504  0  1.025519  0
H  H44  1  0.24829322  0.43172240  0.37706520  1  0.642873  0  0.305708  0.398711  0  0.931841  0
H  H45  1  0.18246433  0.34740931  0.33374882  1  0.607715  0  0.335775  0.407469  0  0.875825  0
H  H46  1  0.55811945  0.93672479  0.17542381  1  0.634361  0  0.326247  0.406859  0  0.895647  0
H  H47  1  0.46484449  0.86478554  0.12175173  1  0.651195  0  0.295241  0.347352  0  1.013117  0
H  H48  1  0.23257510  0.94684668  0.37208098  1  0.63269  0  0.30244  0.389584  0  0.942848  0
H  H49  1  0.21728072  0.85584114  0.34349458  1  0.620454  0  0.294212  0.340461  0  1.029235  0
H  H50  1  0.02979793  0.66575515  0.35950577  1  0.631057  0  0.294134  0.326412  0  1.050867  0
H  H51  1  0.02712540  0.56986284  0.33875220  1  0.613323  0  0.340047  0.418276  0  0.860088  0
H  H52  1  0.13320891  0.07025623  0.01199080  1  0.643042  0  0.295476  0.383905  0  0.95278  0
H  H53  1  0.04236330  0.15333516  0.02363630  1  0.635251  0  0.292034  0.340488  0  1.025542  0
H  H54  1  0.74829683  0.56827457  0.12293534  1  0.642876  0  0.305671  0.398681  0  0.93187  0
H  H55  1  0.68246890  0.65258949  0.16625164  1  0.60775  0  0.335728  0.407374  0  0.875924  0
C  C56  1  0.63465434  0.85565693  0.75424380  1  0.943471  0  0.215542  0.117986  0  4.061949  0
C  C57  1  0.64953095  0.93183333  0.73349436  1  1.632824  0  0.248899  0.58696  0  4.219415  0
C  C58  1  0.13293673  0.64637596  0.75477314  1  0.940327  0  0.217437  0.118697  0  4.085787  0
C  C59  1  0.14684195  0.56597551  0.76686780  1  1.630653  0  0.248513  0.588199  0  4.220897  0
C  C60  1  0.56953565  0.64439411  0.51094885  1  0.928558  0  0.213803  0.122871  0  4.086777  0
C  C61  1  0.63321908  0.56222950  0.49297568  1  1.644014  0  0.23589  0.572659  0  4.258381  0
C  C62  1  0.18154803  0.86065774  0.48828714  1  0.948319  0  0.213828  0.127092  0  4.013848  0
C  C63  1  0.25158455  0.94238394  0.51541894  1  1.636595  0  0.239992  0.577103  0  4.222963  0
C  C64  1  0.13464579  0.14434547  0.74575385  1  0.943499  0  0.215654  0.118135  0  4.061794  0
C  C65  1  0.14952472  0.06816783  0.76650130  1  1.632859  0  0.248915  0.586924  0  4.219425  0
C  C66  1  0.63293345  0.35362470  0.74522845  1  0.940496  0  0.217446  0.118746  0  4.085596  0
C  C67  1  0.64683634  0.43402571  0.73313174  1  1.63099  0  0.248381  0.58798  0  4.221088  0
C  C68  1  0.06953341  0.35560238  0.98905325  1  0.928363  0  0.213774  0.122876  0  4.086868  0
C  C69  1  0.13321817  0.43776640  0.00703006  1  1.644091  0  0.235774  0.572362  0  4.258452  0
C  C70  1  0.68154917  0.13934164  0.01171126  1  0.948337  0  0.213792  0.127106  0  4.01371  0
C  C71  1  0.75158648  0.05761539  0.98457846  1  1.636398  0  0.240003  0.577129  0  4.223098  0
C  C72  1  0.36535206  0.14434659  0.24575277  1  0.943863  0  0.215619  0.118004  0  4.06192  0
C  C73  1  0.35049046  0.06816960  0.26650316  1  1.632466  0  0.248913  0.586945  0  4.219282  0
C  C74  1  0.86706004  0.35362158  0.24522510  1  0.940421  0  0.217364  0.118591  0  4.085518  0
C  C75  1  0.85316339  0.43402135  0.23312528  1  1.630453  0  0.24864  0.588367  0  4.220813  0
C  C76  1  0.43046754  0.35559808  0.48905347  1  0.928582  0  0.213818  0.122952  0  4.086937  0
C  C77  1  0.36679376  0.43776268  0.50702552  1  1.644146  0  0.235746  0.572311  0  4.258606  0
C  C78  1  0.81844980  0.13933925  0.51171427  1  0.948129  0  0.213778  0.127075  0  4.013765  0
C  C79  1  0.74840900  0.05761478  0.48457797  1  1.636581  0  0.23997  0.576971  0  4.223277  0
C  C80  1  0.86536062  0.85565626  0.25424278  1  0.943918  0  0.215649  0.117951  0  4.061702  0
C  C81  1  0.85047526  0.93183633  0.23349821  1  1.632547  0  0.248976  0.587279  0  4.218611  0
C  C82  1  0.36706117  0.64637900  0.25478089  1  0.940328  0  0.217414  0.11867  0  4.085787  0
C  C83  1  0.35315078  0.56597793  0.26687316  1  1.630923  0  0.248532  0.588305  0  4.22104  0
C  C84  1  0.93046978  0.64440183  0.01094960  1  0.928643  0  0.213724  0.122941  0  4.086699  0
C  C85  1  0.86678931  0.56223549  0.99297879  1  1.644428  0  0.235756  0.572256  0  4.258589  0
C  C86  1  0.31844652  0.86065770  0.98828692  1  0.948136  0  0.213816  0.127108  0  4.01389  0
C  C87  1  0.24839957  0.94238266  0.01541385  1  1.637086  0  0.239925  0.577095  0  4.222996  0
N  N88  1  0.52254357  0.80552230  0.73364740  1  -0.688914  0  -0.255133  -0.265209  0  3.407217  0
N  N89  1  0.55509285  0.74218309  0.75720475  1  -0.188376  0  -0.128258  -0.108087  0  3.377428  0
N  N90  1  0.68246707  0.75411129  0.79241771  1  -0.205946  0  -0.127439  -0.113711  0  3.347798  0
N  N91  1  0.73441438  0.82515541  0.79116800  1  -0.699989  0  -0.259983  -0.276054  0  3.374378  0
N  N92  1  0.22529366  0.67594917  0.71319049  1  -0.711793  0  -0.259579  -0.271057  0  3.349737  0
N  N93  1  0.17363220  0.74820799  0.71600001  1  -0.175592  0  -0.121505  -0.078585  0  3.32689  0
N  N94  1  0.05403914  0.76189165  0.75797099  1  -0.17847  0  -0.127456  -0.109057  0  3.346916  0
N  N95  1  0.02568052  0.69839024  0.78268169  1  -0.713375  0  -0.255527  -0.283931  0  3.368845  0
N  N96  1  0.48843582  0.67877286  0.57337843  1  -0.71132  0  -0.256692  -0.285082  0  3.350823  0
N  N97  1  0.45139504  0.75071827  0.56624340  1  -0.182427  0  -0.117454  -0.104878  0  3.340947  0
N  N98  1  0.50925106  0.75934475  0.50230130  1  -0.157471  0  -0.063905  -0.028313  0  3.325654  0
N  N99  1  0.58393237  0.69324273  0.46607285  1  -0.724148  0  -0.272398  -0.30391  0  3.334424  0
N  N100  1  0.13028628  0.82253821  0.53809967  1  -0.748196  0  -0.241101  -0.295767  0  3.431557  0
N  N101  1  0.07963186  0.75138565  0.49425900  1  -0.098153  0  -0.102376  -0.093575  0  3.205675  0
N  N102  1  0.10144340  0.74642193  0.42091068  1  -0.19661  0  -0.079536  -0.059537  0  3.38035  0
N  N103  1  0.16451182  0.81393331  0.41498777  1  -0.697308  0  -0.196234  -0.218456  0  3.273849  0
N  N104  1  0.02253602  0.19448196  0.76635072  1  -0.688872  0  -0.255101  -0.265179  0  3.407343  0
N  N105  1  0.05509263  0.25782119  0.74279560  1  -0.188594  0  -0.128254  -0.108056  0  3.377772  0
N  N106  1  0.18247004  0.24589234  0.70758361  1  -0.206027  0  -0.127524  -0.113849  0  3.348087  0
N  N107  1  0.23441000  0.17484578  0.70883267  1  -0.699836  0  -0.259991  -0.276036  0  3.374471  0
N  N108  1  0.72529478  0.32405447  0.78681362  1  -0.711874  0  -0.259653  -0.271154  0  3.349495  0
N  N109  1  0.67363240  0.25179509  0.78400503  1  -0.175605  0  -0.121481  -0.078505  0  3.326907  0
N  N110  1  0.55403931  0.23811028  0.74203259  1  -0.178361  0  -0.127432  -0.1091  0  3.347149  0
N  N111  1  0.52568267  0.30161048  0.71732044  1  -0.713451  0  -0.255535  -0.283884  0  3.368999  0
N  N112  1  0.98843499  0.32122463  0.92662463  1  -0.711024  0  -0.256659  -0.284975  0  3.350949  0
N  N113  1  0.95140508  0.24927739  0.93375638  1  -0.183105  0  -0.117544  -0.104994  0  3.34095  0
N  N114  1  0.00926514  0.24064752  0.99769685  1  -0.156267  0  -0.06379  -0.028164  0  3.325526  0
N  N115  1  0.08393820  0.30674950  0.03392578  1  -0.724827  0  -0.272329  -0.303929  0  3.334365  0
N  N116  1  0.63028579  0.17746362  0.96190004  1  -0.748219  0  -0.241053  -0.295696  0  3.431524  0
N  N117  1  0.57963170  0.24861438  0.00573955  1  -0.098207  0  -0.102412  -0.093675  0  3.205642  0
N  N118  1  0.60144118  0.25357630  0.07908905  1  -0.19658  0  -0.079507  -0.059408  0  3.380281  0
N  N119  1  0.66450653  0.18606489  0.08501197  1  -0.697239  0  -0.19623  -0.218539  0  3.273838  0
N  N120  1  0.47746176  0.19448119  0.26634750  1  -0.688754  0  -0.255082  -0.265087  0  3.407498  0
N  N121  1  0.44491034  0.25782041  0.24279070  1  -0.188567  0  -0.12835  -0.10819  0  3.377678  0
N  N122  1  0.31752863  0.24588920  0.20757636  1  -0.206165  0  -0.12738  -0.113728  0  3.347638  0
N  N123  1  0.26559203  0.17484450  0.20882758  1  -0.700096  0  -0.260044  -0.276009  0  3.374421  0
N  N124  1  0.77470204  0.32405323  0.28681186  1  -0.711933  0  -0.259616  -0.271089  0  3.349736  0
N  N125  1  0.82636778  0.25179810  0.28400833  1  -0.175631  0  -0.121494  -0.078521  0  3.326988  0
N  N126  1  0.94596405  0.23811202  0.24203613  1  -0.178356  0  -0.127413  -0.109148  0  3.347318  0
N  N127  1  0.97432053  0.30160673  0.21731862  1  -0.713304  0  -0.255469  -0.283778  0  3.368912  0
N  N128  1  0.51156095  0.32121995  0.42662461  1  -0.710842  0  -0.256719  -0.285115  0  3.351141  0
N  N129  1  0.54859530  0.24927025  0.43375348  1  -0.183298  0  -0.117419  -0.104795  0  3.341107  0
N  N130  1  0.49074356  0.24064376  0.49769503  1  -0.15648  0  -0.063971  -0.028416  0  3.325559  0
N  N131  1  0.41607511  0.30674883  0.53392653  1  -0.724977  0  -0.272315  -0.303857  0  3.334223  0
N  N132  1  0.86971799  0.17746059  0.46190280  1  -0.748276  0  -0.241067  -0.295749  0  3.431596  0
N  N133  1  0.92036812  0.24861192  0.50574147  1  -0.098008  0  -0.102318  -0.093472  0  3.20562  0
N  N134  1  0.89855336  0.25357624  0.57908996  1  -0.19604  0  -0.079594  -0.059627  0  3.380165  0
N  N135  1  0.83548495  0.18606428  0.58501381  1  -0.697881  0  -0.19623  -0.218446  0  3.273677  0
N  N136  1  0.97746932  0.80552103  0.23365068  1  -0.688818  0  -0.255138  -0.265217  0  3.407416  0
N  N137  1  0.94490628  0.74218305  0.25720891  1  -0.188561  0  -0.128256  -0.108025  0  3.377777  0
N  N138  1  0.81752780  0.75411546  0.29241856  1  -0.205836  0  -0.1274  -0.113721  0  3.348039  0
N  N139  1  0.76558784  0.82515957  0.29116606  1  -0.700464  0  -0.260114  -0.27613  0  3.374361  0
N  N140  1  0.27470092  0.67594857  0.21319167  1  -0.711778  0  -0.259665  -0.271206  0  3.349786  0
N  N141  1  0.32636651  0.74820365  0.21599355  1  -0.175607  0  -0.121496  -0.078515  0  3.326821  0
N  N142  1  0.44596496  0.76188906  0.25796560  1  -0.178391  0  -0.127379  -0.109028  0  3.34704  0
N  N143  1  0.47431731  0.69839254  0.28268318  1  -0.713471  0  -0.255526  -0.283924  0  3.369106  0
N  N144  1  0.01156606  0.67877900  0.07337971  1  -0.711117  0  -0.256604  -0.284994  0  3.350887  0
N  N145  1  0.04859812  0.75072747  0.06624996  1  -0.182781  0  -0.117461  -0.104801  0  3.340867  0
N  N146  1  0.99074020  0.75935613  0.00230861  1  -0.15693  0  -0.063932  -0.028422  0  3.325553  0
N  N147  1  0.91606821  0.69325474  0.96607928  1  -0.724809  0  -0.272336  -0.30391  0  3.334341  0
N  N148  1  0.36971526  0.82253933  0.03809859  1  -0.748187  0  -0.241132  -0.295882  0  3.431673  0
N  N149  1  0.42037150  0.75138736  0.99425874  1  -0.098121  0  -0.102323  -0.093436  0  3.205713  0
N  N150  1  0.39855344  0.74642306  0.92091080  1  -0.196586  0  -0.079597  -0.059651  0  3.380301  0
N  N151  1  0.33547953  0.81393266  0.91498739  1  -0.697392  0  -0.196184  -0.218415  0  3.273755  0
O  O152  1  0.54654557  0.95007139  0.69568501  1  -1.229888  0  -0.383766  -0.608056  0  2.238505  0
O  O153  1  0.76406155  0.97190437  0.75391108  1  -1.215601  0  -0.363724  -0.609687  0  2.297739  0
O  O154  1  0.25954622  0.52623326  0.74071649  1  -1.220385  0  -0.382258  -0.60916  0  2.28375  0
O  O155  1  0.04453151  0.54276674  0.80140891  1  -1.217091  0  -0.377192  -0.602117  0  2.253518  0
O  O156  1  0.63798594  0.53009010  0.54766320  1  -1.210006  0  -0.333789  -0.589112  0  2.200542  0
O  O157  1  0.67631413  0.53060246  0.42377056  1  -1.221122  0  -0.372825  -0.611251  0  2.207598  0
O  O158  1  0.30615210  0.96026989  0.58308210  1  -1.219867  0  -0.379158  -0.622898  0  2.246236  0
O  O159  1  0.25141201  0.98755787  0.47174745  1  -1.18564  0  -0.29459  -0.542709  0  2.166295  0
O  O160  1  0.01148483  0.89533520  0.67693412  1  -1.321958  0  -0.617093  -0.819837  0  2.093931  0
O  O161  1  0.25102135  0.90167214  0.82373197  1  -1.299948  0  -0.652274  -0.854448  0  2.180435  0
O  O162  1  0.52215713  0.61442176  0.82735097  1  -1.277746  0  -0.619223  -0.822699  0  2.128544  0
O  O163  1  0.43775407  0.10770222  0.54495216  1  -1.319719  0  -0.662338  -0.839151  0  2.069249  0
O  O164  1  0.78376214  0.60293621  0.67487435  1  -1.263607  0  -0.597975  -0.810662  0  2.005827  0
O  O165  1  0.04653836  0.04992928  0.80431435  1  -1.229778  0  -0.38377  -0.60806  0  2.23831  0
O  O166  1  0.26405323  0.02809857  0.74608676  1  -1.215641  0  -0.363771  -0.609699  0  2.297867  0
O  O167  1  0.75954807  0.47376975  0.75928690  1  -1.220417  0  -0.382128  -0.609059  0  2.283671  0
O  O168  1  0.54453438  0.45723334  0.69859083  1  -1.21752  0  -0.377166  -0.602008  0  2.253789  0
O  O169  1  0.13798449  0.46990695  0.95233852  1  -1.209841  0  -0.333789  -0.589039  0  2.200152  0
O  O170  1  0.17631326  0.46939395  0.07623035  1  -1.221218  0  -0.372781  -0.611101  0  2.207825  0
O  O171  1  0.80616041  0.03973187  0.91691875  1  -1.219808  0  -0.379105  -0.622842  0  2.246412  0
O  O172  1  0.75141022  0.01244086  0.02825080  1  -1.185594  0  -0.294677  -0.542802  0  2.166206  0
O  O173  1  0.51148217  0.10466730  0.82306572  1  -1.321862  0  -0.617101  -0.819887  0  2.093929  0
O  O174  1  0.75101529  0.09832478  0.67626477  1  -1.300076  0  -0.652224  -0.854272  0  2.180504  0
O  O175  1  0.02215656  0.38557770  0.67264639  1  -1.277738  0  -0.619217  -0.822682  0  2.128583  0
O  O176  1  0.93776067  0.89229886  0.95504799  1  -1.319743  0  -0.662343  -0.839274  0  2.069236  0
O  O177  1  0.28376603  0.39706496  0.82512689  1  -1.263509  0  -0.597949  -0.810554  0  2.005843  0
O  O178  1  0.45345656  0.04993643  0.30431882  1  -1.229871  0  -0.383692  -0.607983  0  2.238776  0
O  O179  1  0.23595343  0.02809187  0.24607962  1  -1.215267  0  -0.36386  -0.609806  0  2.297407  0
O  O180  1  0.74045055  0.47376482  0.25927748  1  -1.220264  0  -0.382294  -0.609249  0  2.283503  0
O  O181  1  0.95546526  0.45722834  0.19858479  1  -1.217107  0  -0.377231  -0.602182  0  2.25369  0
O  O182  1  0.36202475  0.46989972  0.45234068  1  -1.209811  0  -0.333744  -0.588975  0  2.200528  0
O  O183  1  0.32369120  0.46938792  0.57623126  1  -1.22114  0  -0.372804  -0.611124  0  2.20756  0
O  O184  1  0.69383931  0.03973314  0.41692208  1  -1.219906  0  -0.379136  -0.622809  0  2.246767  0
O  O185  1  0.74858368  0.01243850  0.52825324  1  -1.185556  0  -0.294585  -0.542665  0  2.165978  0
O  O186  1  0.98853443  0.10466599  0.32306734  1  -1.322001  0  -0.617014  -0.819727  0  2.094103  0
O  O187  1  0.74898934  0.09832835  0.17626210  1  -1.300076  0  -0.652219  -0.854286  0  2.180347  0
O  O188  1  0.47784178  0.38557880  0.17264810  1  -1.277765  0  -0.619246  -0.822713  0  2.128589  0
O  O189  1  0.56222341  0.89229471  0.45504481  1  -1.320028  0  -0.662296  -0.839286  0  2.069246  0
O  O190  1  0.21623034  0.39706138  0.32512779  1  -1.263469  0  -0.59802  -0.810569  0  2.005819  0
O  O191  1  0.95347983  0.95006939  0.19567868  1  -1.229652  0  -0.383758  -0.608281  0  2.237471  0
O  O192  1  0.73596710  0.97190620  0.25391291  1  -1.215534  0  -0.363805  -0.609773  0  2.298213  0
O  O193  1  0.24045299  0.52623939  0.24072559  1  -1.220671  0  -0.382216  -0.609142  0  2.284102  0
O  O194  1  0.45546774  0.54276913  0.30141651  1  -1.217049  0  -0.377175  -0.602181  0  2.253194  0
O  O195  1  0.86201977  0.53009717  0.04765822  1  -1.210305  0  -0.333662  -0.588852  0  2.200709  0
O  O196  1  0.82369529  0.53060958  0.92376677  1  -1.220973  0  -0.372891  -0.611228  0  2.20748  0
O  O197  1  0.19383850  0.96026932  0.08308271  1  -1.219886  0  -0.379049  -0.622834  0  2.246153  0
O  O198  1  0.24856084  0.98755243  0.97174407  1  -1.186099  0  -0.294654  -0.542735  0  2.166358  0
O  O199  1  0.48853281  0.89533264  0.17693207  1  -1.321886  0  -0.617005  -0.819627  0  2.094082  0
O  O200  1  0.24899004  0.90167401  0.32373714  1  -1.300434  0  -0.652205  -0.854285  0  2.180356  0
O  O201  1  0.97784128  0.61442285  0.32735213  1  -1.277775  0  -0.619222  -0.822715  0  2.128527  0
O  O202  1  0.06223288  0.10770290  0.04495141  1  -1.31998  0  -0.662317  -0.839134  0  2.069398  0
O  O203  1  0.71623288  0.60293742  0.17487380  1  -1.263491  0  -0.597946  -0.810457  0  2.005895  0
