# generated using pymatgen
data_FeH24C27S2(N3O2)2
_symmetry_space_group_name_H-M   'P 1'
_cell_length_a   10.08752700
_cell_length_b   10.06560496
_cell_length_c   17.16823774
_cell_angle_alpha   78.52223259
_cell_angle_beta   78.59363270
_cell_angle_gamma   71.18585113
_symmetry_Int_Tables_number   1
_chemical_formula_structural   FeH24C27S2(N3O2)2
_chemical_formula_sum   'Fe2 H48 C54 S4 N12 O8'
_cell_volume   1600.21694900
_cell_formula_units_Z   2
loop_
 _symmetry_equiv_pos_site_id
 _symmetry_equiv_pos_as_xyz
  1  'x, y, z'
loop_
 _atom_site_type_symbol
 _atom_site_label
 _atom_site_symmetry_multiplicity
 _atom_site_fract_x
 _atom_site_fract_y
 _atom_site_fract_z
 _atom_site_occupancy
 _atom_site_pbe_bader_charge
 _atom_site_pbe_bader_spin_density
 _atom_site_pbe_cm5_charge
 _atom_site_pbe_ddec_charge
 _atom_site_pbe_ddec_spin_density
 _atom_site_pbe_ddec_sum_bond_order
 _atom_site_pbe_magmom
Fe  Fe0  1  0.00231901  0.99363678  0.50792140  1  1.174294  0  0.713478  0.436562  0  3.542367  0
Fe  Fe1  1  0.98228648  0.00269008  0.00222576  1  1.172906  0  0.726066  0.444472  0  3.563951  0
H  H2  1  0.68591613  0.51378029  0.21201934  1  0.084657  0  0.108321  0.079972  0  0.988533  0
H  H3  1  0.48810358  0.31418163  0.28477372  1  0.083067  0  0.107559  0.079329  0  0.988921  0
H  H4  1  0.31582439  0.48837795  0.78574939  1  0.085636  0  0.107593  0.079731  0  0.989082  0
H  H5  1  0.51380724  0.68614269  0.71330948  1  0.08542  0  0.108065  0.079969  0  0.989167  0
H  H6  1  0.59984188  0.63992462  0.28095699  1  0.074443  0  0.104127  0.080376  0  0.99276  0
H  H7  1  0.36426816  0.39882184  0.21445038  1  0.059718  0  0.104122  0.081611  0  0.991164  0
H  H8  1  0.39969501  0.36219241  0.71662695  1  0.078614  0  0.10421  0.08135  0  0.991157  0
H  H9  1  0.64202881  0.59883294  0.78091991  1  0.060856  0  0.103699  0.080266  0  0.99443  0
H  H10  1  0.73424788  0.21176356  0.43451983  1  0.126684  0  0.123437  0.110218  0  1.015885  0
H  H11  1  0.79416733  0.26418787  0.06631383  1  0.133438  0  0.126354  0.115124  0  1.021736  0
H  H12  1  0.26573915  0.79465677  0.56803786  1  0.131094  0  0.125851  0.114722  0  1.021263  0
H  H13  1  0.21166561  0.73229754  0.93304521  1  0.132994  0  0.122012  0.106595  0  1.015725  0
H  H14  1  0.99458508  0.71058272  0.22695435  1  0.11847  0  0.105063  0.121933  0  1.027438  0
H  H15  1  0.29659790  0.00619092  0.26989974  1  0.117434  0  0.102053  0.118953  0  1.034953  0
H  H16  1  0.00724542  0.29155860  0.76997551  1  0.125525  0  0.103914  0.121051  0  1.031863  0
H  H17  1  0.71582271  0.99095845  0.72958359  1  0.117943  0  0.106525  0.124184  0  1.024023  0
H  H18  1  0.18412600  0.74643458  0.42344015  1  0.116885  0  0.12128  0.106123  0  1.025056  0
H  H19  1  0.23818121  0.81781167  0.07902301  1  0.097538  0  0.121256  0.105802  0  1.033697  0
H  H20  1  0.81673418  0.24261702  0.57743772  1  0.139883  0  0.122104  0.107561  0  1.034066  0
H  H21  1  0.74152751  0.18555025  0.92630476  1  0.088205  0  0.122521  0.107415  0  1.028027  0
H  H22  1  0.86076959  0.54333405  0.26406397  1  0.107157  0  0.103495  0.11176  0  1.041808  0
H  H23  1  0.45912141  0.13831703  0.23239082  1  0.100909  0  0.102636  0.111609  0  1.047597  0
H  H24  1  0.13914153  0.45818613  0.73303437  1  0.105916  0  0.102451  0.111259  0  1.046518  0
H  H25  1  0.54638249  0.86011983  0.76741911  1  0.096617  0  0.104166  0.112076  0  1.040914  0
H  H26  1  0.14865325  0.22136175  0.40839712  1  0.087398  0  0.119261  0.101785  0  1.000154  0
H  H27  1  0.77879040  0.85060706  0.08742002  1  0.135052  0  0.122037  0.106972  0  1.004321  0
H  H28  1  0.84993236  0.78698383  0.59279921  1  0.135693  0  0.121668  0.106212  0  1.008824  0
H  H29  1  0.21529567  0.14981985  0.90618528  1  0.113886  0  0.118188  0.101547  0  1.002127  0
H  H30  1  0.36703995  0.49434997  0.37307230  1  0.081104  0  0.111657  0.093303  0  0.955573  0
H  H31  1  0.50407670  0.63474381  0.12290148  1  0.057117  0  0.111427  0.092841  0  0.955006  0
H  H32  1  0.63440205  0.50313767  0.62361305  1  0.074238  0  0.111495  0.092757  0  0.95496  0
H  H33  1  0.49597783  0.36642362  0.87415648  1  0.054933  0  0.111215  0.09156  0  0.957267  0
H  H34  1  0.35760724  0.67657152  0.33761837  1  0.078895  0  0.106611  0.076296  0  1.034155  0
H  H35  1  0.32291056  0.64278361  0.15912233  1  0.082598  0  0.106409  0.075356  0  1.039093  0
H  H36  1  0.64305067  0.32141362  0.66015351  1  0.091355  0  0.106805  0.076127  0  1.037317  0
H  H37  1  0.67771034  0.35706894  0.83852886  1  0.107738  0  0.10737  0.077022  0  1.032249  0
H  H38  1  0.09979284  0.44151455  0.30568303  1  0.127032  0  0.102465  0.107622  0  1.056601  0
H  H39  1  0.55971786  0.90020670  0.18822060  1  0.116034  0  0.102953  0.10782  0  1.053059  0
H  H40  1  0.90015495  0.56342182  0.69086487  1  0.116756  0  0.103434  0.108344  0  1.049374  0
H  H41  1  0.44037983  0.10035869  0.80743850  1  0.109581  0  0.102085  0.107045  0  1.054989  0
H  H42  1  0.78174566  0.01061444  0.39408370  1  0.086367  0  0.115256  0.087026  0  1.027061  0
H  H43  1  0.98193284  0.22217807  0.11165028  1  0.100826  0  0.114634  0.08533  0  1.029192  0
H  H44  1  0.21956455  0.98070331  0.60939213  1  0.111395  0  0.116316  0.08677  0  1.037232  0
H  H45  1  0.01140314  0.78282389  0.89966877  1  0.111423  0  0.116847  0.088866  0  1.036489  0
H  H46  1  0.77961719  0.90759195  0.27340638  1  0.103738  0  0.101091  0.111113  0  1.025056  0
H  H47  1  0.09782171  0.22332283  0.22713368  1  0.109276  0  0.09945  0.109514  0  1.031483  0
H  H48  1  0.22286710  0.09295083  0.72494450  1  0.103087  0  0.100475  0.111396  0  1.027728  0
H  H49  1  0.91181344  0.77708386  0.77930362  1  0.100601  0  0.100815  0.112105  0  1.024798  0
C  C50  1  0.46166247  0.53913101  0.24803482  1  0.051693  0  -0.019482  0.048444  0  3.819099  0
C  C51  1  0.54039860  0.46060843  0.74892964  1  0.046791  0  -0.019918  0.049304  0  3.815616  0
C  C52  1  0.60572037  0.53696791  0.26518334  1  0.392075  0  -0.061626  -0.027193  0  3.837371  0
C  C53  1  0.46612315  0.39380495  0.23109556  1  0.388566  0  -0.060507  -0.026554  0  3.834515  0
C  C54  1  0.39517838  0.46485118  0.73225851  1  0.381505  0  -0.061252  -0.029145  0  3.833999  0
C  C55  1  0.53854574  0.60495245  0.76604396  1  0.406217  0  -0.05996  -0.027617  0  3.837184  0
C  C56  1  0.77801129  0.38510367  0.34696835  1  0.451557  0  0.089086  0.22105  0  4.07054  0
C  C57  1  0.61971239  0.21995648  0.15094639  1  0.508209  0  0.086914  0.222703  0  4.081945  0
C  C58  1  0.22118515  0.61938412  0.65218942  1  0.491325  0  0.087777  0.223063  0  4.078619  0
C  C59  1  0.38642754  0.77696274  0.84794047  1  0.477027  0  0.088729  0.22034  0  4.070395  0
C  C60  1  0.81377003  0.26391880  0.40431166  1  0.53665  0  0.03921  -0.040457  0  3.927396  0
C  C61  1  0.74207425  0.18415008  0.09496405  1  0.466485  0  0.033057  -0.052558  0  3.889692  0
C  C62  1  0.18515313  0.74369526  0.59721935  1  0.500948  0  0.033184  -0.052649  0  3.892722  0
C  C63  1  0.26296627  0.81289063  0.90341275  1  0.516429  0  0.039686  -0.037699  0  3.928689  0
C  C64  1  0.98821204  0.75924116  0.27956382  1  -0.031483  0  -0.082243  -0.148703  0  3.940845  0
C  C65  1  0.24277955  0.01326218  0.21922649  1  -0.056222  0  -0.081884  -0.147341  0  3.936284  0
C  C66  1  0.01324363  0.23950567  0.71879387  1  0.023366  0  -0.084778  -0.151698  0  3.941973  0
C  C67  1  0.76230262  0.98599312  0.78274729  1  0.033791  0  -0.085933  -0.155997  0  3.946769  0
C  C68  1  0.09725255  0.77735177  0.38856018  1  0.522128  0  0.029136  -0.056758  0  3.932513  0
C  C69  1  0.21176349  0.90460760  0.11356354  1  0.525293  0  0.027095  -0.057785  0  3.934179  0
C  C70  1  0.90343043  0.21309771  0.61216163  1  0.455824  0  0.02377  -0.065083  0  3.905645  0
C  C71  1  0.77569301  0.09790742  0.89185735  1  0.518102  0  0.023737  -0.065423  0  3.90743  0
C  C72  1  0.88174719  0.45079791  0.31006017  1  0.0083  0  -0.091271  -0.179775  0  3.981897  0
C  C73  1  0.55206207  0.11735797  0.18689664  1  -0.08676  0  -0.096735  -0.188802  0  3.990356  0
C  C74  1  0.11812598  0.55256982  0.68828112  1  -0.090285  0  -0.095814  -0.186452  0  3.988529  0
C  C75  1  0.45202610  0.88126339  0.81196871  1  -0.013415  0  -0.092399  -0.179642  0  3.980509  0
C  C76  1  0.10253399  0.71187856  0.32317217  1  0.452238  0  0.087202  0.214987  0  4.070182  0
C  C77  1  0.28485040  0.89897171  0.17572047  1  0.514241  0  0.087572  0.214666  0  4.065197  0
C  C78  1  0.89913519  0.28360678  0.67513747  1  0.401237  0  0.086031  0.21588  0  4.072171  0
C  C79  1  0.71299550  0.10097125  0.82592826  1  0.426061  0  0.086509  0.215823  0  4.080294  0
C  C80  1  0.04465795  0.27176893  0.38982332  1  0.472827  0  0.033592  0.045658  0  3.946396  0
C  C81  1  0.73086682  0.95416940  0.10672822  1  0.353892  0  0.026294  0.033194  0  3.913816  0
C  C82  1  0.95405233  0.73675825  0.61085902  1  0.390701  0  0.026154  0.034416  0  3.912825  0
C  C83  1  0.26775895  0.04516526  0.88858654  1  0.445766  0  0.033534  0.043942  0  3.946029  0
C  C84  1  0.31456016  0.94678369  0.43018665  1  0.512899  0  0.126137  0.231338  0  4.351701  0
C  C85  1  0.05001381  0.68387679  0.07146265  1  0.496403  0  0.125061  0.228048  0  4.354838  0
C  C86  1  0.68362810  0.05223750  0.57367121  1  0.500123  0  0.126305  0.228379  0  4.354106  0
C  C87  1  0.94391928  0.31663304  0.92826025  1  0.517006  0  0.125096  0.228763  0  4.353989  0
C  C88  1  0.35020913  0.57920996  0.32137436  1  0.396771  0  -0.059064  -0.030747  0  3.823519  0
C  C89  1  0.42007064  0.65097709  0.17485527  1  0.417409  0  -0.058261  -0.026975  0  3.81845  0
C  C90  1  0.65143659  0.41890629  0.67561247  1  0.387319  0  -0.05936  -0.02844  0  3.82123  0
C  C91  1  0.58056198  0.34921852  0.82249138  1  0.390014  0  -0.058886  -0.028464  0  3.822759  0
C  C92  1  0.01642749  0.39282259  0.33300455  1  -0.06318  0  -0.089251  -0.107454  0  4.020938  0
C  C93  1  0.60958969  0.98343394  0.16263153  1  0.06031  0  -0.088912  -0.101703  0  4.026792  0
C  C94  1  0.98357128  0.61291374  0.66525348  1  0.002415  0  -0.089954  -0.102995  0  4.022685  0
C  C95  1  0.39151725  0.01667177  0.83399085  1  -0.049168  0  -0.088459  -0.105415  0  4.014325  0
C  C96  1  0.87241705  0.92755715  0.37155275  1  0.499807  0  0.038444  0.055058  0  3.944788  0
C  C97  1  0.06585447  0.13049240  0.13251063  1  0.460965  0  0.038131  0.056006  0  3.944474  0
C  C98  1  0.12836562  0.06423449  0.63059922  1  0.455225  0  0.034697  0.050928  0  3.922988  0
C  C99  1  0.92880699  0.87299431  0.87639246  1  0.460505  0  0.034528  0.04992  0  3.919074  0
C  C100  1  0.87142576  0.86771500  0.30508372  1  -0.024171  0  -0.085145  -0.096065  0  3.982987  0
C  C101  1  0.13315656  0.13099075  0.19599273  1  -0.026095  0  -0.085354  -0.096142  0  3.983769  0
C  C102  1  0.12980361  0.12988060  0.69443091  1  -0.018554  0  -0.087084  -0.097652  0  3.994019  0
C  C103  1  0.87048040  0.87026528  0.80988761  1  -0.050502  0  -0.085773  -0.095024  0  3.992474  0
S  S104  1  0.47670630  0.91352528  0.38547013  1  0.024863  0  -0.229736  -0.39983  0  2.217947  0
S  S105  1  0.09460196  0.51844520  0.11117095  1  0.041533  0  -0.227154  -0.395674  0  2.2181  0
S  S106  1  0.51826954  0.09091036  0.61261440  1  0.027064  0  -0.228767  -0.395306  0  2.213029  0
S  S107  1  0.91550778  0.48028727  0.88590690  1  0.025128  0  -0.227696  -0.396387  0  2.222229  0
N  N108  1  0.94417875  0.20806843  0.42387387  1  -1.230761  0  -0.289504  -0.143655  0  3.521542  0
N  N109  1  0.79974903  0.05296023  0.07417654  1  -1.177327  0  -0.327418  -0.117158  0  3.652505  0
N  N110  1  0.05332962  0.80478983  0.57821714  1  -1.171872  0  -0.320029  -0.117176  0  3.628782  0
N  N111  1  0.20412127  0.94412139  0.92165052  1  -1.212324  0  -0.288651  -0.149089  0  3.506841  0
N  N112  1  0.19520110  0.97044961  0.46251894  1  -1.327271  0  -0.432838  -0.454054  0  3.563418  0
N  N113  1  0.01873390  0.80571963  0.04261811  1  -1.32767  0  -0.432508  -0.455362  0  3.561133  0
N  N114  1  0.80525135  0.02474883  0.54511534  1  -1.31811  0  -0.433995  -0.455617  0  3.559827  0
N  N115  1  0.96438349  0.19630497  0.95928310  1  -1.32626  0  -0.43158  -0.452914  0  3.55772  0
N  N116  1  0.98460246  0.88459696  0.41112457  1  -1.209821  0  -0.292317  -0.13144  0  3.536584  0
N  N117  1  0.10245248  0.01771202  0.09383762  1  -1.214203  0  -0.294172  -0.133398  0  3.539441  0
N  N118  1  0.01507559  0.10158648  0.59157735  1  -1.171497  0  -0.32057  -0.113844  0  3.623637  0
N  N119  1  0.88505551  0.98681263  0.91568405  1  -1.177633  0  -0.325355  -0.11441  0  3.639165  0
O  O120  1  0.64228867  0.42681395  0.33162266  1  -1.084714  0  -0.176138  -0.191  0  2.561292  0
O  O121  1  0.57807220  0.35638989  0.16580431  1  -1.073852  0  -0.177109  -0.191604  0  2.557654  0
O  O122  1  0.35806779  0.57564146  0.66614163  1  -1.077045  0  -0.178005  -0.191349  0  2.556151  0
O  O123  1  0.43018200  0.64048033  0.83324917  1  -1.081272  0  -0.177806  -0.192158  0  2.563478  0
O  O124  1  0.21380231  0.60201300  0.29855725  1  -1.089106  0  -0.177104  -0.197865  0  2.604127  0
O  O125  1  0.39744737  0.78782368  0.19741948  1  -1.087296  0  -0.17727  -0.198042  0  2.599816  0
O  O126  1  0.78852356  0.39609210  0.69759048  1  -1.089637  0  -0.177016  -0.198172  0  2.596765  0
O  O127  1  0.60374699  0.21209020  0.80024281  1  -1.089926  0  -0.17695  -0.196751  0  2.600242  0
