# generated using pymatgen
data_CdH14C14(NO)4
_symmetry_space_group_name_H-M   'P 1'
_cell_length_a   6.91474337
_cell_length_b   11.20513377
_cell_length_c   11.20517219
_cell_angle_alpha   64.90017652
_cell_angle_beta   72.02149660
_cell_angle_gamma   72.02151304
_symmetry_Int_Tables_number   1
_chemical_formula_structural   CdH14C14(NO)4
_chemical_formula_sum   'Cd2 H28 C28 N8 O8'
_cell_volume   731.72103984
_cell_formula_units_Z   2
loop_
 _symmetry_equiv_pos_site_id
 _symmetry_equiv_pos_as_xyz
  1  'x, y, z'
loop_
 _atom_site_type_symbol
 _atom_site_label
 _atom_site_symmetry_multiplicity
 _atom_site_fract_x
 _atom_site_fract_y
 _atom_site_fract_z
 _atom_site_occupancy
 _atom_site_hle17_bader_spin_density
 _atom_site_hle17_ddec_charge
 _atom_site_hle17_ddec_spin_density
 _atom_site_hle17_ddec_sum_bond_order
 _atom_site_hle17_magmom
 _atom_site_hse06_10hf_bader_spin_density
 _atom_site_hse06_10hf_ddec_charge
 _atom_site_hse06_10hf_ddec_spin_density
 _atom_site_hse06_10hf_ddec_sum_bond_order
 _atom_site_hse06_10hf_magmom
 _atom_site_hse06_bader_spin_density
 _atom_site_hse06_ddec_charge
 _atom_site_hse06_ddec_spin_density
 _atom_site_hse06_ddec_sum_bond_order
 _atom_site_hse06_magmom
 _atom_site_pbe_bader_spin_density
 _atom_site_pbe_cm5_charge
 _atom_site_pbe_ddec_charge
 _atom_site_pbe_ddec_spin_density
 _atom_site_pbe_ddec_sum_bond_order
 _atom_site_pbe_magmom
Cd  Cd0  1  0.41721474  0.99995823  0.00001514  1  0  1.125737  0  1.677353  0  0  0.935706  0  2.122286  0  0  0.999242  0  2.061632  0  0  0.730663  0.890199  0  2.164406  0
Cd  Cd1  1  0.91721504  0.00001364  0.99996025  1  0  1.125812  0  1.677276  0  0  0.935789  0  2.122175  0  0  0.999323  0  2.061524  0  0  0.730714  0.89028  0  2.164295  0
H  H2  1  0.14404545  0.32094753  0.93873301  1  0  0.269225  0  0.91105  0  0  0.251956  0  0.9797  0  0  0.256843  0  0.977516  0  0  0.316998  0.248574  0  0.981372  0
H  H3  1  0.40370395  0.67904457  0.06126904  1  0  0.267574  0  0.91288  0  0  0.25042  0  0.981234  0  0  0.255318  0  0.979078  0  0  0.316362  0.247013  0  0.982703  0
H  H4  1  0.64405006  0.93873206  0.32094851  1  0  0.269116  0  0.911076  0  0  0.251966  0  0.97961  0  0  0.256856  0  0.977422  0  0  0.31698  0.248584  0  0.98128  0
H  H5  1  0.90370304  0.06127095  0.67904494  1  0  0.267617  0  0.912778  0  0  0.250466  0  0.981134  0  0  0.255362  0  0.978978  0  0  0.316371  0.247053  0  0.98261  0
H  H6  1  0.59659558  0.73446365  0.25155676  1  0  0.316039  0  0.961797  0  0  0.29474  0  1.033673  0  0  0.303373  0  1.026339  0  0  0.281272  0.288583  0  1.038857  0
H  H7  1  0.58260788  0.26542170  0.74851890  1  0  0.316146  0  0.960762  0  0  0.293966  0  1.034082  0  0  0.302564  0  1.026796  0  0  0.281376  0.28796  0  1.038988  0
H  H8  1  0.09659644  0.25155506  0.73446367  1  0  0.316034  0  0.961721  0  0  0.294705  0  1.033652  0  0  0.303338  0  1.026317  0  0  0.281246  0.288552  0  1.038831  0
H  H9  1  0.08260847  0.74852044  0.26542145  1  0  0.316148  0  0.960743  0  0  0.293961  0  1.034067  0  0  0.30256  0  1.026782  0  0  0.281377  0.287959  0  1.03897  0
H  H10  1  0.43944330  0.62990199  0.37712993  1  0  0.302667  0  0.908614  0  0  0.293504  0  0.96678  0  0  0.299289  0  0.962716  0  0  0.295111  0.289255  0  0.969953  0
H  H11  1  0.44644940  0.37007970  0.62297139  1  0  0.301055  0  0.910228  0  0  0.291787  0  0.968489  0  0  0.297553  0  0.964481  0  0  0.294885  0.287684  0  0.971409  0
H  H12  1  0.93944721  0.37712895  0.62990148  1  0  0.302649  0  0.908672  0  0  0.293498  0  0.966816  0  0  0.299283  0  0.962753  0  0  0.295117  0.289249  0  0.969991  0
H  H13  1  0.94644794  0.62297207  0.37008005  1  0  0.301075  0  0.910181  0  0  0.291811  0  0.968436  0  0  0.297576  0  0.964427  0  0  0.294887  0.287707  0  0.971355  0
H  H14  1  0.61298413  0.23234023  0.28599487  1  0  0.096283  0  0.97038  0  0  0.104584  0  1.035036  0  0  0.106937  0  1.03437  0  0  0.099733  0.102775  0  1.035746  0
H  H15  1  0.13141587  0.76754088  0.71417927  1  0  0.09596  0  0.970732  0  0  0.104257  0  1.035464  0  0  0.106634  0  1.034754  0  0  0.099878  0.102608  0  1.035804  0
H  H16  1  0.11298706  0.28599787  0.23233692  1  0  0.09631  0  0.970389  0  0  0.104611  0  1.035044  0  0  0.106966  0  1.034377  0  0  0.099728  0.102798  0  1.035766  0
H  H17  1  0.63141512  0.71417728  0.76754106  1  0  0.095961  0  0.970701  0  0  0.104259  0  1.035437  0  0  0.106636  0  1.034727  0  0  0.099872  0.102608  0  1.03578  0
H  H18  1  0.47078879  0.39836121  0.39800674  1  0  0.097264  0  0.965786  0  0  0.109634  0  1.024388  0  0  0.113018  0  1.023593  0  0  0.096505  0.107351  0  1.024766  0
H  H19  1  0.26732174  0.60161138  0.60206453  1  0  0.096909  0  0.965463  0  0  0.109305  0  1.023921  0  0  0.112665  0  1.023136  0  0  0.096358  0.106844  0  1.024774  0
H  H20  1  0.97079468  0.39800602  0.39835979  1  0  0.097305  0  0.965875  0  0  0.109635  0  1.024514  0  0  0.11302  0  1.023718  0  0  0.096522  0.107351  0  1.024897  0
H  H21  1  0.76732222  0.60206595  0.60161092  1  0  0.096923  0  0.96549  0  0  0.109309  0  1.023957  0  0  0.112669  0  1.023172  0  0  0.096364  0.106844  0  1.024809  0
H  H22  1  0.81183995  0.67855306  0.06083939  1  0  0.11586  0  0.963856  0  0  0.124939  0  1.024372  0  0  0.1286  0  1.023168  0  0  0.100699  0.122246  0  1.025779  0
H  H23  1  0.55133275  0.32133167  0.93925229  1  0  0.116088  0  0.964915  0  0  0.125255  0  1.025351  0  0  0.128942  0  1.024062  0  0  0.10063  0.122502  0  1.026665  0
H  H24  1  0.31184259  0.06083858  0.67855012  1  0  0.115881  0  0.963824  0  0  0.124931  0  1.024381  0  0  0.128593  0  1.023172  0  0  0.100705  0.122239  0  1.02579  0
H  H25  1  0.05133034  0.93925441  0.32133283  1  0  0.116026  0  0.96505  0  0  0.125223  0  1.025452  0  0  0.128913  0  1.024159  0  0  0.100596  0.122467  0  1.026772  0
H  H26  1  0.94688263  0.51482497  0.94875421  1  0  0.08648  0  0.976371  0  0  0.096067  0  1.042693  0  0  0.098085  0  1.042569  0  0  0.09901  0.094653  0  1.042591  0
H  H27  1  0.41039984  0.48499016  0.05144457  1  0  0.087114  0  0.976218  0  0  0.095958  0  1.043153  0  0  0.097934  0  1.043137  0  0  0.098833  0.09455  0  1.043093  0
H  H28  1  0.44687973  0.94875522  0.51482237  1  0  0.086471  0  0.976375  0  0  0.096053  0  1.042699  0  0  0.098063  0  1.0426  0  0  0.099008  0.094639  0  1.042593  0
H  H29  1  0.91039635  0.05144552  0.48499129  1  0  0.087129  0  0.976179  0  0  0.09602  0  1.043071  0  0  0.097996  0  1.043054  0  0  0.098829  0.094607  0  1.043022  0
C  C30  1  0.87596527  0.25285745  0.05369095  1  0  0.491999  0  3.876815  0  0  0.435963  0  4.173288  0  0  0.467916  0  4.172686  0  0  0.218398  0.414611  0  4.172923  0
C  C31  1  0.18245140  0.74704924  0.94638793  1  0  0.491911  0  3.87619  0  0  0.435072  0  4.173951  0  0  0.467004  0  4.17338  0  0  0.217905  0.413759  0  4.173536  0
C  C32  1  0.37597418  0.05368551  0.25286393  1  0  0.491729  0  3.877153  0  0  0.435869  0  4.173425  0  0  0.467789  0  4.172871  0  0  0.21842  0.414506  0  4.173068  0
C  C33  1  0.68245755  0.94638895  0.74704816  1  0  0.491759  0  3.876282  0  0  0.434972  0  4.174023  0  0  0.466899  0  4.173434  0  0  0.21786  0.413668  0  4.173599  0
C  C34  1  0.79717675  0.35810382  0.11236419  1  0  -0.106083  0  3.834443  0  0  -0.084112  0  4.075058  0  0  -0.09619  0  4.099138  0  0  -0.036355  -0.076384  0  4.058908  0
C  C35  1  0.26761623  0.64172518  0.88781043  1  0  -0.106279  0  3.833868  0  0  -0.08414  0  4.074932  0  0  -0.096169  0  4.098935  0  0  -0.036805  -0.076658  0  4.058834  0
C  C36  1  0.29717063  0.11236726  0.35809888  1  0  -0.105908  0  3.83443  0  0  -0.083968  0  4.074987  0  0  -0.096043  0  4.099091  0  0  -0.03633  -0.076231  0  4.058822  0
C  C37  1  0.76761472  0.88780945  0.64172601  1  0  -0.106203  0  3.833826  0  0  -0.084163  0  4.075016  0  0  -0.096164  0  4.09898  0  0  -0.036826  -0.076688  0  4.058922  0
C  C38  1  0.65804599  0.32964178  0.23806277  1  0  -0.039203  0  3.755561  0  0  -0.062597  0  4.001169  0  0  -0.057576  0  4.019571  0  0  -0.084543  -0.065749  0  3.988627  0
C  C39  1  0.22582474  0.67022417  0.76208147  1  0  -0.038821  0  3.755557  0  0  -0.062323  0  4.001417  0  0  -0.057328  0  4.019808  0  0  -0.084131  -0.065281  0  3.988661  0
C  C40  1  0.15805130  0.23805776  0.32963838  1  0  -0.039437  0  3.755572  0  0  -0.062851  0  4.001215  0  0  -0.057831  0  4.019624  0  0  -0.084656  -0.066006  0  3.988683  0
C  C41  1  0.72582380  0.76208439  0.67022387  1  0  -0.03879  0  3.755485  0  0  -0.062257  0  4.001341  0  0  -0.057273  0  4.019724  0  0  -0.084077  -0.065213  0  3.988582  0
C  C42  1  0.57895340  0.42271431  0.30085943  1  0  -0.208786  0  3.746515  0  0  -0.223415  0  3.997741  0  0  -0.231993  0  4.017187  0  0  -0.109904  -0.217282  0  3.983784  0
C  C43  1  0.30268345  0.57720333  0.69923332  1  0  -0.208085  0  3.746852  0  0  -0.22255  0  3.997774  0  0  -0.23111  0  4.017322  0  0  -0.110116  -0.216862  0  3.984588  0
C  C44  1  0.07894543  0.30086348  0.42271428  1  0  -0.208636  0  3.746207  0  0  -0.22325  0  3.997398  0  0  -0.231827  0  4.016845  0  0  -0.109824  -0.217111  0  3.983437  0
C  C45  1  0.80268301  0.69923329  0.57720257  1  0  -0.208116  0  3.746848  0  0  -0.222587  0  3.997743  0  0  -0.231147  0  4.017293  0  0  -0.110147  -0.216894  0  3.984551  0
C  C46  1  0.63836840  0.54878694  0.24111409  1  0  0.319248  0  3.870666  0  0  0.311453  0  4.122658  0  0  0.325757  0  4.139317  0  0  0.095617  0.301662  0  4.111394  0
C  C47  1  0.42840190  0.45112843  0.75897456  1  0  0.317982  0  3.871956  0  0  0.310408  0  4.12337  0  0  0.324676  0  4.140131  0  0  0.095574  0.300774  0  4.112035  0
C  C48  1  0.13837273  0.24110883  0.54878618  1  0  0.319117  0  3.870893  0  0  0.311392  0  4.122774  0  0  0.325693  0  4.139438  0  0  0.095592  0.30161  0  4.111498  0
C  C49  1  0.92839901  0.75897667  0.45112762  1  0  0.317916  0  3.872193  0  0  0.31037  0  4.123565  0  0  0.324638  0  4.140328  0  0  0.095539  0.300731  0  4.112232  0
C  C50  1  0.77115109  0.57965368  0.11197768  1  0  -0.215588  0  3.70938  0  0  -0.225294  0  3.955549  0  0  -0.233901  0  3.974145  0  0  -0.11394  -0.220241  0  3.94383  0
C  C51  1  0.46293038  0.42023569  0.88811856  1  0  -0.215101  0  3.709631  0  0  -0.225048  0  3.955553  0  0  -0.233654  0  3.974183  0  0  -0.113525  -0.219887  0  3.943567  0
C  C52  1  0.27114745  0.11198180  0.57965141  1  0  -0.215571  0  3.709546  0  0  -0.225277  0  3.955677  0  0  -0.233879  0  3.97427  0  0  -0.113961  -0.220234  0  3.943964  0
C  C53  1  0.96292888  0.88812038  0.42023456  1  0  -0.215048  0  3.709755  0  0  -0.225043  0  3.955674  0  0  -0.233651  0  3.974308  0  0  -0.113499  -0.219871  0  3.943683  0
C  C54  1  0.84891100  0.48575499  0.04939378  1  0  -0.061795  0  3.78074  0  0  -0.087116  0  4.032191  0  0  -0.082398  0  4.051493  0  0  -0.089833  -0.089741  0  4.018918  0
C  C55  1  0.38407091  0.51408743  0.95077311  1  0  -0.063337  0  3.781202  0  0  -0.087949  0  4.032884  0  0  -0.083265  0  4.052216  0  0  -0.090246  -0.090554  0  4.019603  0
C  C56  1  0.34891100  0.04939164  0.48575516  1  0  -0.061767  0  3.780385  0  0  -0.087087  0  4.031817  0  0  -0.082367  0  4.051107  0  0  -0.089793  -0.089707  0  4.018532  0
C  C57  1  0.88406888  0.95077525  0.51409026  1  0  -0.063394  0  3.781073  0  0  -0.088012  0  4.03277  0  0  -0.083341  0  4.052096  0  0  -0.09026  -0.090616  0  4.01949  0
N  N58  1  0.04709623  0.26035785  0.95536187  1  0  -0.213501  0  3.449773  0  0  -0.170359  0  3.704635  0  0  -0.184625  0  3.71635  0  0  -0.334259  -0.161085  0  3.696113  0
N  N59  1  0.26276001  0.73961874  0.04465489  1  0  -0.211219  0  3.449401  0  0  -0.16727  0  3.703856  0  0  -0.181617  0  3.715561  0  0  -0.332925  -0.157863  0  3.695252  0
N  N60  1  0.54709042  0.95536331  0.26035730  1  0  -0.213271  0  3.449879  0  0  -0.170321  0  3.704699  0  0  -0.184572  0  3.716415  0  0  -0.334253  -0.161052  0  3.696184  0
N  N61  1  0.76275643  0.04465256  0.73962154  1  0  -0.211163  0  3.449404  0  0  -0.167219  0  3.703888  0  0  -0.18156  0  3.715574  0  0  -0.332923  -0.157819  0  3.695298  0
N  N62  1  0.57451953  0.63730516  0.30747809  1  0  -0.663047  0  3.101281  0  0  -0.631483  0  3.332931  0  0  -0.651212  0  3.330766  0  0  -0.598508  -0.617729  0  3.334625  0
N  N63  1  0.51936740  0.36260174  0.69260584  1  0  -0.660462  0  3.102394  0  0  -0.628122  0  3.334999  0  0  -0.647834  0  3.332956  0  0  -0.597845  -0.614371  0  3.335992  0
N  N64  1  0.07451472  0.30747967  0.63730342  1  0  -0.663015  0  3.101206  0  0  -0.631465  0  3.332844  0  0  -0.651198  0  3.330681  0  0  -0.598489  -0.617716  0  3.334534  0
N  N65  1  0.01936542  0.69260898  0.36260107  1  0  -0.660434  0  3.102442  0  0  -0.628107  0  3.335036  0  0  -0.647819  0  3.332993  0  0  -0.597814  -0.61436  0  3.336031  0
O  O66  1  0.13627265  0.15928991  0.90385835  1  0  -0.557014  0  1.947026  0  0  -0.479987  0  2.204645  0  0  -0.507428  0  2.198056  0  0  -0.282648  -0.459936  0  2.208727  0
O  O67  1  0.19940023  0.84074849  0.09607090  1  0  -0.556684  0  1.946389  0  0  -0.480078  0  2.204797  0  0  -0.507197  0  2.197872  0  0  -0.282716  -0.4601  0  2.208792  0
O  O68  1  0.63627553  0.90385674  0.15929095  1  0  -0.557006  0  1.946834  0  0  -0.480001  0  2.204548  0  0  -0.507433  0  2.197942  0  0  -0.282671  -0.45995  0  2.208634  0
O  O69  1  0.69939908  0.09606919  0.84075201  1  0  -0.556652  0  1.946264  0  0  -0.480116  0  2.204762  0  0  -0.507227  0  2.19782  0  0  -0.282702  -0.460136  0  2.208751  0
O  O70  1  0.78077993  0.15710934  0.09566840  1  0  -0.593088  0  2.054329  0  0  -0.526345  0  2.312459  0  0  -0.554167  0  2.302778  0  0  -0.318654  -0.506681  0  2.318435  0
O  O71  1  0.03352427  0.84280734  0.90435687  1  0  -0.593542  0  2.05431  0  0  -0.526806  0  2.313318  0  0  -0.554715  0  2.303636  0  0  -0.318884  -0.507215  0  2.319022  0
O  O72  1  0.28077800  0.09566667  0.15710620  1  0  -0.592976  0  2.05421  0  0  -0.526334  0  2.312302  0  0  -0.554138  0  2.302613  0  0  -0.318634  -0.506662  0  2.318275  0
O  O73  1  0.53352470  0.90435085  0.84281497  1  0  -0.5935  0  2.054211  0  0  -0.526758  0  2.313197  0  0  -0.55467  0  2.303511  0  0  -0.318835  -0.507169  0  2.318899  0
