# generated using pymatgen
data_CuH18C20N6(ClO2)2
_symmetry_space_group_name_H-M   'P 1'
_cell_length_a   7.51416041
_cell_length_b   7.60566408
_cell_length_c   19.76191449
_cell_angle_alpha   84.09404911
_cell_angle_beta   80.02966819
_cell_angle_gamma   70.67484651
_symmetry_Int_Tables_number   1
_chemical_formula_structural   CuH18C20N6(ClO2)2
_chemical_formula_sum   'Cu2 H36 C40 N12 Cl4 O8'
_cell_volume   1048.40219209
_cell_formula_units_Z   2
loop_
 _symmetry_equiv_pos_site_id
 _symmetry_equiv_pos_as_xyz
  1  'x, y, z'
loop_
 _atom_site_type_symbol
 _atom_site_label
 _atom_site_symmetry_multiplicity
 _atom_site_fract_x
 _atom_site_fract_y
 _atom_site_fract_z
 _atom_site_occupancy
 _atom_site_hle17_ddec_charge
 _atom_site_hle17_ddec_spin_density
 _atom_site_hle17_ddec_sum_bond_order
 _atom_site_hle17_magmom
 _atom_site_hse06_10hf_bader_charge
 _atom_site_hse06_10hf_bader_spin_density
 _atom_site_hse06_10hf_ddec_charge
 _atom_site_hse06_10hf_ddec_spin_density
 _atom_site_hse06_10hf_ddec_sum_bond_order
 _atom_site_hse06_10hf_magmom
 _atom_site_hse06_ddec_charge
 _atom_site_hse06_ddec_spin_density
 _atom_site_hse06_ddec_sum_bond_order
 _atom_site_hse06_magmom
 _atom_site_pbe_cm5_charge
 _atom_site_pbe_ddec_charge
 _atom_site_pbe_ddec_spin_density
 _atom_site_pbe_ddec_sum_bond_order
 _atom_site_pbe_magmom
Cu  Cu0  1  0.99999875  0.50000146  0.00000037  1  0.754595  -0.667761  1.90472  -0.471  1.01876  -0.592765  0.751896  -0.766511  2.282904  -0.593  0.847396  -0.846579  2.206086  -0.68  0.581973  0.698043  -0.712448  2.330347  -0.54
Cu  Cu1  1  0.99999975  0.00000136  0.00000001  1  0.762892  0.661826  1.948172  0.463  1.008257  0.578433  0.759935  0.755012  2.332389  0.578  0.850602  0.833454  2.256574  0.662  0.601157  0.709697  0.702096  2.378867  0.527
H  H2  1  0.25685084  0.29463598  0.48207460  1  0.106143  -6e-06  0.959974  0.0  0.11136  -6e-06  0.113016  -3e-06  1.027152  0.0  0.116551  -2e-06  1.024294  0.0  0.105125  0.110432  -4e-06  1.02924  0.0
H  H3  1  0.74314655  0.70536568  0.51792582  1  0.106118  -8e-06  0.960038  0.0  0.11135  -6e-06  0.112997  -3e-06  1.027207  0.0  0.116529  -2e-06  1.024353  0.0  0.1051  0.110413  -4e-06  1.029294  0.0
H  H4  1  0.20101623  0.12672068  0.39114092  1  0.106691  5e-06  0.949103  0.0  0.091391  -0.0  0.117118  -0.0  1.008771  0.0  0.120384  -0.0  1.007701  0.0  0.102953  0.114746  -0.0  1.009779  0.0
H  H5  1  0.79898295  0.87327957  0.60885945  1  0.10668  8e-06  0.949103  0.0  0.091375  0.0  0.117125  -0.0  1.008752  0.0  0.1204  -0.0  1.007657  0.0  0.102949  0.114753  -0.0  1.009759  0.0
H  H6  1  0.06015952  0.63879431  0.26548609  1  0.094637  3.3e-05  0.991005  0.0  0.117278  2.5e-05  0.096923  2.7e-05  1.064099  0.0  0.100158  2e-05  1.063405  0.0  0.097817  0.094688  3.7e-05  1.0645  0.0
H  H7  1  0.93984239  0.36120591  0.73451361  1  0.094572  3.6e-05  0.991  0.0  0.117286  2.5e-05  0.096869  2.7e-05  1.064089  0.0  0.10008  2e-05  1.063448  0.0  0.097785  0.094635  3.7e-05  1.064488  0.0
H  H8  1  0.12086626  0.80376330  0.35543285  1  0.096482  1.4e-05  0.946968  0.0  0.104078  2.4e-05  0.104405  2.1e-05  1.012739  0.0  0.108028  1.3e-05  1.009892  0.0  0.103809  0.101757  2.9e-05  1.014886  0.0
H  H9  1  0.87913430  0.19623694  0.64456693  1  0.096451  1.1e-05  0.946963  0.0  0.104093  2.4e-05  0.104358  2.1e-05  1.01276  0.0  0.107987  1.3e-05  1.009898  0.0  0.103796  0.10171  2.9e-05  1.014904  0.0
H  H10  1  0.17002944  0.12018183  0.27051074  1  0.093065  4.9e-05  0.941829  0.0  0.076797  2.7e-05  0.101755  2.6e-05  1.01539  0.0  0.102934  1.9e-05  1.014048  0.0  0.114702  0.100959  3.5e-05  1.015685  0.0
H  H11  1  0.82997603  0.87981559  0.72948986  1  0.093041  5.1e-05  0.941856  0.0  0.076856  2.8e-05  0.10172  2.6e-05  1.015419  0.0  0.103065  1.9e-05  1.014138  0.0  0.11469  0.100921  3.5e-05  1.01571  0.0
H  H12  1  0.93412273  0.27624132  0.27817705  1  0.099596  3.7e-05  0.926569  0.0  0.107597  -1.4e-05  0.114104  0.0  0.991051  0.0  0.11521  3e-06  0.989439  0.0  0.118927  0.113301  -3e-06  0.991664  0.0
H  H13  1  0.06588052  0.72375472  0.72182273  1  0.099616  4e-05  0.926531  0.0  0.107587  -1.4e-05  0.114115  0.0  0.991024  0.0  0.115406  3e-06  0.989432  0.0  0.118935  0.113314  -3e-06  0.991635  0.0
H  H14  1  0.86004126  0.38011139  0.15799467  1  0.108546  0.000337  0.954202  0.0  0.181441  4.9e-05  0.120372  0.000168  1.015475  0.0  0.123333  0.000129  1.010701  0.0  0.133593  0.11816  0.000187  1.01843  0.0
H  H15  1  0.13996154  0.61988604  0.84200508  1  0.10857  0.000338  0.954154  0.0  0.181449  4.8e-05  0.120379  0.000168  1.015451  0.0  0.123564  0.000129  1.010638  0.0  0.133585  0.118155  0.000187  1.018437  0.0
H  H16  1  0.38870850  0.43610293  0.06720927  1  0.098877  -0.000983  0.977237  0.0  0.201722  -0.001172  0.108237  -0.001063  1.041175  0.0  0.111133  -0.000785  1.037262  0.0  0.115374  0.106174  -0.001265  1.043866  0.0
H  H17  1  0.61129252  0.56390008  0.93279037  1  0.098899  -0.000981  0.977216  0.0  0.201698  -0.001172  0.108237  -0.001063  1.041174  0.0  0.111195  -0.000785  1.037193  0.0  0.115392  0.106175  -0.001265  1.043865  0.0
H  H18  1  0.65672997  0.72598019  0.39913976  1  0.108903  8e-06  0.960234  0.0  0.144434  3e-06  0.115555  0.0  1.026253  0.0  0.119321  0.0  1.023078  0.0  0.106638  0.112746  0.0  1.028717  0.0
H  H19  1  0.34326653  0.27402007  0.60085977  1  0.108897  5e-06  0.960203  0.0  0.144452  3e-06  0.115596  0.0  1.026177  0.0  0.119363  0.0  1.022999  0.0  0.106661  0.112788  0.0  1.028645  0.0
H  H20  1  0.57088672  0.56503927  0.31294557  1  0.104712  -1.6e-05  0.954155  0.0  0.075964  1e-06  0.113588  -3e-06  1.01623  0.0  0.116882  -3e-06  1.015326  0.0  0.101212  0.111206  -4e-06  1.01708  0.0
H  H21  1  0.42911337  0.43495818  0.68705435  1  0.104662  -1.4e-05  0.95423  0.0  0.075819  1e-06  0.113585  -3e-06  1.016246  0.0  0.116881  -3e-06  1.015337  0.0  0.101219  0.111202  -4e-06  1.017095  0.0
H  H22  1  0.53269924  0.04147891  0.17095598  1  0.104506  -3e-05  0.973092  0.0  0.14048  3.8e-05  0.109513  -5e-06  1.042378  0.0  0.11329  -1.6e-05  1.039959  0.0  0.097733  0.106862  4e-06  1.044098  0.0
H  H23  1  0.46729905  0.95851995  0.82904400  1  0.104495  -2.7e-05  0.973088  0.0  0.140373  3.8e-05  0.109503  -5e-06  1.042375  0.0  0.113309  -1.6e-05  1.039896  0.0  0.097732  0.106851  4e-06  1.044092  0.0
H  H24  1  0.60651489  0.20658271  0.25875010  1  0.093829  -1.3e-05  0.951446  0.0  0.07433  -1.9e-05  0.100646  -2.5e-05  1.020256  0.0  0.104406  -1.5e-05  1.017147  0.0  0.102395  0.097864  -3.6e-05  1.022721  0.0
H  H25  1  0.39348565  0.79341753  0.74125019  1  0.093843  -1.5e-05  0.951437  0.0  0.074344  -1.9e-05  0.100667  -2.5e-05  1.020236  0.0  0.104438  -1.5e-05  1.017104  0.0  0.102412  0.097886  -3.6e-05  1.0227  0.0
H  H26  1  0.61725878  0.66111205  0.13887115  1  0.100495  0.001459  0.963414  0.0  0.130149  0.001401  0.11543  0.001353  1.029947  0.0  0.117105  0.001034  1.027734  0.0  0.105506  0.114507  0.001582  1.030649  0.0
H  H27  1  0.38274134  0.33888957  0.86112809  1  0.100505  0.001458  0.963455  0.0  0.130157  0.001402  0.11545  0.001353  1.029972  0.0  0.117132  0.001034  1.027749  0.0  0.105508  0.114527  0.001582  1.030674  0.0
H  H28  1  0.47626933  0.56299868  0.20410965  1  0.090232  4e-06  0.934304  0.0  0.081858  0.000226  0.098668  5.7e-05  1.009258  0.0  0.100557  4e-05  1.006531  0.0  0.112108  0.097522  7e-05  1.010487  0.0
H  H29  1  0.52372945  0.43700295  0.79588918  1  0.090259  2e-06  0.934247  0.0  0.081844  0.000226  0.098692  5.7e-05  1.009203  0.0  0.10061  4e-05  1.006426  0.0  0.112099  0.097545  7e-05  1.010431  0.0
H  H30  1  0.42663109  0.81469385  0.04397628  1  0.125668  0.000575  0.93218  0.0  0.215527  0.000901  0.134213  0.000641  0.995117  0.0  0.138013  0.000509  0.989009  0.0  0.134541  0.131514  0.000733  0.998952  0.0
H  H31  1  0.57336949  0.18531473  0.95602367  1  0.125685  0.000576  0.932197  0.0  0.215598  0.000901  0.134209  0.000641  0.995177  0.0  0.138005  0.000509  0.989072  0.0  0.134565  0.131512  0.000733  0.999017  0.0
H  H32  1  0.88530007  0.00047926  0.16424339  1  0.090058  -0.000148  0.966429  0.0  0.120913  0.000172  0.100312  -3e-05  1.029254  0.0  0.101781  -2.2e-05  1.027719  0.0  0.126352  0.099131  -2.9e-05  1.030532  0.0
H  H33  1  0.11469865  0.99951821  0.83575712  1  0.090117  -0.000147  0.966362  0.0  0.120922  0.000172  0.100357  -3e-05  1.029209  0.0  0.101827  -2.2e-05  1.027667  0.0  0.126374  0.099175  -2.9e-05  1.030482  0.0
H  H34  1  0.28432710  0.64993361  0.57073048  1  0.3943  -0.0  0.897525  0.0  0.65322  -0.0  0.364301  -0.0  0.973693  0.0  0.377072  -0.0  0.960426  0.0  0.30404  0.355367  -1e-06  0.982889  0.0
H  H35  1  0.71567392  0.35006522  0.42926882  1  0.394233  -1e-06  0.897573  0.0  0.65326  -0.0  0.364308  -0.0  0.973616  0.0  0.377077  -0.0  0.960353  0.0  0.304049  0.355376  -1e-06  0.982813  0.0
H  H36  1  0.74241164  0.06604656  0.47890787  1  0.39758  -0.0  0.896875  0.0  0.670782  0.0  0.366835  0.0  0.973325  0.0  0.380253  -0.0  0.958741  0.0  0.303649  0.357461  0.0  0.983095  0.0
H  H37  1  0.25759116  0.93395087  0.52109189  1  0.397593  0.0  0.896859  0.0  0.670781  0.0  0.36685  0.0  0.973302  0.0  0.380268  -0.0  0.958719  0.0  0.303663  0.357474  0.0  0.983071  0.0
C  C38  1  0.22686181  0.66401838  0.47760641  1  0.665929  -9e-06  3.795619  0.0  1.537756  -1.1e-05  0.613929  -7e-06  4.093552  0.0  0.648582  -4e-06  4.084228  0.0  0.241294  0.590391  -1.4e-05  4.099414  0.0
C  C39  1  0.77314281  0.33598182  0.52239312  1  0.665995  -5e-06  3.795575  0.0  1.537614  -1.1e-05  0.613993  -7e-06  4.093521  0.0  0.648652  -4e-06  4.084188  0.0  0.241284  0.590436  -1.4e-05  4.099403  0.0
C  C40  1  0.19273382  0.56046060  0.42460085  1  -0.096757  -0.000132  3.789658  0.0  -0.058686  -7.5e-05  -0.075356  -5.1e-05  4.026879  0.0  -0.086169  -3.5e-05  4.052127  0.0  -0.022952  -0.068301  -6.9e-05  4.009878  0.0
C  C41  1  0.80726585  0.43954242  0.57539888  1  -0.096761  -0.000179  3.789691  0.0  -0.058706  -7.5e-05  -0.075318  -5.1e-05  4.026848  0.0  -0.086127  -3.5e-05  4.052086  0.0  -0.022936  -0.068259  -6.9e-05  4.009848  0.0
C  C42  1  0.21445610  0.36943591  0.43444958  1  -0.045802  6.4e-05  3.708149  0.0  -0.02723  2.7e-05  -0.075054  1.7e-05  3.964439  0.0  -0.073165  1.8e-05  3.984325  0.0  -0.082261  -0.076019  1.8e-05  3.950943  0.0
C  C43  1  0.78554401  0.63056572  0.56555017  1  -0.045831  0.000122  3.708314  0.0  -0.027013  2.6e-05  -0.075098  1.6e-05  3.964591  0.0  -0.073208  1.9e-05  3.984466  0.0  -0.082272  -0.076069  1.9e-05  3.951097  0.0
C  C44  1  0.18232867  0.27557452  0.38326746  1  -0.120822  -0.000158  3.708942  0.0  -0.024081  -0.000135  -0.139069  -9.1e-05  3.958381  0.0  -0.144307  -6.7e-05  3.980252  0.0  -0.091312  -0.135668  -0.000115  3.943783  0.0
C  C45  1  0.81767008  0.72442712  0.61673237  1  -0.120769  -0.00022  3.708924  0.0  -0.024057  -0.000134  -0.139024  -9e-05  3.958384  0.0  -0.144209  -6.7e-05  3.980127  0.0  -0.091293  -0.135621  -0.000115  3.94378  0.0
C  C46  1  0.12625086  0.37134223  0.32200682  1  0.104736  -7.6e-05  3.716118  0.0  -0.056598  -7.8e-05  0.121841  -6.4e-05  3.957112  0.0  0.12418  -3.4e-05  3.977975  0.0  0.000252  0.120552  -8.8e-05  3.941833  0.0
C  C47  1  0.87374926  0.62865939  0.67799242  1  0.104711  -1.7e-05  3.71608  0.0  -0.056643  -8e-05  0.121773  -6.5e-05  3.95714  0.0  0.124308  -3.4e-05  3.978068  0.0  0.000237  0.120488  -8.8e-05  3.941852  0.0
C  C48  1  0.10264222  0.56199840  0.31274745  1  -0.12817  -9.4e-05  3.752276  0.0  -0.024532  -3.6e-05  -0.149336  -1e-05  4.008432  0.0  -0.154367  -9e-06  4.0298  0.0  -0.094009  -0.145857  -1.2e-05  3.993737  0.0
C  C49  1  0.89735879  0.43800043  0.68725186  1  -0.128088  -0.000154  3.752194  0.0  -0.024513  -3.4e-05  -0.149246  -9e-06  4.008351  0.0  -0.154294  -9e-06  4.029701  0.0  -0.093974  -0.145769  -1.2e-05  3.993648  0.0
C  C50  1  0.13688115  0.65581656  0.36327341  1  -0.042361  0.000104  3.737185  0.0  -0.010249  4.6e-05  -0.068482  3.9e-05  3.989832  0.0  -0.066838  3.4e-05  4.010266  0.0  -0.076263  -0.069293  4.3e-05  3.975973  0.0
C  C51  1  0.86311897  0.34418507  0.63672583  1  -0.042297  0.000162  3.737167  0.0  -0.010247  4.5e-05  -0.06842  3.9e-05  3.989804  0.0  -0.066751  3.4e-05  4.010198  0.0  -0.076219  -0.069228  4.3e-05  3.975935  0.0
C  C52  1  0.08515582  0.26879733  0.26838661  1  -0.064196  -0.00062  3.649227  -0.001  0.328561  -0.000618  -0.143705  -0.000472  3.90053  -0.001  -0.131711  -0.000382  3.913598  0.0  -0.041438  -0.145969  -0.000533  3.894122  -0.001
C  C53  1  0.91484429  0.73120012  0.73161280  1  -0.064327  -0.000626  3.649284  -0.001  0.328543  -0.000618  -0.143809  -0.000473  3.900605  -0.001  -0.132908  -0.000383  3.914298  0.0  -0.041511  -0.14608  -0.000533  3.8942  -0.001
C  C54  1  0.00433215  0.38583225  0.15014137  1  0.171836  0.003592  3.632365  0.003  1.039998  0.001469  0.098474  0.000501  3.890945  0.0  0.124153  0.001106  3.907765  0.001  0.160293  0.087954  3.6e-05  3.882702  0.0
C  C55  1  0.99566975  0.61416798  0.84985884  1  0.171852  0.003574  3.632312  0.003  1.039948  0.00147  0.098484  0.000501  3.890903  0.0  0.123026  0.001105  3.908402  0.001  0.160335  0.087958  3.7e-05  3.882646  0.0
C  C56  1  0.27500527  0.41157801  0.10491063  1  0.211625  0.001241  3.664031  0.001  0.972394  -0.000732  0.162097  -0.001082  3.944437  -0.001  0.176771  -0.000274  3.953934  0.0  0.145326  0.15331  -0.00167  3.935987  -0.002
C  C57  1  0.72499393  0.58842641  0.89508957  1  0.211702  0.00122  3.663954  0.001  0.972441  -0.000732  0.162194  -0.001081  3.944358  -0.001  0.177077  -0.000274  3.953941  0.0  0.145357  0.153402  -0.00167  3.935908  -0.002
C  C58  1  0.68546003  0.07687354  0.38528995  1  0.663027  1.8e-05  3.804741  0.0  1.539971  3.2e-05  0.610354  2.1e-05  4.102537  0.0  0.644867  9e-06  4.093612  0.0  0.24051  0.586939  3.9e-05  4.108087  0.0
C  C59  1  0.31454320  0.92312250  0.61471034  1  0.663038  2.1e-05  3.804717  0.0  1.539986  3.2e-05  0.610381  2.2e-05  4.102488  0.0  0.644894  9e-06  4.093567  0.0  0.240514  0.586966  3.9e-05  4.108033  0.0
C  C60  1  0.64003009  0.97571002  0.33410987  1  -0.098854  0.000359  3.794114  0.0  0.017353  0.000223  -0.076845  0.000145  4.029456  0.0  -0.087752  0.000112  4.055176  0.0  -0.023825  -0.069729  0.000189  4.012121  0.0
C  C61  1  0.35997089  0.02428883  0.66589044  1  -0.098786  0.000316  3.794001  0.0  0.017534  0.000221  -0.076786  0.000143  4.02936  0.0  -0.087692  0.000111  4.05508  0.0  -0.02377  -0.069676  0.000189  4.012022  0.0
C  C62  1  0.62927010  0.79497979  0.34925141  1  -0.035894  -0.00028  3.70096  0.0  -0.109234  -0.000113  -0.063962  -7.6e-05  3.952831  0.0  -0.061403  -8.3e-05  3.972032  0.0  -0.077159  -0.065356  -6.6e-05  3.939832  0.0
C  C63  1  0.37072860  0.20501769  0.65074961  1  -0.035909  -0.000226  3.700909  0.0  -0.109474  -0.000112  -0.064022  -7.6e-05  3.952817  0.0  -0.061457  -8.2e-05  3.97201  0.0  -0.077187  -0.065421  -6.6e-05  3.93982  0.0
C  C64  1  0.58222608  0.70444517  0.30046306  1  -0.122874  0.000408  3.711553  0.0  0.03026  0.000254  -0.140036  0.000156  3.959111  0.0  -0.145589  0.000128  3.981262  0.0  -0.089313  -0.136356  0.000187  3.944205  0.0
C  C65  1  0.41777221  0.29555369  0.69953692  1  -0.122802  0.000355  3.711673  0.0  0.030446  0.000256  -0.13999  0.000157  3.959224  0.0  -0.145536  0.000128  3.981366  0.0  -0.089313  -0.136312  0.000187  3.944308  0.0
C  C66  1  0.54747489  0.79209811  0.23604049  1  0.098687  -0.000261  3.726267  0.0  -0.032758  -9.4e-05  0.115709  -5.9e-05  3.968929  0.0  0.117981  -9e-05  3.989847  0.0  -0.002511  0.114659  -2.1e-05  3.953467  0.0
C  C67  1  0.45252434  0.20790212  0.76395836  1  0.098709  -0.000214  3.726198  0.0  -0.032759  -9.7e-05  0.115717  -6.1e-05  3.968882  0.0  0.11799  -9.1e-05  3.989801  0.0  -0.002506  0.114665  -2.1e-05  3.9534  0.0
C  C68  1  0.55906361  0.97254804  0.22100298  1  -0.12326  0.000395  3.738478  0.0  -0.124365  0.000407  -0.14529  0.00026  3.992696  0.0  -0.149014  0.000191  4.011627  0.0  -0.093945  -0.142746  0.000329  3.979659  0.0
C  C69  1  0.44093329  0.02745503  0.77899843  1  -0.123242  0.000341  3.738444  0.0  -0.12404  0.000409  -0.145259  0.000261  3.992646  0.0  -0.148961  0.000191  4.011525  0.0  -0.093944  -0.142715  0.000329  3.979592  0.0
C  C70  1  0.60327193  0.06424538  0.26975649  1  -0.056998  -0.000308  3.746415  0.0  -0.025744  -0.000153  -0.081037  -0.000119  3.998598  0.0  -0.079891  -0.000111  4.018836  0.0  -0.079716  -0.081584  -0.000131  3.985061  0.0
C  C71  1  0.39673356  0.93575622  0.73024444  1  -0.057059  -0.000257  3.746454  0.0  -0.025978  -0.000153  -0.081101  -0.000119  3.998648  0.0  -0.079937  -0.00011  4.018839  0.0  -0.079779  -0.081647  -0.000131  3.985103  0.0
C  C72  1  0.50090310  0.69354311  0.18259825  1  -0.069949  0.002347  3.652204  0.002  0.300113  0.002859  -0.148221  0.002156  3.893904  0.002  -0.136909  0.001659  3.907017  0.002  -0.04763  -0.150459  0.002495  3.887625  0.002
C  C73  1  0.49909745  0.30645712  0.81740153  1  -0.070062  0.002356  3.652181  0.002  0.300097  0.002859  -0.148347  0.002155  3.893912  0.002  -0.137028  0.001659  3.906999  0.002  -0.047664  -0.150581  0.002495  3.887621  0.002
C  C74  1  0.31053253  0.84596120  0.08655397  1  0.191605  -0.003009  3.590442  -0.003  1.037095  -0.000563  0.11972  0.000341  3.847875  0.0  0.145971  -0.000515  3.862265  -0.001  0.16799  0.108371  0.001016  3.841375  0.001
C  C75  1  0.68946713  0.15404182  0.91344576  1  0.191546  -0.003022  3.590524  -0.003  1.037013  -0.000563  0.119644  0.000341  3.847957  0.0  0.145899  -0.000515  3.862337  -0.001  0.167921  0.108286  0.001016  3.841462  0.001
C  C76  1  0.03795858  0.94144604  0.14958218  1  0.198952  -0.00268  3.711847  -0.002  1.030804  -0.000975  0.147328  -0.000232  3.9998  0.0  0.162392  -0.000743  4.009744  -0.001  0.141488  0.138453  0.000166  3.991014  0.0
C  C77  1  0.96203970  0.05855283  0.85041830  1  0.198847  -0.002691  3.711886  -0.002  1.030778  -0.000973  0.147207  -0.000231  3.999853  0.0  0.162292  -0.000743  4.009748  -0.001  0.141451  0.138333  0.000166  3.99105  0.0
N  N78  1  0.12053071  0.34311503  0.19809591  1  0.044181  -0.001296  3.555166  -0.001  -0.875011  -0.001574  0.163199  -0.001008  3.74167  -0.001  0.125449  -0.000806  3.801573  -0.001  -0.134132  0.169771  -0.001155  3.726048  -0.001
N  N79  1  0.87947344  0.65688239  0.80190376  1  0.044328  -0.00129  3.55501  -0.001  -0.874915  -0.001574  0.163391  -0.001008  3.741453  -0.001  0.127094  -0.000806  3.8013  -0.001  -0.134091  0.169963  -0.001155  3.725815  -0.001
N  N80  1  0.29434302  0.35882727  0.17007214  1  -0.259255  -0.007453  2.843676  -0.008  -0.703621  -0.006208  -0.253471  -0.004096  3.109618  -0.005  -0.253851  -0.002925  3.128373  -0.003  -0.213718  -0.247247  -0.005225  3.100691  -0.006
N  N81  1  0.70566069  0.64117154  0.82992751  1  -0.259398  -0.007437  2.843727  -0.008  -0.703662  -0.006207  -0.253642  -0.004097  3.109684  -0.005  -0.254921  -0.002926  3.128829  -0.003  -0.213788  -0.247416  -0.005226  3.100753  -0.006
N  N82  1  0.09792461  0.43018838  0.09036975  1  -0.368637  -0.064924  3.312207  -0.08  -1.21655  -0.06999  -0.317317  -0.048045  3.618233  -0.062  -0.353896  -0.040476  3.63698  -0.055  -0.364918  -0.295682  -0.051665  3.605291  -0.065
N  N83  1  0.90207684  0.56981325  0.90963043  1  -0.368676  -0.064913  3.312161  -0.08  -1.216544  -0.069991  -0.317343  -0.048046  3.618172  -0.062  -0.353668  -0.040476  3.637141  -0.055  -0.364907  -0.295706  -0.051669  3.605224  -0.065
N  N84  1  0.15873515  0.86752263  0.19426666  1  -0.270814  0.006612  2.86114  0.007  -0.708704  0.005617  -0.266278  0.003646  3.129112  0.004  -0.266734  0.002639  3.148506  0.003  -0.220073  -0.260254  0.004618  3.120136  0.005
N  N85  1  0.84126223  0.13247485  0.80573342  1  -0.270738  0.006619  2.861201  0.007  -0.708679  0.005617  -0.266193  0.003646  3.129168  0.004  -0.266622  0.00264  3.148513  0.003  -0.220042  -0.260169  0.004619  3.120181  0.005
N  N86  1  0.33118686  0.80640556  0.15318603  1  0.05177  0.002061  3.533785  0.002  -0.854416  0.002436  0.173016  0.001602  3.716604  0.002  0.13492  0.001329  3.778581  0.002  -0.131731  0.179382  0.001804  3.702151  0.002
N  N87  1  0.66881097  0.19359470  0.84681442  1  0.051766  0.002067  3.533908  0.002  -0.854469  0.002436  0.173012  0.001602  3.716738  0.002  0.134936  0.001329  3.77868  0.002  -0.131736  0.179382  0.001804  3.702271  0.002
N  N88  1  0.12524375  0.93116534  0.08295254  1  -0.371905  0.065569  3.35247  0.081  -1.224267  0.070318  -0.3204  0.048504  3.66069  0.063  -0.355903  0.041457  3.678058  0.056  -0.374661  -0.299038  0.051913  3.648381  0.065
N  N89  1  0.87475455  0.06883770  0.91704778  1  -0.371879  0.065576  3.35249  0.081  -1.224206  0.070316  -0.32032  0.048503  3.660659  0.063  -0.355814  0.041456  3.677999  0.056  -0.374644  -0.298952  0.051915  3.648338  0.065
Cl  Cl90  1  0.76889631  0.86695528  0.04965953  1  -0.541963  0.125999  0.982172  0.144  -0.635085  0.12915  -0.553305  0.085707  1.274716  0.103  -0.587649  0.067639  1.251248  0.084  -0.310309  -0.532525  0.095619  1.290919  0.112
Cl  Cl91  1  0.23110381  0.13304634  0.95033971  1  -0.541966  0.126  0.982172  0.144  -0.635094  0.129149  -0.553306  0.085707  1.274713  0.103  -0.587644  0.06764  1.25123  0.084  -0.310313  -0.532525  0.095622  1.290916  0.112
Cl  Cl92  1  0.75129110  0.37934979  0.04376640  1  -0.527843  -0.125871  0.963593  -0.143  -0.640229  -0.126014  -0.538841  -0.08312  1.25409  -0.1  -0.573159  -0.064144  1.230378  -0.08  -0.292342  -0.518699  -0.093907  1.270797  -0.11
Cl  Cl93  1  0.24870582  0.62065326  0.95623450  1  -0.527833  -0.125876  0.963587  -0.143  -0.640228  -0.12602  -0.538813  -0.083124  1.254056  -0.1  -0.57311  -0.064147  1.230334  -0.08  -0.292338  -0.518668  -0.093916  1.27076  -0.11
O  O94  1  0.27435122  0.56553211  0.53468854  1  -0.542095  -5e-06  2.126398  0.0  -1.189371  -8e-06  -0.489326  -4e-06  2.345677  0.0  -0.512597  -1e-06  2.333135  0.0  -0.320625  -0.473156  -7e-06  2.35389  0.0
O  O95  1  0.72564796  0.43446814  0.46531183  1  -0.542083  -6e-06  2.126434  0.0  -1.189447  -8e-06  -0.489358  -4e-06  2.345645  0.0  -0.51263  -1e-06  2.333103  0.0  -0.320672  -0.473185  -7e-06  2.353863  0.0
O  O96  1  0.21085479  0.83364499  0.46844917  1  -0.567658  -2.2e-05  1.994571  0.0  -1.198725  -1.6e-05  -0.518198  -1.2e-05  2.212252  0.0  -0.540753  -1e-05  2.202339  0.0  -0.286033  -0.502754  -1.6e-05  2.218629  0.0
O  O97  1  0.78915300  0.16635379  0.53154971  1  -0.56768  -2.9e-05  1.994548  0.0  -1.198829  -1.6e-05  -0.518218  -1.2e-05  2.212221  0.0  -0.540778  -9e-06  2.202306  0.0  -0.285975  -0.502765  -1.6e-05  2.218593  0.0
O  O98  1  0.70831369  0.98791644  0.44559899  1  -0.532329  1.8e-05  2.112919  0.0  -1.206693  2.2e-05  -0.479561  1.2e-05  2.331758  0.0  -0.502307  8e-06  2.317185  0.0  -0.31482  -0.463763  1.9e-05  2.341059  0.0
O  O99  1  0.29168685  0.01208380  0.55440129  1  -0.532317  1.7e-05  2.112909  0.0  -1.206698  2.1e-05  -0.479552  1.2e-05  2.331741  0.0  -0.502302  8e-06  2.317172  0.0  -0.314798  -0.463754  1.9e-05  2.341041  0.0
O  O100  1  0.70048283  0.23664844  0.37143407  1  -0.586947  5.7e-05  2.00482  0.0  -1.200952  4.6e-05  -0.533499  3.1e-05  2.223455  0.0  -0.556697  2.1e-05  2.214945  0.0  -0.289485  -0.517598  4.5e-05  2.228987  0.0
O  O101  1  0.29951997  0.76334899  0.62856568  1  -0.587001  5.1e-05  2.004756  0.0  -1.200983  4.6e-05  -0.533543  3.1e-05  2.223432  0.0  -0.556721  2.1e-05  2.214892  0.0  -0.289514  -0.517641  4.6e-05  2.228961  0.0
