# generated using pymatgen
data_ZnH20C26(NO)4
_symmetry_space_group_name_H-M   'P 1'
_cell_length_a   9.62210811
_cell_length_b   10.45482854
_cell_length_c   13.55730786
_cell_angle_alpha   70.78021910
_cell_angle_beta   81.26778766
_cell_angle_gamma   71.33009168
_symmetry_Int_Tables_number   1
_chemical_formula_structural   ZnH20C26(NO)4
_chemical_formula_sum   'Zn2 H40 C52 N8 O8'
_cell_volume   1218.40339522
_cell_formula_units_Z   2
loop_
 _symmetry_equiv_pos_site_id
 _symmetry_equiv_pos_as_xyz
  1  'x, y, z'
loop_
 _atom_site_type_symbol
 _atom_site_label
 _atom_site_symmetry_multiplicity
 _atom_site_fract_x
 _atom_site_fract_y
 _atom_site_fract_z
 _atom_site_occupancy
 _atom_site_hle17_bader_spin_density
 _atom_site_hle17_ddec_charge
 _atom_site_hle17_ddec_spin_density
 _atom_site_hle17_ddec_sum_bond_order
 _atom_site_hle17_magmom
 _atom_site_hse06_10hf_bader_spin_density
 _atom_site_hse06_10hf_ddec_charge
 _atom_site_hse06_10hf_ddec_spin_density
 _atom_site_hse06_10hf_ddec_sum_bond_order
 _atom_site_hse06_10hf_magmom
 _atom_site_hse06_bader_spin_density
 _atom_site_hse06_ddec_charge
 _atom_site_hse06_ddec_spin_density
 _atom_site_hse06_ddec_sum_bond_order
 _atom_site_hse06_magmom
 _atom_site_pbe_bader_spin_density
 _atom_site_pbe_cm5_charge
 _atom_site_pbe_ddec_charge
 _atom_site_pbe_ddec_spin_density
 _atom_site_pbe_ddec_sum_bond_order
 _atom_site_pbe_magmom
Zn  Zn0  1  0.49193080  0.16260000  0.71718243  1  0  1.002637  0  1.903476  0  0  0.812884  0  2.387639  0  0  0.859163  0  2.33164  0  0  0.696654  0.780737  0  2.426027  0
Zn  Zn1  1  0.50806834  0.83740146  0.28282004  1  0  1.002597  0  1.903453  0  0  0.812835  0  2.387623  0  0  0.859117  0  2.331625  0  0  0.696623  0.780691  0  2.426014  0
H  H2  1  0.47909543  0.69482512  0.07243941  1  0  0.131791  0  0.935081  0  0  0.141986  0  0.99309  0  0  0.14546  0  0.991278  0  0  0.116064  0.139161  0  0.994845  0
H  H3  1  0.52089986  0.30517849  0.92755853  1  0  0.131777  0  0.935082  0  0  0.141973  0  0.993092  0  0  0.145445  0  0.991279  0  0  0.116048  0.139147  0  0.994846  0
H  H4  1  0.81203401  0.59246700  0.33685081  1  0  0.092354  0  0.983517  0  0  0.101121  0  1.049674  0  0  0.103533  0  1.049385  0  0  0.09606  0.099398  0  1.04993  0
H  H5  1  0.18796566  0.40753235  0.66314624  1  0  0.092347  0  0.983499  0  0  0.101086  0  1.049699  0  0  0.1035  0  1.049408  0  0  0.096019  0.099362  0  1.049952  0
H  H6  1  0.16236211  0.82891196  0.74059582  1  0  0.110031  0  0.938324  0  0  0.133581  0  0.995998  0  0  0.134204  0  0.996236  0  0  0.095228  0.132966  0  0.996109  0
H  H7  1  0.83764076  0.17108735  0.25940382  1  0  0.110048  0  0.938425  0  0  0.133589  0  0.996111  0  0  0.134213  0  0.996349  0  0  0.095234  0.132975  0  0.996221  0
H  H8  1  0.31318349  0.81736055  0.64779249  1  0  0.105859  0  0.963512  0  0  0.122769  0  1.032054  0  0  0.124265  0  1.031661  0  0  0.091094  0.121769  0  1.032234  0
H  H9  1  0.68682349  0.18263556  0.35220897  1  0  0.105725  0  0.963454  0  0  0.122641  0  1.03201  0  0  0.124137  0  1.031616  0  0  0.091019  0.121642  0  1.03219  0
H  H10  1  0.20453362  0.69890696  0.67474462  1  0  0.119176  0  0.945463  0  0  0.142143  0  1.002473  0  0  0.14323  0  1.002828  0  0  0.097168  0.141435  0  1.002128  0
H  H11  1  0.79546954  0.30109130  0.32525378  1  0  0.119251  0  0.945472  0  0  0.142237  0  1.002446  0  0  0.143325  0  1.0028  0  0  0.097205  0.141529  0  1.002102  0
H  H12  1  0.67146214  0.43563420  0.45657402  1  0  0.102976  0  0.944336  0  0  0.114361  0  1.001739  0  0  0.118433  0  0.998665  0  0  0.102904  0.111256  0  1.004591  0
H  H13  1  0.32853951  0.56436934  0.54342542  1  0  0.102857  0  0.944275  0  0  0.114284  0  1.001655  0  0  0.118355  0  0.998582  0  0  0.102869  0.111179  0  1.004505  0
H  H14  1  0.30603512  0.16732700  0.37221776  1  0  0.104586  0  0.996752  0  0  0.110364  0  1.066713  0  0  0.112684  0  1.066437  0  0  0.115045  0.108605  0  1.067288  0
H  H15  1  0.69397893  0.83267010  0.62778264  1  0  0.104577  0  0.996609  0  0  0.110344  0  1.066594  0  0  0.112662  0  1.06632  0  0  0.11508  0.108594  0  1.067158  0
H  H16  1  0.80949295  0.93162118  0.75837133  1  0  0.120954  0  0.955191  0  0  0.129642  0  1.013201  0  0  0.132321  0  1.0122  0  0  0.122  0.127747  0  1.013933  0
H  H17  1  0.19050625  0.06838345  0.24162590  1  0  0.120931  0  0.955214  0  0  0.129621  0  1.013227  0  0  0.132299  0  1.012226  0  0  0.121989  0.127726  0  1.01396  0
H  H18  1  0.24781523  0.47999568  0.86271259  1  0  0.102692  0  0.959414  0  0  0.11249  0  1.024184  0  0  0.115901  0  1.022192  0  0  0.102382  0.110169  0  1.025191  0
H  H19  1  0.75217687  0.51999739  0.13729135  1  0  0.102794  0  0.959228  0  0  0.112568  0  1.024021  0  0  0.11598  0  1.022026  0  0  0.102423  0.110255  0  1.025032  0
H  H20  1  0.01413602  0.16791726  0.96508451  1  0  0.114122  0  0.930015  0  0  0.125002  0  0.984674  0  0  0.129197  0  0.981439  0  0  0.11026  0.122241  0  0.986628  0
H  H21  1  0.98585714  0.83207580  0.03492005  1  0  0.114123  0  0.929969  0  0  0.124989  0  0.984633  0  0  0.129183  0  0.981403  0  0  0.110226  0.12223  0  0.986587  0
H  H22  1  0.83406832  0.30878362  0.07197998  1  0  0.088266  0  0.954577  0  0  0.100897  0  1.013323  0  0  0.103596  0  1.01308  0  0  0.098784  0.099369  0  1.012647  0
H  H23  1  0.16592589  0.69120943  0.92802373  1  0  0.08832  0  0.954554  0  0  0.100896  0  1.013362  0  0  0.103591  0  1.013117  0  0  0.098776  0.099366  0  1.012685  0
H  H24  1  0.82562399  0.64568384  0.85674725  1  0  0.117227  0  0.971654  0  0  0.127769  0  1.028838  0  0  0.129578  0  1.029664  0  0  0.124141  0.126416  0  1.0285  0
H  H25  1  0.17437610  0.35431762  0.14324848  1  0  0.117201  0  0.971634  0  0  0.127761  0  1.028791  0  0  0.129568  0  1.029623  0  0  0.124137  0.126408  0  1.02845  0
H  H26  1  0.02786887  0.23491809  0.39764223  1  0  0.111433  0  0.945901  0  0  0.123093  0  1.005413  0  0  0.125512  0  1.005443  0  0  0.109869  0.121188  0  1.00572  0
H  H27  1  0.97213956  0.76508013  0.60235558  1  0  0.111467  0  0.945936  0  0  0.123127  0  1.00544  0  0  0.125549  0  1.005466  0  0  0.109877  0.121221  0  1.005746  0
H  H28  1  0.38469010  0.90269854  0.87143908  1  0  0.115685  0  0.948152  0  0  0.124604  0  1.00971  0  0  0.127876  0  1.005545  0  0  0.139743  0.121948  0  1.013164  0
H  H29  1  0.61530976  0.09730397  0.12856157  1  0  0.115718  0  0.948112  0  0  0.124642  0  1.009655  0  0  0.127911  0  1.005491  0  0  0.139745  0.121985  0  1.01311  0
H  H30  1  0.74382868  0.47178349  0.78224263  1  0  0.120291  0  0.938907  0  0  0.141987  0  0.999194  0  0  0.142436  0  1.000551  0  0  0.096841  0.141534  0  0.998272  0
H  H31  1  0.25616742  0.52821378  0.21775757  1  0  0.120347  0  0.938882  0  0  0.142055  0  0.999145  0  0  0.142505  0  1.000499  0  0  0.096868  0.141599  0  0.998227  0
H  H32  1  0.59336121  0.62102313  0.73358497  1  0  0.102722  0  0.961466  0  0  0.122778  0  1.025378  0  0  0.124075  0  1.025491  0  0  0.088775  0.121774  0  1.025408  0
H  H33  1  0.40663799  0.37897412  0.26641045  1  0  0.102691  0  0.961376  0  0  0.122751  0  1.025296  0  0  0.124047  0  1.025408  0  0  0.088773  0.121747  0  1.025327  0
H  H34  1  0.58155775  0.44684526  0.75630566  1  0  0.129956  0  0.939963  0  0  0.153876  0  0.992469  0  0  0.155071  0  0.992535  0  0  0.101197  0.152782  0  0.992805  0
H  H35  1  0.41843806  0.55315306  0.24369578  1  0  0.129968  0  0.939914  0  0  0.153895  0  0.992407  0  0  0.155088  0  0.992478  0  0  0.101218  0.152803  0  0.992744  0
H  H36  1  0.49159111  0.24399035  0.46963132  1  0  0.111587  0  0.950672  0  0  0.123155  0  1.007204  0  0  0.125905  0  1.005626  0  0  0.12175  0.1214  0  1.008004  0
H  H37  1  0.50842044  0.75600466  0.53037284  1  0  0.111659  0  0.950672  0  0  0.123262  0  1.007162  0  0  0.126012  0  1.005583  0  0  0.121802  0.121506  0  1.007962  0
H  H38  1  0.97959216  0.30080256  0.69466237  1  0  0.106616  0  0.951028  0  0  0.113862  0  1.018911  0  0  0.117734  0  1.015879  0  0  0.1029  0.111133  0  1.020929  0
H  H39  1  0.02041243  0.69920519  0.30533345  1  0  0.106606  0  0.950984  0  0  0.113822  0  1.0189  0  0  0.117693  0  1.015871  0  0  0.102886  0.111093  0  1.02092  0
H  H40  1  0.21193985  0.05624363  0.70049384  1  0  0.111602  0  0.946756  0  0  0.122006  0  1.006562  0  0  0.124607  0  1.003366  0  0  0.142248  0.119995  0  1.009099  0
H  H41  1  0.78805739  0.94376418  0.29950428  1  0  0.111642  0  0.946715  0  0  0.122052  0  1.006508  0  0  0.124651  0  1.003313  0  0  0.142279  0.120043  0  1.009043  0
C  C42  1  0.48481949  0.60980155  0.04073101  1  0  -0.180899  0  3.706934  0  0  -0.21048  0  3.963919  0  0  -0.214262  0  3.984164  0  0  -0.082079  -0.207283  0  3.94862  0
C  C43  1  0.51517517  0.39020418  0.95926573  1  0  -0.180802  0  3.706956  0  0  -0.210391  0  3.963924  0  0  -0.214167  0  3.984165  0  0  -0.082013  -0.20719  0  3.94862  0
C  C44  1  0.84927360  0.52918454  0.41484768  1  0  -0.120808  0  3.758434  0  0  -0.139846  0  4.010021  0  0  -0.14279  0  4.031474  0  0  -0.096675  -0.137033  0  3.994965  0
C  C45  1  0.15072407  0.47081799  0.58514731  1  0  -0.120772  0  3.758547  0  0  -0.139782  0  4.010109  0  0  -0.142731  0  4.031557  0  0  -0.096626  -0.136968  0  3.995047  0
C  C46  1  0.20097676  0.80827185  0.66504578  1  0  -0.327287  0  3.72468  0  0  -0.410283  0  3.961081  0  0  -0.411595  0  3.97054  0  0  -0.234924  -0.409173  0  3.954489  0
C  C47  1  0.79902791  0.19172850  0.33495339  1  0  -0.327218  0  3.72474  0  0  -0.410247  0  3.9611  0  0  -0.411557  0  3.970556  0  0  -0.234854  -0.409138  0  3.954509  0
C  C48  1  0.09950491  0.90874978  0.58040794  1  0  0.095434  0  3.728103  0  0  0.116696  0  3.969968  0  0  0.116011  0  3.994148  0  0  -0.000443  0.117222  0  3.953439  0
C  C49  1  0.90050473  0.09125158  0.41959040  1  0  0.09534  0  3.728145  0  0  0.116675  0  3.969946  0  0  0.115988  0  3.994127  0  0  -0.000499  0.117203  0  3.953415  0
C  C50  1  0.77177432  0.44131589  0.48059792  1  0  -0.08002  0  3.760411  0  0  -0.103782  0  4.011694  0  0  -0.104216  0  4.031299  0  0  -0.092873  -0.103678  0  3.998406  0
C  C51  1  0.22822335  0.55868665  0.51939781  1  0  -0.079925  0  3.760474  0  0  -0.1037  0  4.011785  0  0  -0.104138  0  4.031401  0  0  -0.092824  -0.103593  0  3.998492  0
C  C52  1  0.25101825  0.22817630  0.84883744  1  0  0.630297  0  3.932326  0  0  0.584468  0  4.221941  0  0  0.618154  0  4.214806  0  0  0.199229  0.561428  0  4.226487  0
C  C53  1  0.74897048  0.77182103  0.15116433  1  0  0.630352  0  3.932145  0  0  0.584609  0  4.221652  0  0  0.618264  0  4.21455  0  0  0.199286  0.56157  0  4.226207  0
C  C54  1  0.31596526  0.15631707  0.45333728  1  0  -0.057599  0  3.655839  0  0  -0.096602  0  3.915486  0  0  -0.09512  0  3.934215  0  0  0.000881  -0.097707  0  3.903753  0
C  C55  1  0.68404076  0.84368222  0.54666053  1  0  -0.057476  0  3.6556  0  0  -0.096457  0  3.915268  0  0  -0.094972  0  3.933999  0  0  0.00091  -0.09757  0  3.903523  0
C  C56  1  0.14199692  0.31640783  0.90950313  1  0  -0.058152  0  3.7721  0  0  -0.036291  0  4.008475  0  0  -0.043873  0  4.032003  0  0  -0.020086  -0.031447  0  3.992727  0
C  C57  1  0.85799341  0.68358420  0.09050349  1  0  -0.05785  0  3.771458  0  0  -0.03606  0  4.00786  0  0  -0.04363  0  4.031391  0  0  -0.020038  -0.031212  0  3.992118  0
C  C58  1  0.72468092  0.88050279  0.79424676  1  0  0.003119  0  3.730752  0  0  -0.028321  0  3.992115  0  0  -0.026201  0  4.010275  0  0  0.002599  -0.029683  0  3.98  0
C  C59  1  0.27531503  0.11949869  0.20575460  1  0  0.003153  0  3.730555  0  0  -0.028298  0  3.991918  0  0  -0.026178  0  4.010078  0  0  0.002601  -0.029659  0  3.979805  0
C  C60  1  0.15711206  0.44387291  0.90909905  1  0  -0.119112  0  3.720612  0  0  -0.154011  0  3.975646  0  0  -0.153393  0  3.993721  0  0  -0.087098  -0.154268  0  3.962762  0
C  C61  1  0.84287929  0.55611912  0.09090525  1  0  -0.119315  0  3.720389  0  0  -0.15418  0  3.975429  0  0  -0.153563  0  3.993504  0  0  -0.087139  -0.154453  0  3.962561  0
C  C62  1  0.82025499  0.35704910  0.58193922  1  0  -0.062146  0  3.779698  0  0  -0.038172  0  4.012813  0  0  -0.045399  0  4.036569  0  0  -0.022959  -0.033266  0  3.995828  0
C  C63  1  0.17974700  0.64295338  0.41806266  1  0  -0.062059  0  3.779783  0  0  -0.03818  0  4.013066  0  0  -0.045407  0  4.036821  0  0  -0.023024  -0.033276  0  3.996082  0
C  C64  1  0.02388238  0.26755708  0.96816554  1  0  -0.065896  0  3.742536  0  0  -0.088696  0  3.988422  0  0  -0.089126  0  4.00925  0  0  -0.080728  -0.088507  0  3.974372  0
C  C65  1  0.97610837  0.73243706  0.03183902  1  0  -0.06599  0  3.742425  0  0  -0.088746  0  3.988298  0  0  -0.089177  0  4.009126  0  0  -0.080746  -0.08856  0  3.974249  0
C  C66  1  0.92580302  0.34507919  0.02713290  1  0  -0.11891  0  3.755221  0  0  -0.137608  0  4.006531  0  0  -0.141311  0  4.028842  0  0  -0.091109  -0.134994  0  3.990726  0
C  C67  1  0.07419015  0.65491387  0.97287240  1  0  -0.119086  0  3.755341  0  0  -0.137749  0  4.006642  0  0  -0.141445  0  4.028947  0  0  -0.091171  -0.135132  0  3.990837  0
C  C68  1  0.73361189  0.74061994  0.84258714  1  0  -0.051839  0  3.657395  0  0  -0.092048  0  3.914545  0  0  -0.091028  0  3.934171  0  0  0.006254  -0.092782  0  3.901698  0
C  C69  1  0.26638792  0.25938257  0.15740982  1  0  -0.051806  0  3.657244  0  0  -0.092024  0  3.914406  0  0  -0.091003  0  3.93403  0  0  0.006291  -0.092755  0  3.901558  0
C  C70  1  0.01620427  0.13023572  0.44062372  1  0  -0.180388  0  3.727763  0  0  -0.210134  0  3.981983  0  0  -0.214195  0  4.004063  0  0  -0.083067  -0.20766  0  3.967464  0
C  C71  1  0.98380597  0.86976353  0.55937435  1  0  -0.180549  0  3.727811  0  0  -0.210278  0  3.982066  0  0  -0.214336  0  4.004136  0  0  -0.083131  -0.207805  0  3.967552  0
C  C72  1  0.73747217  0.25892270  0.65281838  1  0  0.624615  0  3.957733  0  0  0.578153  0  4.250961  0  0  0.611288  0  4.244554  0  0  0.191203  0.555685  0  4.254473  0
C  C73  1  0.26253724  0.74107971  0.34718562  1  0  0.624479  0  3.957649  0  0  0.577981  0  4.250987  0  0  0.611117  0  4.244577  0  0  0.191122  0.555514  0  4.254498  0
C  C74  1  0.50217072  0.87171719  0.85287425  1  0  0.169342  0  3.62901  0  0  0.105846  0  3.889756  0  0  0.119812  0  3.901531  0  0  0.147887  0.096598  0  3.881927  0
C  C75  1  0.49783125  0.12828530  0.14712616  1  0  0.169342  0  3.628978  0  0  0.105839  0  3.889714  0  0  0.119807  0  3.90149  0  0  0.147934  0.096592  0  3.881888  0
C  C76  1  0.62320454  0.51225450  0.78627503  1  0  -0.332718  0  3.717049  0  0  -0.414161  0  3.951036  0  0  -0.416197  0  3.961334  0  0  -0.238124  -0.41248  0  3.944318  0
C  C77  1  0.37679032  0.48774700  0.21372349  1  0  -0.332796  0  3.716866  0  0  -0.414253  0  3.950921  0  0  -0.416289  0  3.961215  0  0  -0.238179  -0.412574  0  3.944212  0
C  C78  1  0.54618870  0.61475489  0.93986963  1  0  0.109956  0  3.765979  0  0  0.093451  0  4.023601  0  0  0.09662  0  4.047755  0  0  0.088503  0.091602  0  4.00603  0
C  C79  1  0.45380734  0.38524977  0.06012796  1  0  0.109936  0  3.765913  0  0  0.093429  0  4.023553  0  0  0.096597  0  4.047706  0  0  0.088475  0.091578  0  4.005983  0
C  C80  1  0.97629269  0.54128944  0.44821193  1  0  0.053363  0  3.791931  0  0  0.070046  0  4.020248  0  0  0.069832  0  4.044208  0  0  -0.013215  0.06975  0  4.004146  0
C  C81  1  0.02371188  0.45871832  0.55178167  1  0  0.053161  0  3.792198  0  0  0.06987  0  4.020498  0  0  0.069668  0  4.044441  0  0  -0.013304  0.069576  0  4.004394  0
C  C82  1  0.11344844  0.04203327  0.51847836  1  0  0.126345  0  3.744974  0  0  0.111176  0  3.994158  0  0  0.115012  0  4.017502  0  0  0.095204  0.10845  0  3.977925  0
C  C83  1  0.88655937  0.95796706  0.48151898  1  0  0.126411  0  3.744915  0  0  0.111204  0  3.994093  0  0  0.115041  0  4.017439  0  0  0.095261  0.108477  0  3.977857  0
C  C84  1  0.40703304  0.19156664  0.50184758  1  0  0.011899  0  3.736851  0  0  -0.025455  0  4.005194  0  0  -0.023738  0  4.025144  0  0  0.001907  -0.027195  0  3.992358  0
C  C85  1  0.59297756  0.80843154  0.49815441  1  0  0.011581  0  3.73713  0  0  -0.025804  0  4.005512  0  0  -0.024087  0  4.02546  0  0  0.001707  -0.027541  0  3.992677  0
C  C86  1  0.94393386  0.36632749  0.61642388  1  0  -0.124631  0  3.713588  0  0  -0.156172  0  3.963371  0  0  -0.156264  0  3.981932  0  0  -0.085689  -0.154847  0  3.949534  0
C  C87  1  0.05606778  0.63367606  0.38357483  1  0  -0.124733  0  3.713554  0  0  -0.156203  0  3.963374  0  0  -0.156295  0  3.981943  0  0  -0.085678  -0.154878  0  3.94954  0
C  C88  1  0.26721936  0.09153295  0.62518832  1  0  0.174549  0  3.637151  0  0  0.110396  0  3.905781  0  0  0.123954  0  3.91894  0  0  0.151131  0.101159  0  3.897148  0
C  C89  1  0.73278094  0.90847166  0.37481248  1  0  0.174587  0  3.636751  0  0  0.110449  0  3.905389  0  0  0.124011  0  3.918546  0  0  0.151174  0.101211  0  3.896759  0
C  C90  1  0.05886358  0.52556914  0.96937888  1  0  0.036848  0  3.819133  0  0  0.053476  0  4.051561  0  0  0.053616  0  4.073989  0  0  -0.015448  0.053168  0  4.036954  0
C  C91  1  0.94112893  0.47442605  0.03062300  1  0  0.036659  0  3.819301  0  0  0.053291  0  4.051727  0  0  0.053428  0  4.074159  0  0  -0.015618  0.052985  0  4.037124  0
C  C92  1  0.56270395  0.50584529  0.89604644  1  0  0.092672  0  3.745946  0  0  0.111557  0  3.993497  0  0  0.111365  0  4.017433  0  0  -0.004197  0.111538  0  3.976484  0
C  C93  1  0.43729102  0.49415937  0.10395052  1  0  0.092806  0  3.745769  0  0  0.111672  0  3.993347  0  0  0.111481  0  4.017282  0  0  -0.004141  0.111652  0  3.976337  0
N  N94  1  0.57983486  0.96037855  0.80035042  1  0  -0.3725  0  3.323719  0  0  -0.292611  0  3.625798  0  0  -0.311773  0  3.635971  0  0  -0.356475  -0.279677  0  3.618895  0
N  N95  1  0.42016575  0.03962500  0.19964988  1  0  -0.372536  0  3.323675  0  0  -0.292624  0  3.625734  0  0  -0.311789  0  3.63591  0  0  -0.356491  -0.279692  0  3.618833  0
N  N96  1  0.59199448  0.73670931  0.87993524  1  0  -0.088283  0  3.614861  0  0  0.004248  0  3.827461  0  0  -0.010565  0  3.853976  0  0  -0.224949  0.01412  0  3.809385  0
N  N97  1  0.40800534  0.26329320  0.12006246  1  0  -0.088305  0  3.614943  0  0  0.004223  0  3.827557  0  0  -0.010591  0  3.854072  0  0  -0.22498  0.014096  0  3.809482  0
N  N98  1  0.22832338  0.09183687  0.53264882  1  0  -0.084387  0  3.602332  0  0  0.007703  0  3.811559  0  0  -0.007229  0  3.838003  0  0  -0.222954  0.017877  0  3.79336  0
N  N99  1  0.77168099  0.90816455  0.46735011  1  0  -0.084372  0  3.602163  0  0  0.00772  0  3.811402  0  0  -0.007215  0  3.837849  0  0  -0.222978  0.017896  0  3.793201  0
N  N100  1  0.37558362  0.15032075  0.60849434  1  0  -0.380686  0  3.327057  0  0  -0.302568  0  3.628551  0  0  -0.322713  0  3.643195  0  0  -0.355806  -0.288606  0  3.618802  0
N  N101  1  0.62441971  0.84968067  0.39150618  1  0  -0.380615  0  3.326709  0  0  -0.302537  0  3.628247  0  0  -0.322683  0  3.64289  0  0  -0.355799  -0.288577  0  3.618502  0
O  O102  1  0.78583145  0.17564932  0.73830819  1  0  -0.614317  0  1.870155  0  0  -0.572453  0  2.076736  0  0  -0.593324  0  2.067602  0  0  -0.339048  -0.558082  0  2.08266  0
O  O103  1  0.21418302  0.82434989  0.26169014  1  0  -0.61424  0  1.87025  0  0  -0.572348  0  2.076857  0  0  -0.593219  0  2.067721  0  0  -0.338964  -0.557977  0  2.082781  0
O  O104  1  0.36235717  0.27516796  0.80476941  1  0  -0.651347  0  2.040287  0  0  -0.578169  0  2.311162  0  0  -0.605871  0  2.294462  0  0  -0.337664  -0.558899  0  2.32211  0
O  O105  1  0.63763335  0.72483041  0.19523115  1  0  -0.65147  0  2.040405  0  0  -0.578323  0  2.311276  0  0  -0.606002  0  2.29456  0  0  -0.337686  -0.559043  0  2.32221  0
O  O106  1  0.23064091  0.11854929  0.84278838  1  0  -0.617605  0  1.916734  0  0  -0.573493  0  2.133396  0  0  -0.595668  0  2.123218  0  0  -0.323648  -0.55812  0  2.140122  0
O  O107  1  0.76934939  0.88144275  0.15721604  1  0  -0.617659  0  1.916711  0  0  -0.573575  0  2.133336  0  0  -0.595738  0  2.123167  0  0  -0.323699  -0.558202  0  2.140063  0
O  O108  1  0.61317877  0.27095416  0.61780675  1  0  -0.661209  0  2.031513  0  0  -0.585977  0  2.302739  0  0  -0.614358  0  2.286581  0  0  -0.346479  -0.565991  0  2.312983  0
O  O109  1  0.38682200  0.72904936  0.38220460  1  0  -0.661138  0  2.031338  0  0  -0.585881  0  2.302584  0  0  -0.614263  0  2.286426  0  0  -0.346441  -0.565896  0  2.312826  0
