# generated using pymatgen
data_ZnH10C18(NO2)2
_symmetry_space_group_name_H-M   'P 1'
_cell_length_a   7.47870789
_cell_length_b   13.04041774
_cell_length_c   16.73050764
_cell_angle_alpha   102.46008996
_cell_angle_beta   90.00021534
_cell_angle_gamma   90.00034688
_symmetry_Int_Tables_number   1
_chemical_formula_structural   ZnH10C18(NO2)2
_chemical_formula_sum   'Zn4 H40 C72 N8 O16'
_cell_volume   1593.21967666
_cell_formula_units_Z   4
loop_
 _symmetry_equiv_pos_site_id
 _symmetry_equiv_pos_as_xyz
  1  'x, y, z'
loop_
 _atom_site_type_symbol
 _atom_site_label
 _atom_site_symmetry_multiplicity
 _atom_site_fract_x
 _atom_site_fract_y
 _atom_site_fract_z
 _atom_site_occupancy
 _atom_site_hle17_bader_spin_density
 _atom_site_hle17_ddec_charge
 _atom_site_hle17_ddec_spin_density
 _atom_site_hle17_ddec_sum_bond_order
 _atom_site_hle17_magmom
 _atom_site_hse06_10hf_bader_spin_density
 _atom_site_hse06_10hf_ddec_charge
 _atom_site_hse06_10hf_ddec_spin_density
 _atom_site_hse06_10hf_ddec_sum_bond_order
 _atom_site_hse06_10hf_magmom
 _atom_site_hse06_bader_spin_density
 _atom_site_hse06_ddec_charge
 _atom_site_hse06_ddec_spin_density
 _atom_site_hse06_ddec_sum_bond_order
 _atom_site_hse06_magmom
 _atom_site_pbe_bader_spin_density
 _atom_site_pbe_cm5_charge
 _atom_site_pbe_ddec_charge
 _atom_site_pbe_ddec_spin_density
 _atom_site_pbe_ddec_sum_bond_order
 _atom_site_pbe_magmom
Zn  Zn0  1  0.53546825  0.93422121  0.76281358  1  0  1.050275  0  1.790601  0  0  0.863869  0  2.254594  0  0  0.913708  0  2.197639  0  0  0.702205  0.829033  0  2.293864  0
Zn  Zn1  1  0.03544940  0.06577071  0.73717757  1  0  1.05037  0  1.790493  0  0  0.863937  0  2.254465  0  0  0.913778  0  2.197515  0  0  0.702268  0.829098  0  2.293729  0
Zn  Zn2  1  0.46455084  0.06577539  0.23718599  1  0  1.050328  0  1.790554  0  0  0.863896  0  2.254547  0  0  0.913738  0  2.197593  0  0  0.702203  0.829047  0  2.293807  0
Zn  Zn3  1  0.96453359  0.93422512  0.26281530  1  0  1.050268  0  1.790588  0  0  0.863882  0  2.254565  0  0  0.913721  0  2.197613  0  0  0.702223  0.82904  0  2.293824  0
H  H4  1  0.40460769  0.09827576  0.92069937  1  0  0.083073  0  0.926633  0  0  0.091602  0  0.987835  0  0  0.093822  0  0.985916  0  0  0.119275  0.089912  0  0.989361  0
H  H5  1  0.90455112  0.90172161  0.57929810  1  0  0.083008  0  0.926451  0  0  0.091517  0  0.987688  0  0  0.093732  0  0.985762  0  0  0.11921  0.089817  0  0.98922  0
H  H6  1  0.59544216  0.90172554  0.07930518  1  0  0.083084  0  0.92664  0  0  0.091592  0  0.987884  0  0  0.093802  0  0.985957  0  0  0.119268  0.089897  0  0.989408  0
H  H7  1  0.09541314  0.09828284  0.42070400  1  0  0.083057  0  0.926477  0  0  0.091579  0  0.98772  0  0  0.0938  0  0.985798  0  0  0.119221  0.08988  0  0.989247  0
H  H8  1  0.21979400  0.09366476  0.04480543  1  0  0.101336  0  0.968613  0  0  0.11041  0  1.030876  0  0  0.113352  0  1.029709  0  0  0.106171  0.1083  0  1.031869  0
H  H9  1  0.71973661  0.90634104  0.45518918  1  0  0.101159  0  0.968554  0  0  0.110228  0  1.030829  0  0  0.113162  0  1.029675  0  0  0.10607  0.108117  0  1.031815  0
H  H10  1  0.78026253  0.90633733  0.95519747  1  0  0.101317  0  0.968484  0  0  0.110367  0  1.030766  0  0  0.113309  0  1.029608  0  0  0.106154  0.108262  0  1.031751  0
H  H11  1  0.28023969  0.09366657  0.54480689  1  0  0.101314  0  0.968491  0  0  0.110366  0  1.03076  0  0  0.113311  0  1.029595  0  0  0.106129  0.108253  0  1.03175  0
H  H12  1  0.10515697  0.92093827  0.06507507  1  0  0.115039  0  0.970763  0  0  0.12323  0  1.030017  0  0  0.12637  0  1.02818  0  0  0.109775  0.120866  0  1.031454  0
H  H13  1  0.60511479  0.07907567  0.43492611  1  0  0.114978  0  0.970736  0  0  0.123277  0  1.029848  0  0  0.126415  0  1.028011  0  0  0.109713  0.120924  0  1.031283  0
H  H14  1  0.89488485  0.07907089  0.93492903  1  0  0.115052  0  0.97067  0  0  0.123292  0  1.029856  0  0  0.126429  0  1.028021  0  0  0.109766  0.120971  0  1.031254  0
H  H15  1  0.39485884  0.92093429  0.56507334  1  0  0.114923  0  0.970846  0  0  0.123147  0  1.030084  0  0  0.126287  0  1.028246  0  0  0.109737  0.120819  0  1.03148  0
H  H16  1  0.17074740  0.75959784  0.95937733  1  0  0.114033  0  0.956923  0  0  0.123618  0  1.017242  0  0  0.126683  0  1.016523  0  0  0.106806  0.121424  0  1.017883  0
H  H17  1  0.67073035  0.24040955  0.54062504  1  0  0.114048  0  0.957034  0  0  0.12367  0  1.017296  0  0  0.126737  0  1.016578  0  0  0.106844  0.121466  0  1.017932  0
H  H18  1  0.82926768  0.24040582  0.04062643  1  0  0.114071  0  0.957051  0  0  0.123639  0  1.017385  0  0  0.126703  0  1.016665  0  0  0.106881  0.121447  0  1.018021  0
H  H19  1  0.32924194  0.75959805  0.45937700  1  0  0.113947  0  0.957048  0  0  0.123616  0  1.017252  0  0  0.126681  0  1.016532  0  0  0.106814  0.121419  0  1.017892  0
H  H20  1  0.30438705  0.62349734  0.87225646  1  0  0.115392  0  0.937575  0  0  0.128517  0  0.992514  0  0  0.132056  0  0.990874  0  0  0.11349  0.125975  0  0.993826  0
H  H21  1  0.80438286  0.37650745  0.62774629  1  0  0.11537  0  0.937598  0  0  0.128498  0  0.992531  0  0  0.132037  0  0.990889  0  0  0.113477  0.125952  0  0.993838  0
H  H22  1  0.69561332  0.37650633  0.12774551  1  0  0.11541  0  0.937559  0  0  0.12852  0  0.992512  0  0  0.13206  0  0.99087  0  0  0.113502  0.125978  0  0.99383  0
H  H23  1  0.19559477  0.62350406  0.37226000  1  0  0.115228  0  0.937626  0  0  0.128327  0  0.992594  0  0  0.131866  0  0.990954  0  0  0.113465  0.125785  0  0.9939  0
H  H24  1  0.50217514  0.55164898  0.62279671  1  0  0.122224  0  0.933803  0  0  0.131556  0  0.993564  0  0  0.135998  0  0.990527  0  0  0.113483  0.128308  0  0.995928  0
H  H25  1  0.00219090  0.44833963  0.87720697  1  0  0.122266  0  0.933821  0  0  0.131603  0  0.993572  0  0  0.13604  0  0.990529  0  0  0.113519  0.12836  0  0.995942  0
H  H26  1  0.49781453  0.44834841  0.37720479  1  0  0.122266  0  0.933814  0  0  0.131616  0  0.993555  0  0  0.136051  0  0.990515  0  0  0.113516  0.12837  0  0.995917  0
H  H27  1  0.99781080  0.55165068  0.12279452  1  0  0.122283  0  0.933848  0  0  0.131624  0  0.993589  0  0  0.136061  0  0.990548  0  0  0.113534  0.128382  0  0.995959  0
H  H28  1  0.29701331  0.41423755  0.62320888  1  0  0.101744  0  0.942616  0  0  0.115284  0  0.997419  0  0  0.118509  0  0.995475  0  0  0.10696  0.112995  0  0.998826  0
H  H29  1  0.79707759  0.58576089  0.87680653  1  0  0.101677  0  0.942632  0  0  0.115277  0  0.997404  0  0  0.118489  0  0.995464  0  0  0.106901  0.11299  0  0.99882  0
H  H30  1  0.70295363  0.58576687  0.37680577  1  0  0.101799  0  0.942493  0  0  0.115373  0  0.99728  0  0  0.11859  0  0.995336  0  0  0.106945  0.113084  0  0.998689  0
H  H31  1  0.20297091  0.41423568  0.12320141  1  0  0.101763  0  0.942657  0  0  0.115387  0  0.997366  0  0  0.118611  0  0.995428  0  0  0.106916  0.113098  0  0.998786  0
H  H32  1  0.29628090  0.22531003  0.62071235  1  0  0.098244  0  0.963506  0  0  0.109083  0  1.024457  0  0  0.112428  0  1.022007  0  0  0.105913  0.10662  0  1.026347  0
H  H33  1  0.79632847  0.77469079  0.87929569  1  0  0.098238  0  0.96371  0  0  0.109122  0  1.024578  0  0  0.112468  0  1.022127  0  0  0.10593  0.106623  0  1.026523  0
H  H34  1  0.70368470  0.77469519  0.37929586  1  0  0.098146  0  0.963746  0  0  0.109052  0  1.024603  0  0  0.112399  0  1.02215  0  0  0.105899  0.10657  0  1.026519  0
H  H35  1  0.20371068  0.22531052  0.12070887  1  0  0.098176  0  0.96372  0  0  0.109048  0  1.024624  0  0  0.112393  0  1.022176  0  0  0.105923  0.106591  0  1.026521  0
H  H36  1  0.52232127  0.28411039  0.86290879  1  0  0.10552  0  0.925611  0  0  0.118725  0  0.978949  0  0  0.121916  0  0.977394  0  0  0.110065  0.116426  0  0.980111  0
H  H37  1  0.02228167  0.71588305  0.63708439  1  0  0.1056  0  0.925524  0  0  0.118801  0  0.978856  0  0  0.12199  0  0.977303  0  0  0.110102  0.116496  0  0.980007  0
H  H38  1  0.47768846  0.71588621  0.13709198  1  0  0.105505  0  0.925638  0  0  0.118735  0  0.978944  0  0  0.121926  0  0.977391  0  0  0.110046  0.116432  0  0.980101  0
H  H39  1  0.97768527  0.28410651  0.36290383  1  0  0.105437  0  0.925829  0  0  0.118671  0  0.979122  0  0  0.12186  0  0.977571  0  0  0.110019  0.11637  0  0.980272  0
H  H40  1  0.50405578  0.47628571  0.86995647  1  0  0.091125  0  0.943856  0  0  0.105234  0  0.998412  0  0  0.108241  0  0.99707  0  0  0.102988  0.103063  0  0.999486  0
H  H41  1  0.00404486  0.52370685  0.63004190  1  0  0.091136  0  0.94388  0  0  0.105294  0  0.998373  0  0  0.108269  0  0.997069  0  0  0.103053  0.103118  0  0.99944  0
H  H42  1  0.49594726  0.52370930  0.13005000  1  0  0.091229  0  0.943849  0  0  0.105311  0  0.998421  0  0  0.108309  0  0.99709  0  0  0.103064  0.103139  0  0.999496  0
H  H43  1  0.99594347  0.47628348  0.36995362  1  0  0.091199  0  0.943829  0  0  0.105269  0  0.998425  0  0  0.108258  0  0.997104  0  0  0.102986  0.103095  0  0.999492  0
C  C44  1  0.35199933  0.02487820  0.93188406  1  0  0.168427  0  3.703328  0  0  0.13357  0  3.963216  0  0  0.142565  0  3.978968  0  0  0.060433  0.127643  0  3.952579  0
C  C45  1  0.85195146  0.97512210  0.56811203  1  0  0.168514  0  3.703034  0  0  0.133663  0  3.962885  0  0  0.142671  0  3.978614  0  0  0.06052  0.127736  0  3.952241  0
C  C46  1  0.64803982  0.97511998  0.06811459  1  0  0.168319  0  3.702944  0  0  0.133419  0  3.962876  0  0  0.142434  0  3.978604  0  0  0.060443  0.127498  0  3.952228  0
C  C47  1  0.14802082  0.02488000  0.43188668  1  0  0.168504  0  3.703343  0  0  0.133601  0  3.963285  0  0  0.142596  0  3.979037  0  0  0.060552  0.127677  0  3.952634  0
C  C48  1  0.25012755  0.02164112  0.00091735  1  0  -0.092897  0  3.699512  0  0  -0.109836  0  3.957102  0  0  -0.116407  0  3.976943  0  0  -0.074146  -0.105668  0  3.943879  0
C  C49  1  0.75009135  0.97836403  0.49907420  1  0  -0.09274  0  3.699211  0  0  -0.109661  0  3.956752  0  0  -0.116229  0  3.976584  0  0  -0.074119  -0.10549  0  3.943516  0
C  C50  1  0.74990625  0.97836099  0.99907837  1  0  -0.092884  0  3.699171  0  0  -0.10979  0  3.956746  0  0  -0.116366  0  3.976584  0  0  -0.074235  -0.105623  0  3.943531  0
C  C51  1  0.24988896  0.02164437  0.50092199  1  0  -0.092985  0  3.699373  0  0  -0.109801  0  3.956886  0  0  -0.116379  0  3.976732  0  0  -0.07414  -0.105631  0  3.94366  0
C  C52  1  0.18672033  0.92555194  0.01204052  1  0  0.008617  0  3.678483  0  0  -0.008098  0  3.924302  0  0  -0.004462  0  3.942342  0  0  -0.061464  -0.010228  0  3.912078  0
C  C53  1  0.68668121  0.07445606  0.48795918  1  0  0.008567  0  3.678613  0  0  -0.008196  0  3.924379  0  0  -0.004564  0  3.942431  0  0  -0.061393  -0.010349  0  3.912146  0
C  C54  1  0.81331213  0.07445565  0.98796151  1  0  0.008633  0  3.678454  0  0  -0.008078  0  3.924195  0  0  -0.004445  0  3.942246  0  0  -0.061372  -0.010241  0  3.911964  0
C  C55  1  0.31329375  0.92555153  0.51204166  1  0  0.008752  0  3.678413  0  0  -0.008028  0  3.924234  0  0  -0.00439  0  3.942273  0  0  -0.061466  -0.010195  0  3.911995  0
C  C56  1  0.22535346  0.83489490  0.95300603  1  0  -0.147864  0  3.695788  0  0  -0.16552  0  3.939552  0  0  -0.173145  0  3.961857  0  0  -0.080374  -0.160641  0  3.92465  0
C  C57  1  0.72532899  0.16510959  0.54699056  1  0  -0.147842  0  3.696263  0  0  -0.165603  0  3.939952  0  0  -0.173232  0  3.962259  0  0  -0.080512  -0.160711  0  3.925042  0
C  C58  1  0.77466563  0.16510956  0.04699309  1  0  -0.147839  0  3.696266  0  0  -0.16558  0  3.939973  0  0  -0.173201  0  3.962274  0  0  -0.080508  -0.16069  0  3.925097  0
C  C59  1  0.27464196  0.83489723  0.45300895  1  0  -0.147786  0  3.695778  0  0  -0.165477  0  3.939539  0  0  -0.173101  0  3.961844  0  0  -0.080347  -0.160597  0  3.924646  0
C  C60  1  0.32764629  0.84403917  0.88520743  1  0  0.167951  0  3.768315  0  0  0.164576  0  4.007806  0  0  0.16963  0  4.030351  0  0  0.115634  0.161272  0  3.99253  0
C  C61  1  0.82762497  0.15596339  0.61478841  1  0  0.167706  0  3.768663  0  0  0.164473  0  4.007912  0  0  0.169525  0  4.030458  0  0  0.115539  0.161156  0  3.992641  0
C  C62  1  0.67237146  0.15596294  0.11479069  1  0  0.167677  0  3.768729  0  0  0.164479  0  4.007899  0  0  0.169532  0  4.030445  0  0  0.115567  0.161144  0  3.992669  0
C  C63  1  0.17234598  0.84404422  0.38520885  1  0  0.167926  0  3.768411  0  0  0.164517  0  4.008037  0  0  0.169569  0  4.030586  0  0  0.115603  0.161204  0  3.992763  0
C  C64  1  0.37206631  0.75439020  0.81729267  1  0  0.20427  0  3.770221  0  0  0.196009  0  4.018337  0  0  0.204413  0  4.036843  0  0  0.127513  0.19031  0  4.005724  0
C  C65  1  0.87205853  0.24560704  0.68270472  1  0  0.204376  0  3.770223  0  0  0.196064  0  4.01826  0  0  0.204469  0  4.036769  0  0  0.127547  0.190374  0  4.005639  0
C  C66  1  0.62794342  0.24560876  0.18270670  1  0  0.204428  0  3.770217  0  0  0.196152  0  4.0182  0  0  0.204556  0  4.036708  0  0  0.127573  0.190461  0  4.005594  0
C  C67  1  0.12791643  0.75439507  0.31729399  1  0  0.20421  0  3.770236  0  0  0.195842  0  4.018471  0  0  0.204247  0  4.036979  0  0  0.127478  0.190152  0  4.005853  0
C  C68  1  0.35436484  0.64798808  0.81814655  1  0  -0.17507  0  3.644178  0  0  -0.202695  0  3.896347  0  0  -0.209487  0  3.915006  0  0  -0.073185  -0.198223  0  3.883776  0
C  C69  1  0.85437154  0.35201378  0.68185339  1  0  -0.175141  0  3.643903  0  0  -0.202751  0  3.896073  0  0  -0.209543  0  3.914729  0  0  -0.073273  -0.198272  0  3.883486  0
C  C70  1  0.64563553  0.35201637  0.18185495  1  0  -0.175159  0  3.643995  0  0  -0.202788  0  3.896155  0  0  -0.209578  0  3.914812  0  0  -0.073278  -0.198319  0  3.883588  0
C  C71  1  0.14561412  0.64798910  0.31814904  1  0  -0.174853  0  3.643823  0  0  -0.202376  0  3.89599  0  0  -0.209164  0  3.914647  0  0  -0.073222  -0.197904  0  3.883412  0
C  C72  1  0.40292735  0.57243610  0.74819042  1  0  0.111362  0  3.759157  0  0  0.118957  0  4.003323  0  0  0.123747  0  4.024969  0  0  0.016089  0.115835  0  3.988493  0
C  C73  1  0.90293811  0.42756517  0.75181309  1  0  0.111484  0  3.759113  0  0  0.119033  0  4.003299  0  0  0.123825  0  4.024944  0  0  0.016208  0.115913  0  3.98847  0
C  C74  1  0.59707837  0.42756756  0.25181274  1  0  0.111526  0  3.759166  0  0  0.119118  0  4.003286  0  0  0.123905  0  4.024935  0  0  0.01617  0.115998  0  3.988451  0
C  C75  1  0.09706761  0.57243614  0.24818728  1  0  0.111363  0  3.759248  0  0  0.118926  0  4.003374  0  0  0.123717  0  4.02502  0  0  0.016187  0.11581  0  3.988535  0
C  C76  1  0.46286005  0.60670670  0.67863406  1  0  -0.153682  0  3.657666  0  0  -0.182728  0  3.907559  0  0  -0.18891  0  3.926902  0  0  -0.071953  -0.178618  0  3.89457  0
C  C77  1  0.96287371  0.39328776  0.82136541  1  0  -0.153723  0  3.657643  0  0  -0.182735  0  3.907563  0  0  -0.188907  0  3.9269  0  0  -0.071933  -0.178635  0  3.894598  0
C  C78  1  0.53714032  0.39329226  0.32136651  1  0  -0.153928  0  3.657643  0  0  -0.182978  0  3.907605  0  0  -0.18915  0  3.926947  0  0  -0.072008  -0.178869  0  3.894616  0
C  C79  1  0.03712934  0.60671041  0.17863383  1  0  -0.153817  0  3.657709  0  0  -0.182823  0  3.90764  0  0  -0.188998  0  3.926981  0  0  -0.071958  -0.178726  0  3.894674  0
C  C80  1  0.48284136  0.71378577  0.68334635  1  0  0.128532  0  3.751052  0  0  0.130011  0  3.990548  0  0  0.133498  0  4.009329  0  0  0.118506  0.127496  0  3.977923  0
C  C81  1  0.98284449  0.28620564  0.81665144  1  0  0.128593  0  3.750421  0  0  0.129947  0  3.990045  0  0  0.13343  0  4.008828  0  0  0.118409  0.127425  0  3.97744  0
C  C82  1  0.51715500  0.28620848  0.31665043  1  0  0.128871  0  3.750812  0  0  0.130217  0  3.990429  0  0  0.133701  0  4.009212  0  0  0.118507  0.127702  0  3.977802  0
C  C83  1  0.01715454  0.71379175  0.18334707  1  0  0.12882  0  3.75071  0  0  0.130149  0  3.990358  0  0  0.133636  0  4.009139  0  0  0.118479  0.127627  0  3.977746  0
C  C84  1  0.56163302  0.76284383  0.61623164  1  0  0.600505  0  3.960097  0  0  0.553763  0  4.258992  0  0  0.585626  0  4.253105  0  0  0.195883  0.532216  0  4.262002  0
C  C85  1  0.06162522  0.23713642  0.88375936  1  0  0.600412  0  3.960554  0  0  0.5537  0  4.259467  0  0  0.585566  0  4.253579  0  0  0.195765  0.532161  0  4.262484  0
C  C86  1  0.43837537  0.23716141  0.38377000  1  0  0.600336  0  3.960265  0  0  0.55365  0  4.259138  0  0  0.585511  0  4.253254  0  0  0.195869  0.532102  0  4.262143  0
C  C87  1  0.93838050  0.76285627  0.11623476  1  0  0.600415  0  3.960117  0  0  0.553702  0  4.259065  0  0  0.585565  0  4.253179  0  0  0.195865  0.53216  0  4.262075  0
C  C88  1  0.39912663  0.45915384  0.74728765  1  0  0.042316  0  3.783184  0  0  0.057726  0  4.017287  0  0  0.057255  0  4.041536  0  0  -0.006487  0.058158  0  4.000724  0
C  C89  1  0.89913457  0.54084427  0.75271711  1  0  0.042282  0  3.78308  0  0  0.057729  0  4.017158  0  0  0.057256  0  4.041401  0  0  -0.006571  0.058159  0  4.000597  0
C  C90  1  0.60086705  0.54085138  0.25272056  1  0  0.042329  0  3.78319  0  0  0.057822  0  4.017169  0  0  0.057353  0  4.041417  0  0  -0.006498  0.058252  0  4.00061  0
C  C91  1  0.10086446  0.45915547  0.24728359  1  0  0.042338  0  3.783086  0  0  0.05781  0  4.017094  0  0  0.057337  0  4.041341  0  0  -0.006551  0.058241  0  4.000534  0
C  C92  1  0.34331685  0.38692465  0.67678372  1  0  -0.103957  0  3.727759  0  0  -0.123935  0  3.977351  0  0  -0.127213  0  3.998288  0  0  -0.084704  -0.12169  0  3.963006  0
C  C93  1  0.84334620  0.61307636  0.82322563  1  0  -0.103874  0  3.72771  0  0  -0.12392  0  3.977295  0  0  -0.127183  0  3.998224  0  0  -0.08466  -0.121683  0  3.962954  0
C  C94  1  0.65667015  0.61307821  0.32322528  1  0  -0.104063  0  3.727928  0  0  -0.124112  0  3.977535  0  0  -0.127383  0  3.998467  0  0  -0.084711  -0.121866  0  3.963185  0
C  C95  1  0.15667556  0.38692652  0.17677860  1  0  -0.104025  0  3.727866  0  0  -0.124087  0  3.977421  0  0  -0.127369  0  3.998366  0  0  -0.084692  -0.121849  0  3.963094  0
C  C96  1  0.34431511  0.28001915  0.67496578  1  0  -0.061319  0  3.73885  0  0  -0.088393  0  3.993281  0  0  -0.088459  0  4.014353  0  0  -0.081844  -0.088131  0  3.97891  0
C  C97  1  0.84433758  0.71998266  0.82504131  1  0  -0.061515  0  3.739054  0  0  -0.08859  0  3.993501  0  0  -0.088658  0  4.014572  0  0  -0.081944  -0.088304  0  3.979162  0
C  C98  1  0.65566386  0.71998293  0.32504309  1  0  -0.061374  0  3.739136  0  0  -0.088439  0  3.993602  0  0  -0.088505  0  4.014672  0  0  -0.081854  -0.088163  0  3.979239  0
C  C99  1  0.15568017  0.28002023  0.17495992  1  0  -0.061303  0  3.738981  0  0  -0.088373  0  3.993449  0  0  -0.088443  0  4.014521  0  0  -0.081805  -0.088121  0  3.979099  0
C  C100  1  0.41033194  0.24205486  0.74146131  1  0  -0.066838  0  3.756411  0  0  -0.043641  0  3.993976  0  0  -0.051685  0  4.01738  0  0  -0.014782  -0.038449  0  3.978254  0
C  C101  1  0.91033687  0.75794174  0.75853843  1  0  -0.066456  0  3.756097  0  0  -0.043338  0  3.993796  0  0  -0.051374  0  4.017187  0  0  -0.014672  -0.03815  0  3.978066  0
C  C102  1  0.58966441  0.75794801  0.25854471  1  0  -0.066434  0  3.755962  0  0  -0.043415  0  3.993796  0  0  -0.051453  0  4.017185  0  0  -0.014788  -0.03822  0  3.978065  0
C  C103  1  0.08967018  0.24205173  0.24145642  1  0  -0.066584  0  3.756192  0  0  -0.043508  0  3.993922  0  0  -0.051541  0  4.017311  0  0  -0.014794  -0.038315  0  3.978197  0
C  C104  1  0.46925857  0.31353271  0.81150524  1  0  -0.054273  0  3.723226  0  0  -0.081093  0  3.976856  0  0  -0.080833  0  3.997455  0  0  -0.079327  -0.081124  0  3.962846  0
C  C105  1  0.96924344  0.68645943  0.68849205  1  0  -0.054465  0  3.723293  0  0  -0.081273  0  3.976978  0  0  -0.081012  0  3.997563  0  0  -0.079446  -0.081293  0  3.962944  0
C  C106  1  0.53074715  0.68646624  0.18849831  1  0  -0.054357  0  3.723012  0  0  -0.081143  0  3.976677  0  0  -0.080886  0  3.997272  0  0  -0.079298  -0.081172  0  3.962659  0
C  C107  1  0.03074356  0.31352698  0.31150041  1  0  -0.054233  0  3.723447  0  0  -0.081041  0  3.977086  0  0  -0.080785  0  3.997678  0  0  -0.079265  -0.081068  0  3.963055  0
C  C108  1  0.45877204  0.42101891  0.81512115  1  0  -0.109065  0  3.735721  0  0  -0.12893  0  3.98705  0  0  -0.132618  0  4.008797  0  0  -0.086377  -0.126434  0  3.97225  0
C  C109  1  0.95876779  0.57897711  0.68487977  1  0  -0.109093  0  3.735802  0  0  -0.128989  0  3.98708  0  0  -0.132652  0  4.008838  0  0  -0.08637  -0.126493  0  3.972271  0
C  C110  1  0.54122565  0.57897847  0.18488094  1  0  -0.109179  0  3.735639  0  0  -0.129043  0  3.986915  0  0  -0.132725  0  4.008663  0  0  -0.086431  -0.12655  0  3.972119  0
C  C111  1  0.04122723  0.42101400  0.31511827  1  0  -0.109164  0  3.735763  0  0  -0.129001  0  3.987026  0  0  -0.132672  0  4.008777  0  0  -0.086358  -0.126505  0  3.972223  0
C  C112  1  0.41704103  0.12624298  0.73625672  1  0  0.66378  0  3.874782  0  0  0.607948  0  4.168138  0  0  0.643691  0  4.159888  0  0  0.218967  0.583591  0  4.17299  0
C  C113  1  0.91704321  0.87375131  0.76373726  1  0  0.663825  0  3.874936  0  0  0.60794  0  4.168395  0  0  0.643681  0  4.160144  0  0  0.219007  0.583587  0  4.173246  0
C  C114  1  0.58295533  0.87375520  0.26374192  1  0  0.66363  0  3.875007  0  0  0.607782  0  4.16847  0  0  0.643524  0  4.16022  0  0  0.218933  0.583423  0  4.173321  0
C  C115  1  0.08295983  0.12624059  0.23625912  1  0  0.663654  0  3.87501  0  0  0.607861  0  4.16837  0  0  0.6436  0  4.160123  0  0  0.218952  0.583502  0  4.173224  0
N  N116  1  0.39037817  0.93829329  0.87568342  1  0  -0.365757  0  3.252487  0  0  -0.295119  0  3.521729  0  0  -0.314201  0  3.537742  0  0  -0.318177  -0.282251  0  3.510825  0
N  N117  1  0.89035460  0.06170325  0.62430971  1  0  -0.365596  0  3.252532  0  0  -0.294997  0  3.521735  0  0  -0.314082  0  3.537753  0  0  -0.318069  -0.282136  0  3.510837  0
N  N118  1  0.60963958  0.06170489  0.12431403  1  0  -0.365575  0  3.252327  0  0  -0.294933  0  3.521474  0  0  -0.314022  0  3.537494  0  0  -0.318069  -0.282049  0  3.510569  0
N  N119  1  0.10962437  0.93830043  0.37568748  1  0  -0.365698  0  3.252673  0  0  -0.29507  0  3.52202  0  0  -0.314155  0  3.538042  0  0  -0.318212  -0.282204  0  3.511109  0
N  N120  1  0.43898015  0.78347824  0.75129786  1  0  -0.38049  0  3.372303  0  0  -0.312908  0  3.636133  0  0  -0.330805  0  3.65055  0  0  -0.329533  -0.300774  0  3.626422  0
N  N121  1  0.93897931  0.21651535  0.74869604  1  0  -0.380516  0  3.372017  0  0  -0.312878  0  3.635897  0  0  -0.330777  0  3.650319  0  0  -0.32942  -0.300743  0  3.626189  0
N  N122  1  0.56102423  0.21652073  0.24869793  1  0  -0.380696  0  3.372487  0  0  -0.313084  0  3.636372  0  0  -0.330981  0  3.650789  0  0  -0.329546  -0.300946  0  3.626653  0
N  N123  1  0.06100501  0.78348440  0.25130108  1  0  -0.380629  0  3.372594  0  0  -0.312952  0  3.636522  0  0  -0.330852  0  3.650942  0  0  -0.32949  -0.300814  0  3.626806  0
O  O124  1  0.59682287  0.86182365  0.63929396  1  0  -0.644058  0  2.032601  0  0  -0.578385  0  2.289844  0  0  -0.607295  0  2.27914  0  0  -0.321539  -0.557863  0  2.296408  0
O  O125  1  0.09681250  0.13816303  0.86069699  1  0  -0.644075  0  2.033374  0  0  -0.578301  0  2.290412  0  0  -0.60721  0  2.27971  0  0  -0.321497  -0.557779  0  2.296981  0
O  O126  1  0.40317616  0.13818002  0.36070621  1  0  -0.644024  0  2.032477  0  0  -0.578364  0  2.28967  0  0  -0.607277  0  2.278972  0  0  -0.32153  -0.557835  0  2.296226  0
O  O127  1  0.90318653  0.86182653  0.13929242  1  0  -0.644006  0  2.032986  0  0  -0.578334  0  2.290232  0  0  -0.60724  0  2.279526  0  0  -0.321505  -0.557806  0  2.296786  0
O  O128  1  0.58456019  0.70627582  0.54666401  1  0  -0.602003  0  1.842683  0  0  -0.566453  0  2.044738  0  0  -0.586895  0  2.036638  0  0  -0.347552  -0.551956  0  2.049701  0
O  O129  1  0.08455891  0.29370685  0.95333641  1  0  -0.602025  0  1.842416  0  0  -0.566503  0  2.044485  0  0  -0.586948  0  2.036384  0  0  -0.347517  -0.551995  0  2.049451  0
O  O130  1  0.41544018  0.29372787  0.45333079  1  0  -0.601942  0  1.842949  0  0  -0.56639  0  2.044967  0  0  -0.586828  0  2.036869  0  0  -0.347536  -0.551895  0  2.049929  0
O  O131  1  0.91545750  0.70628034  0.04665559  1  0  -0.602089  0  1.842307  0  0  -0.566534  0  2.044356  0  0  -0.586981  0  2.036259  0  0  -0.347605  -0.552033  0  2.049323  0
O  O132  1  0.54825750  0.09025186  0.77058462  1  0  -0.59371  0  2.020391  0  0  -0.522529  0  2.282295  0  0  -0.551125  0  2.268528  0  0  -0.301947  -0.502589  0  2.291152  0
O  O133  1  0.04824745  0.90973228  0.72940164  1  0  -0.593752  0  2.020576  0  0  -0.522532  0  2.282438  0  0  -0.551126  0  2.268672  0  0  -0.301968  -0.502592  0  2.291285  0
O  O134  1  0.45173886  0.90974083  0.22940891  1  0  -0.593804  0  2.020563  0  0  -0.522553  0  2.282387  0  0  -0.551149  0  2.268619  0  0  -0.302016  -0.502612  0  2.291239  0
O  O135  1  0.95174756  0.09025807  0.27058790  1  0  -0.593694  0  2.020698  0  0  -0.522515  0  2.282564  0  0  -0.551109  0  2.268798  0  0  -0.301949  -0.502574  0  2.291415  0
O  O136  1  0.29567066  0.06771221  0.69692364  1  0  -0.642754  0  2.062991  0  0  -0.573464  0  2.339472  0  0  -0.600005  0  2.322328  0  0  -0.316739  -0.554832  0  2.350725  0
O  O137  1  0.79567245  0.93227842  0.80307430  1  0  -0.642844  0  2.062975  0  0  -0.573477  0  2.33944  0  0  -0.600019  0  2.322296  0  0  -0.316741  -0.554847  0  2.350697  0
O  O138  1  0.70431901  0.93228754  0.30307527  1  0  -0.642671  0  2.063086  0  0  -0.57332  0  2.339527  0  0  -0.59986  0  2.322385  0  0  -0.316637  -0.554689  0  2.350774  0
O  O139  1  0.20433327  0.06771111  0.19692586  1  0  -0.64271  0  2.062954  0  0  -0.573407  0  2.33941  0  0  -0.599948  0  2.322268  0  0  -0.316716  -0.554777  0  2.350664  0
