# generated using pymatgen
data_AgH4C6(NO)3
_symmetry_space_group_name_H-M   'P 1'
_cell_length_a   7.18045077
_cell_length_b   7.46653217
_cell_length_c   14.89007997
_cell_angle_alpha   98.88709912
_cell_angle_beta   89.99976118
_cell_angle_gamma   89.99981788
_symmetry_Int_Tables_number   1
_chemical_formula_structural   AgH4C6(NO)3
_chemical_formula_sum   'Ag4 H16 C24 N12 O12'
_cell_volume   788.71896533
_cell_formula_units_Z   4
loop_
 _symmetry_equiv_pos_site_id
 _symmetry_equiv_pos_as_xyz
  1  'x, y, z'
loop_
 _atom_site_type_symbol
 _atom_site_label
 _atom_site_symmetry_multiplicity
 _atom_site_fract_x
 _atom_site_fract_y
 _atom_site_fract_z
 _atom_site_occupancy
 _atom_site_hle17_bader_spin_density
 _atom_site_hle17_ddec_charge
 _atom_site_hle17_ddec_spin_density
 _atom_site_hle17_ddec_sum_bond_order
 _atom_site_hle17_magmom
 _atom_site_hse06_10hf_bader_spin_density
 _atom_site_hse06_10hf_ddec_charge
 _atom_site_hse06_10hf_ddec_spin_density
 _atom_site_hse06_10hf_ddec_sum_bond_order
 _atom_site_hse06_10hf_magmom
 _atom_site_hse06_bader_spin_density
 _atom_site_hse06_ddec_charge
 _atom_site_hse06_ddec_spin_density
 _atom_site_hse06_ddec_sum_bond_order
 _atom_site_hse06_magmom
 _atom_site_pbe_bader_spin_density
 _atom_site_pbe_cm5_charge
 _atom_site_pbe_ddec_charge
 _atom_site_pbe_ddec_spin_density
 _atom_site_pbe_ddec_sum_bond_order
 _atom_site_pbe_magmom
Ag  Ag0  1  0.82152316  0.38972066  0.61873336  1  0  0.583551  0  1.459624  0  0  0.453099  0  1.916071  0  0  0.477882  0  1.869826  0  0  0.488902  0.436957  0  1.94773  0
Ag  Ag1  1  0.67848049  0.88972245  0.11873669  1  0  0.583624  0  1.45974  0  0  0.453187  0  1.916208  0  0  0.477971  0  1.869964  0  0  0.488921  0.437044  0  1.947853  0
Ag  Ag2  1  0.17847364  0.61028911  0.38126237  1  0  0.583608  0  1.459593  0  0  0.453158  0  1.916072  0  0  0.477942  0  1.869828  0  0  0.488901  0.437011  0  1.947731  0
Ag  Ag3  1  0.32151352  0.11026842  0.88126235  1  0  0.583546  0  1.459752  0  0  0.453095  0  1.916198  0  0  0.477881  0  1.869954  0  0  0.488905  0.436953  0  1.947852  0
H  H4  1  0.54335429  0.21920201  0.28637511  1  0  0.130325  0  0.937834  0  0  0.138927  0  0.997681  0  0  0.142052  0  0.996058  0  0  0.116493  0.136628  0  0.999098  0
H  H5  1  0.95663877  0.71918149  0.78638228  1  0  0.130331  0  0.937829  0  0  0.138829  0  0.997824  0  0  0.141952  0  0.996204  0  0  0.116444  0.136531  0  0.999245  0
H  H6  1  0.45664530  0.78080236  0.71362156  1  0  0.130299  0  0.937861  0  0  0.138865  0  0.997756  0  0  0.141988  0  0.996136  0  0  0.116467  0.136567  0  0.999172  0
H  H7  1  0.04336221  0.28081354  0.21362243  1  0  0.130333  0  0.937852  0  0  0.138915  0  0.99773  0  0  0.142041  0  0.996103  0  0  0.116454  0.136616  0  0.999149  0
H  H8  1  0.23508116  0.10090633  0.33294795  1  0  0.114825  0  0.933118  0  0  0.123608  0  0.989724  0  0  0.126159  0  0.988642  0  0  0.11457  0.121593  0  0.990808  0
H  H9  1  0.26491479  0.60089047  0.83294780  1  0  0.114879  0  0.932933  0  0  0.123627  0  0.989589  0  0  0.126199  0  0.988476  0  0  0.114602  0.121612  0  0.990678  0
H  H10  1  0.76491981  0.89910213  0.66705037  1  0  0.114858  0  0.933032  0  0  0.123611  0  0.989689  0  0  0.12618  0  0.988581  0  0  0.114579  0.121599  0  0.990776  0
H  H11  1  0.73508201  0.39909641  0.16705498  1  0  0.11491  0  0.933047  0  0  0.123694  0  0.989621  0  0  0.126247  0  0.988538  0  0  0.114629  0.12168  0  0.990702  0
H  H12  1  0.16913055  0.11122344  0.49872666  1  0  0.122792  0  0.957023  0  0  0.129177  0  1.021277  0  0  0.132918  0  1.018836  0  0  0.111222  0.126381  0  1.023347  0
H  H13  1  0.33088765  0.61121409  0.99872618  1  0  0.122656  0  0.956992  0  0  0.129054  0  1.021258  0  0  0.132794  0  1.018816  0  0  0.111174  0.126258  0  1.023325  0
H  H14  1  0.83087600  0.88878775  0.50127252  1  0  0.12271  0  0.957018  0  0  0.129101  0  1.021281  0  0  0.132842  0  1.018838  0  0  0.111201  0.126307  0  1.023349  0
H  H15  1  0.66911751  0.38877279  0.00127660  1  0  0.1228  0  0.956945  0  0  0.129168  0  1.021243  0  0  0.13291  0  1.018798  0  0  0.111189  0.12637  0  1.023306  0
H  H16  1  0.41445709  0.23061439  0.61209338  1  0  0.091623  0  0.947631  0  0  0.099423  0  1.009598  0  0  0.101651  0  1.00871  0  0  0.116671  0.09768  0  1.010457  0
H  H17  1  0.08556119  0.73061244  0.11209529  1  0  0.091586  0  0.947609  0  0  0.099383  0  1.009539  0  0  0.10161  0  1.008642  0  0  0.116643  0.097628  0  1.010421  0
H  H18  1  0.58555503  0.76939271  0.38790483  1  0  0.09158  0  0.947675  0  0  0.099396  0  1.009587  0  0  0.101625  0  1.008688  0  0  0.116639  0.097638  0  1.010472  0
H  H19  1  0.91444258  0.26938663  0.88790770  1  0  0.091616  0  0.947668  0  0  0.099416  0  1.009601  0  0  0.101645  0  1.0087  0  0  0.116646  0.097665  0  1.010482  0
C  C20  1  0.80895249  0.36014153  0.40294197  1  0  0.297582  0  3.677642  0  0  0.271181  0  3.950728  0  0  0.286784  0  3.962797  0  0  0.218499  0.260087  0  3.943449  0
C  C21  1  0.69104469  0.86011527  0.90295129  1  0  0.297422  0  3.677331  0  0  0.270974  0  3.950421  0  0  0.286578  0  3.962491  0  0  0.218397  0.259881  0  3.94314  0
C  C22  1  0.19104571  0.63986955  0.59705116  1  0  0.297558  0  3.677802  0  0  0.271129  0  3.950896  0  0  0.286734  0  3.962962  0  0  0.218545  0.260036  0  3.94363  0
C  C23  1  0.30895489  0.13986755  0.09705186  1  0  0.297463  0  3.677646  0  0  0.27101  0  3.950735  0  0  0.286615  0  3.962806  0  0  0.218429  0.259922  0  3.943449  0
C  C24  1  0.63443143  0.28733680  0.42577967  1  0  0.164103  0  3.860097  0  0  0.170359  0  4.094902  0  0  0.173211  0  4.113965  0  0  0.125784  0.168266  0  4.082553  0
C  C25  1  0.86556997  0.78731793  0.92578446  1  0  0.16416  0  3.860381  0  0  0.170538  0  4.094973  0  0  0.173399  0  4.114034  0  0  0.125804  0.168445  0  4.082623  0
C  C26  1  0.36556954  0.71267570  0.57421692  1  0  0.164198  0  3.860274  0  0  0.170503  0  4.094978  0  0  0.173361  0  4.11404  0  0  0.125832  0.168406  0  4.082638  0
C  C27  1  0.13443101  0.21267434  0.07421737  1  0  0.164164  0  3.860457  0  0  0.170536  0  4.095054  0  0  0.173397  0  4.114118  0  0  0.125816  0.168438  0  4.082707  0
C  C28  1  0.50812082  0.22042654  0.35743614  1  0  -0.092056  0  3.651482  0  0  -0.116008  0  3.896855  0  0  -0.118607  0  3.913902  0  0  -0.059265  -0.114611  0  3.885996  0
C  C29  1  0.99187303  0.72041400  0.85744248  1  0  -0.092037  0  3.651645  0  0  -0.11595  0  3.897003  0  0  -0.118559  0  3.914072  0  0  -0.059244  -0.114556  0  3.886149  0
C  C30  1  0.49187598  0.77957912  0.64255659  1  0  -0.092082  0  3.651759  0  0  -0.116018  0  3.897135  0  0  -0.118627  0  3.914205  0  0  -0.059267  -0.114619  0  3.886276  0
C  C31  1  0.00812934  0.27958508  0.14256119  1  0  -0.092098  0  3.651794  0  0  -0.116074  0  3.897108  0  0  -0.118678  0  3.914166  0  0  -0.059284  -0.114675  0  3.886249  0
C  C32  1  0.33742819  0.15630398  0.38348709  1  0  0.013431  0  3.673821  0  0  -0.003678  0  3.929125  0  0  -0.001307  0  3.945145  0  0  -0.055622  -0.005321  0  3.91883  0
C  C33  1  0.16257690  0.65629256  0.88348748  1  0  0.013365  0  3.673484  0  0  -0.003722  0  3.928842  0  0  -0.001361  0  3.944851  0  0  -0.055612  -0.005367  0  3.918554  0
C  C34  1  0.66257836  0.84370584  0.61651132  1  0  0.013384  0  3.673653  0  0  -0.003726  0  3.929018  0  0  -0.001364  0  3.94503  0  0  -0.055609  -0.005372  0  3.918731  0
C  C35  1  0.83743104  0.34369973  0.11651569  1  0  0.013309  0  3.673699  0  0  -0.003775  0  3.929011  0  0  -0.001403  0  3.945028  0  0  -0.055639  -0.005418  0  3.918711  0
C  C36  1  0.30040366  0.16073165  0.47556702  1  0  -0.091121  0  3.677102  0  0  -0.10977  0  3.935389  0  0  -0.114287  0  3.955342  0  0  -0.071179  -0.106889  0  3.922155  0
C  C37  1  0.19960343  0.66072962  0.97557004  1  0  -0.090923  0  3.676968  0  0  -0.1096  0  3.935264  0  0  -0.114118  0  3.955221  0  0  -0.071168  -0.106735  0  3.922065  0
C  C38  1  0.69959871  0.83927544  0.52442984  1  0  -0.090953  0  3.677089  0  0  -0.109595  0  3.935343  0  0  -0.114114  0  3.955302  0  0  -0.071144  -0.106718  0  3.922113  0
C  C39  1  0.80040034  0.33926399  0.02443054  1  0  -0.091022  0  3.676959  0  0  -0.10969  0  3.935232  0  0  -0.114208  0  3.955182  0  0  -0.071128  -0.10682  0  3.922021  0
C  C40  1  0.43544912  0.22832029  0.53938652  1  0  0.130368  0  3.681174  0  0  0.099139  0  3.936987  0  0  0.103736  0  3.957151  0  0  0.047931  0.096062  0  3.923545  0
C  C41  1  0.06456839  0.72831436  0.03938885  1  0  0.130364  0  3.681127  0  0  0.099173  0  3.936943  0  0  0.103787  0  3.957097  0  0  0.04795  0.096099  0  3.923481  0
C  C42  1  0.56456439  0.77169089  0.46061199  1  0  0.130256  0  3.681184  0  0  0.099036  0  3.937004  0  0  0.103646  0  3.957163  0  0  0.04788  0.095967  0  3.923542  0
C  C43  1  0.93543816  0.27168063  0.96061317  1  0  0.130308  0  3.681304  0  0  0.0991  0  3.937132  0  0  0.103711  0  3.957295  0  0  0.047909  0.096019  0  3.92368  0
N  N44  1  0.60069779  0.29134882  0.51582709  1  0  -0.332426  0  3.286782  0  0  -0.263791  0  3.56903  0  0  -0.280039  0  3.584351  0  0  -0.326615  -0.252756  0  3.558596  0
N  N45  1  0.89930985  0.79133900  0.01583314  1  0  -0.332562  0  3.286617  0  0  -0.263961  0  3.568818  0  0  -0.280226  0  3.584146  0  0  -0.326675  -0.252917  0  3.558368  0
N  N46  1  0.39930597  0.70866229  0.48416806  1  0  -0.332424  0  3.286517  0  0  -0.263789  0  3.568733  0  0  -0.28005  0  3.584059  0  0  -0.326598  -0.252746  0  3.55829  0
N  N47  1  0.10068974  0.20865871  0.98416975  1  0  -0.332449  0  3.286863  0  0  -0.263856  0  3.569068  0  0  -0.280125  0  3.584403  0  0  -0.326636  -0.252816  0  3.558634  0
N  N48  1  0.94841864  0.42431320  0.38362891  1  0  -0.388214  0  2.952783  0  0  -0.338199  0  3.267246  0  0  -0.352693  0  3.268085  0  0  -0.327864  -0.329103  0  3.26751  0
N  N49  1  0.55156178  0.92429014  0.88363674  1  0  -0.388024  0  2.952399  0  0  -0.337994  0  3.266866  0  0  -0.352488  0  3.267708  0  0  -0.327684  -0.328899  0  3.26713  0
N  N50  1  0.05157956  0.57569655  0.61636547  1  0  -0.388183  0  2.952938  0  0  -0.338156  0  3.26739  0  0  -0.352649  0  3.268228  0  0  -0.327874  -0.329062  0  3.267666  0
N  N51  1  0.44842666  0.07569406  0.11636786  1  0  -0.388111  0  2.952784  0  0  -0.338093  0  3.267275  0  0  -0.352587  0  3.268118  0  0  -0.327771  -0.329001  0  3.267532  0
N  N52  1  0.58146650  0.37245626  0.79065180  1  0  0.692292  0  4.143424  0  0  0.739043  0  4.407497  0  0  0.756068  0  4.431566  0  0  0.09118  0.719257  0  4.402609  0
N  N53  1  0.91852740  0.87248691  0.29065339  1  0  0.692077  0  4.143368  0  0  0.739139  0  4.407089  0  0  0.756095  0  4.431208  0  0  0.091318  0.719362  0  4.402199  0
N  N54  1  0.41853029  0.62752786  0.20934809  1  0  0.692153  0  4.143358  0  0  0.73934  0  4.40696  0  0  0.756195  0  4.431234  0  0  0.09144  0.719553  0  4.402075  0
N  N55  1  0.08146383  0.12752297  0.70934838  1  0  0.692023  0  4.143438  0  0  0.739199  0  4.407017  0  0  0.755984  0  4.431385  0  0  0.091349  0.719417  0  4.402131  0
O  O56  1  0.65289366  0.51013439  0.76287817  1  0  -0.486256  0  1.819161  0  0  -0.469015  0  2.057533  0  0  -0.484677  0  2.056131  0  0  -0.201531  -0.454845  0  2.061407  0
O  O57  1  0.84711979  0.01016873  0.26287474  1  0  -0.486314  0  1.819047  0  0  -0.469179  0  2.057361  0  0  -0.484819  0  2.055974  0  0  -0.201604  -0.455013  0  2.061228  0
O  O58  1  0.34710871  0.48984700  0.23712018  1  0  -0.48627  0  1.819222  0  0  -0.469182  0  2.057485  0  0  -0.48479  0  2.056141  0  0  -0.201596  -0.455011  0  2.06136  0
O  O59  1  0.15287980  0.98984243  0.73712310  1  0  -0.486206  0  1.819137  0  0  -0.469128  0  2.057428  0  0  -0.48471  0  2.056109  0  0  -0.201561  -0.45496  0  2.061306  0
O  O60  1  0.58750558  0.21865472  0.74165696  1  0  -0.470343  0  1.766922  0  0  -0.465503  0  1.988147  0  0  -0.476502  0  1.986018  0  0  -0.193843  -0.454736  0  1.992836  0
O  O61  1  0.91246975  0.71867871  0.24166345  1  0  -0.470114  0  1.766739  0  0  -0.465402  0  1.987908  0  0  -0.476395  0  1.985829  0  0  -0.193855  -0.45461  0  1.992542  0
O  O62  1  0.41248286  0.78132805  0.25834350  1  0  -0.470279  0  1.766737  0  0  -0.465576  0  1.987858  0  0  -0.476523  0  1.985797  0  0  -0.193955  -0.454797  0  1.992526  0
O  O63  1  0.08751173  0.28132717  0.75834206  1  0  -0.470223  0  1.766799  0  0  -0.465527  0  1.987905  0  0  -0.476455  0  1.985878  0  0  -0.193921  -0.454727  0  1.992531  0
O  O64  1  0.50323011  0.39272852  0.86840232  1  0  -0.480508  0  1.818682  0  0  -0.457979  0  2.051366  0  0  -0.472339  0  2.047081  0  0  -0.19535  -0.444636  0  2.05719  0
O  O65  1  0.99676586  0.89276024  0.36840450  1  0  -0.480454  0  1.818861  0  0  -0.458094  0  2.051509  0  0  -0.472423  0  2.04724  0  0  -0.195401  -0.444769  0  2.057348  0
O  O66  1  0.49677087  0.60726104  0.13159863  1  0  -0.480387  0  1.818742  0  0  -0.458067  0  2.051307  0  0  -0.472361  0  2.047076  0  0  -0.195419  -0.444728  0  2.057137  0
O  O67  1  0.00322954  0.10725370  0.63159757  1  0  -0.480392  0  1.818804  0  0  -0.458035  0  2.051389  0  0  -0.472307  0  2.047184  0  0  -0.195397  -0.444701  0  2.057224  0
