# generated using pymatgen
data_CuH2C4(NO)2
_symmetry_space_group_name_H-M   'P 1'
_cell_length_a   15.07568984
_cell_length_b   15.07737121
_cell_length_c   15.07611854
_cell_angle_alpha   100.27445622
_cell_angle_beta   114.26484968
_cell_angle_gamma   114.25238454
_symmetry_Int_Tables_number   1
_chemical_formula_structural   CuH2C4(NO)2
_chemical_formula_sum   'Cu8 H16 C32 N16 O16'
_cell_volume   2588.02627301
_cell_formula_units_Z   8
loop_
 _symmetry_equiv_pos_site_id
 _symmetry_equiv_pos_as_xyz
  1  'x, y, z'
loop_
 _atom_site_type_symbol
 _atom_site_label
 _atom_site_symmetry_multiplicity
 _atom_site_fract_x
 _atom_site_fract_y
 _atom_site_fract_z
 _atom_site_occupancy
 _atom_site_pbe_bader_charge
 _atom_site_pbe_bader_spin_density
 _atom_site_pbe_cm5_charge
 _atom_site_pbe_ddec_charge
 _atom_site_pbe_ddec_spin_density
 _atom_site_pbe_ddec_sum_bond_order
 _atom_site_pbe_magmom
Cu  Cu0  1  0.95715535  0.53060154  0.10108114  1  1.057817  0.5736  0.765982  0.73838  0.726778  2.266873  0.574
Cu  Cu1  1  0.42953359  0.57346762  0.03062212  1  1.054805  0.573586  0.766115  0.738523  0.726802  2.266899  0.574
Cu  Cu2  1  0.07046894  0.60108362  0.64393980  1  1.059258  0.573599  0.766154  0.738371  0.726779  2.267054  0.574
Cu  Cu3  1  0.54285531  0.14392888  0.07346229  1  1.055636  0.573598  0.765896  0.738503  0.7268  2.266577  0.574
Cu  Cu4  1  0.45715874  0.85605651  0.92653310  1  1.055683  0.573597  0.765943  0.738413  0.726808  2.26707  0.574
Cu  Cu5  1  0.92954853  0.39890489  0.35604901  1  1.059398  0.573604  0.766019  0.738466  0.726811  2.267082  0.574
Cu  Cu6  1  0.57043680  0.42648998  0.96935194  1  1.054428  0.573577  0.766004  0.738421  0.72683  2.266821  0.574
Cu  Cu7  1  0.04285429  0.46938402  0.89890599  1  1.057509  0.573626  0.765853  0.738553  0.726825  2.266647  0.574
H  H8  1  0.56482143  0.10945165  0.28166425  1  0.116485  0.002296  0.122179  0.115552  0.001055  1.00236  0.002
H  H9  1  0.82776843  0.54461877  0.60941920  1  0.132648  0.002271  0.122282  0.11573  0.001055  1.002431  0.002
H  H10  1  0.93520651  0.71687676  0.04464241  1  0.107154  0.002311  0.122165  0.115562  0.001058  1.002298  0.002
H  H11  1  0.17224370  0.45536526  0.39057912  1  0.132975  0.002271  0.122231  0.115783  0.001055  1.002005  0.002
H  H12  1  0.47000412  0.08196502  0.70604041  1  0.107865  0.002274  0.117188  0.144055  0.00118  0.990407  0.001
H  H13  1  0.12403800  0.20607665  0.73604079  1  0.105063  0.002267  0.11719  0.14398  0.001178  0.990448  0.001
H  H14  1  0.06477961  0.28312890  0.95533429  1  0.107487  0.002307  0.122229  0.115656  0.001056  1.002238  0.002
H  H15  1  0.67223715  0.78164498  0.21685827  1  0.139785  0.002269  0.122294  0.115827  0.001056  1.002114  0.002
H  H16  1  0.37594634  0.61198631  0.58203534  1  0.107861  0.00227  0.117216  0.144084  0.001178  0.990564  0.001
H  H17  1  0.43521129  0.89056028  0.71835277  1  0.116363  0.002297  0.122224  0.115572  0.001056  1.002416  0.002
H  H18  1  0.97000847  0.76396459  0.88802940  1  0.098376  0.00229  0.11716  0.143929  0.001181  0.990485  0.001
H  H19  1  0.53000440  0.91803269  0.29395999  1  0.107632  0.002275  0.117188  0.14396  0.00118  0.990541  0.001
H  H20  1  0.02997230  0.23602685  0.11195969  1  0.098647  0.002286  0.117255  0.144067  0.001179  0.99032  0.001
H  H21  1  0.32773672  0.21832840  0.78312105  1  0.139511  0.002271  0.122305  0.115927  0.001057  1.001978  0.002
H  H22  1  0.62407630  0.38802039  0.41798058  1  0.107954  0.002274  0.117182  0.143956  0.00118  0.990706  0.001
H  H23  1  0.87593170  0.79391167  0.26394802  1  0.104875  0.002271  0.117203  0.144034  0.00118  0.990557  0.001
C  C24  1  0.30553543  0.69628590  0.72932163  1  1.565312  -0.003606  0.210404  0.551378  -0.00379  4.195153  -0.006
C  C25  1  0.97603075  0.70442846  0.91671361  1  0.016416  0.002436  -0.106656  -0.205915  0.001494  3.976078  0.002
C  C26  1  0.03301376  0.60927228  0.80369805  1  1.526012  -0.003456  0.210495  0.551621  -0.003781  4.196065  -0.006
C  C27  1  0.18567114  0.50450733  0.46250179  1  0.34163  0.00447  0.007948  0.001446  0.003345  3.975927  0.007
C  C28  1  0.74982255  0.38305458  0.37847058  1  0.391871  0.010431  0.068662  0.030824  0.007466  4.063381  0.011
C  C29  1  0.75018649  0.62864895  0.13323381  1  0.468549  0.01014  0.068772  0.030857  0.007477  4.063388  0.011
C  C30  1  0.81434062  0.49549925  0.53750803  1  0.34123  0.004477  0.007919  0.001525  0.00335  3.976512  0.007
C  C31  1  0.52395246  0.94069392  0.22839399  1  -0.013916  0.002473  -0.10655  -0.205899  0.00149  3.975767  0.002
C  C32  1  0.02395531  0.29556464  0.08324994  1  0.016768  0.002425  -0.106587  -0.205909  0.001486  3.975226  0.002
C  C33  1  0.68566302  0.72316211  0.18115203  1  0.379764  0.004359  0.007826  0.001348  0.003349  3.975905  0.007
C  C34  1  0.04202517  0.31886527  0.00449973  1  0.389161  0.00435  0.007644  0.001265  0.003342  3.976558  0.007
C  C35  1  0.00455756  0.63325217  0.88304179  1  0.399076  0.010428  0.068582  0.030905  0.007495  4.063058  0.011
C  C36  1  0.47607099  0.05929026  0.77160529  1  -0.01509  0.00247  -0.106597  -0.206088  0.001486  3.975506  0.002
C  C37  1  0.24982172  0.37135643  0.86677638  1  0.468618  0.010138  0.068604  0.030539  0.007477  4.063005  0.011
C  C38  1  0.50454720  0.12148522  0.87131045  1  0.408399  0.010406  0.068682  0.030919  0.007495  4.062075  0.011
C  C39  1  0.21226567  0.27163365  0.79555213  1  -0.031736  0.002487  -0.106581  -0.205594  0.001487  3.975021  0.002
C  C40  1  0.71229887  0.41674838  0.44065345  1  0.009526  0.002429  -0.106585  -0.205757  0.001488  3.975935  0.002
C  C41  1  0.80552136  0.57621860  0.10924474  1  1.539673  -0.003565  0.210386  0.55144  -0.003784  4.1954  -0.006
C  C42  1  0.19446918  0.42379435  0.89076737  1  1.540026  -0.003564  0.210427  0.551488  -0.003785  4.195029  -0.006
C  C43  1  0.28771836  0.58325146  0.55935008  1  0.008843  0.002427  -0.106628  -0.205834  0.001486  3.975632  0.002
C  C44  1  0.96698929  0.39075223  0.19629504  1  1.52376  -0.003452  0.210257  0.551254  -0.003787  4.195702  -0.006
C  C45  1  0.95795765  0.68114600  0.99547448  1  0.389782  0.00436  0.007958  0.001561  0.003348  3.97669  0.007
C  C46  1  0.46699744  0.77069927  0.07626236  1  1.524518  -0.003494  0.210412  0.551474  -0.003791  4.19548  -0.006
C  C47  1  0.78770901  0.72835318  0.20443818  1  -0.031503  0.002491  -0.106639  -0.20585  0.001491  3.975707  0.002
C  C48  1  0.45798200  0.96247327  0.77683258  1  0.391423  0.004373  0.007869  0.001718  0.003342  3.976793  0.007
C  C49  1  0.54201899  0.03751194  0.22318115  1  0.390874  0.004378  0.007964  0.001829  0.003346  3.976215  0.007
C  C50  1  0.49545834  0.87849092  0.12868408  1  0.407077  0.010398  0.068642  0.031029  0.007484  4.062538  0.011
C  C51  1  0.69447869  0.30371975  0.27071079  1  1.55175  -0.00356  0.210353  0.551482  -0.003789  4.194894  -0.006
C  C52  1  0.99544617  0.36677977  0.11693546  1  0.402285  0.010407  0.068759  0.031088  0.007488  4.062101  0.011
C  C53  1  0.53299995  0.22930001  0.92374822  1  1.524082  -0.003489  0.210312  0.551264  -0.003785  4.19531  -0.006
C  C54  1  0.25016606  0.61693956  0.62152346  1  0.378729  0.01048  0.068673  0.030762  0.007473  4.062633  0.011
C  C55  1  0.31432323  0.27683025  0.81885531  1  0.380155  0.004351  0.00771  0.001034  0.003341  3.975587  0.007
N  N56  1  0.47457841  0.96717080  0.87381655  1  -0.691503  0.096745  -0.276785  -0.166684  0.063867  3.652038  0.083
N  N57  1  0.86695034  0.43862741  0.43583179  1  -0.701257  0.093227  -0.283193  -0.221794  0.061495  3.6517  0.08
N  N58  1  0.36695525  0.43113371  0.92832712  1  -0.756994  0.093494  -0.283352  -0.221792  0.061515  3.652243  0.08
N  N59  1  0.97455430  0.60077022  0.00739679  1  -0.706496  0.096832  -0.276721  -0.16641  0.06387  3.651784  0.083
N  N60  1  0.49719703  0.93580947  0.06888560  1  -0.702706  0.093161  -0.28336  -0.221867  0.061473  3.651542  0.08
N  N61  1  0.09334999  0.49259700  0.46718059  1  -0.695976  0.09666  -0.276902  -0.166831  0.063851  3.65192  0.083
N  N62  1  0.00280835  0.57172525  0.93862867  1  -0.693566  0.093152  -0.283242  -0.222226  0.0615  3.651898  0.08
N  N63  1  0.02543133  0.39925858  0.99260281  1  -0.707659  0.096833  -0.276518  -0.166435  0.063865  3.651607  0.083
N  N64  1  0.52543173  0.03281697  0.12618994  1  -0.691722  0.096769  -0.276775  -0.166908  0.063879  3.651292  0.083
N  N65  1  0.40665045  0.37382708  0.89926052  1  -0.70925  0.096788  -0.276678  -0.166352  0.063837  3.651811  0.083
N  N66  1  0.50279283  0.06417025  0.93110595  1  -0.703201  0.093183  -0.283376  -0.221805  0.061483  3.652033  0.08
N  N67  1  0.90665150  0.50741063  0.53283695  1  -0.696262  0.096664  -0.276838  -0.166595  0.063856  3.65222  0.083
N  N68  1  0.99718163  0.42831943  0.06136524  1  -0.693173  0.093083  -0.283484  -0.221869  0.061459  3.652258  0.08
N  N69  1  0.63305595  0.56887373  0.07169534  1  -0.756559  0.093505  -0.28321  -0.221765  0.061522  3.651584  0.08
N  N70  1  0.59334843  0.62617314  0.10075751  1  -0.709583  0.096823  -0.276842  -0.166637  0.063859  3.652045  0.083
N  N71  1  0.13303566  0.56135770  0.56418428  1  -0.70137  0.093216  -0.283335  -0.221538  0.061487  3.651886  0.08
O  O72  1  0.03578535  0.66016756  0.74496514  1  -1.100434  0.115972  -0.307391  -0.46476  0.073423  2.262528  0.103
O  O73  1  0.94806190  0.46677563  0.20479195  1  -1.094279  0.102199  -0.318186  -0.522686  0.063688  2.307076  0.094
O  O74  1  0.53575496  0.29081229  0.87562047  1  -1.100074  0.116011  -0.307429  -0.464823  0.073428  2.262796  0.103
O  O75  1  0.96422342  0.33985510  0.25504426  1  -1.100728  0.115986  -0.307391  -0.464791  0.073433  2.262641  0.103
O  O76  1  0.26201341  0.51875988  0.96680656  1  -1.101018  0.10209  -0.318325  -0.522826  0.063637  2.306462  0.094
O  O77  1  0.05193088  0.53324063  0.79520587  1  -1.093904  0.102136  -0.318265  -0.522899  0.063652  2.306916  0.094
O  O78  1  0.55193148  0.25672557  0.01870497  1  -1.093296  0.1022  -0.318151  -0.52266  0.063682  2.306825  0.094
O  O79  1  0.08481056  0.37568364  0.83986270  1  -1.089699  0.115975  -0.307412  -0.464785  0.073382  2.262623  0.103
O  O80  1  0.23799681  0.70479981  0.75675288  1  -1.093417  0.102209  -0.31825  -0.522783  0.063666  2.30641  0.094
O  O81  1  0.44808215  0.74326982  0.98128877  1  -1.093469  0.102259  -0.318151  -0.522809  0.063717  2.30633  0.094
O  O82  1  0.76199909  0.29520848  0.24324477  1  -1.093276  0.102212  -0.318421  -0.52299  0.063671  2.30592  0.094
O  O83  1  0.73799119  0.48123986  0.03320951  1  -1.100569  0.102132  -0.31837  -0.522865  0.063664  2.305949  0.094
O  O84  1  0.58482103  0.24494605  0.20915166  1  -1.10354  0.115896  -0.307336  -0.464844  0.073381  2.262223  0.103
O  O85  1  0.41520174  0.75505940  0.79086134  1  -1.103276  0.115893  -0.307422  -0.464754  0.073377  2.262485  0.103
O  O86  1  0.46424547  0.70918441  0.12439127  1  -1.100085  0.116002  -0.307465  -0.464956  0.073424  2.262188  0.103
O  O87  1  0.91517146  0.62433122  0.16012674  1  -1.089941  0.116016  -0.307315  -0.46477  0.073406  2.262357  0.103
