# generated using pymatgen
data_SrH13C11N(O2F)4
_symmetry_space_group_name_H-M   'P 1'
_cell_length_a   8.83833690
_cell_length_b   8.89106541
_cell_length_c   10.78360052
_cell_angle_alpha   93.69253521
_cell_angle_beta   94.14028439
_cell_angle_gamma   101.17580147
_symmetry_Int_Tables_number   1
_chemical_formula_structural   SrH13C11N(O2F)4
_chemical_formula_sum   'Sr2 H26 C22 N2 O16 F8'
_cell_volume   826.49510982
_cell_formula_units_Z   2
loop_
 _symmetry_equiv_pos_site_id
 _symmetry_equiv_pos_as_xyz
  1  'x, y, z'
loop_
 _atom_site_type_symbol
 _atom_site_label
 _atom_site_symmetry_multiplicity
 _atom_site_fract_x
 _atom_site_fract_y
 _atom_site_fract_z
 _atom_site_occupancy
 _atom_site_hle17_bader_spin_density
 _atom_site_hle17_ddec_charge
 _atom_site_hle17_ddec_spin_density
 _atom_site_hle17_ddec_sum_bond_order
 _atom_site_hle17_magmom
 _atom_site_hse06_10hf_bader_spin_density
 _atom_site_hse06_10hf_ddec_charge
 _atom_site_hse06_10hf_ddec_spin_density
 _atom_site_hse06_10hf_ddec_sum_bond_order
 _atom_site_hse06_10hf_magmom
 _atom_site_hse06_bader_spin_density
 _atom_site_hse06_ddec_charge
 _atom_site_hse06_ddec_spin_density
 _atom_site_hse06_ddec_sum_bond_order
 _atom_site_hse06_magmom
 _atom_site_pbe_bader_spin_density
 _atom_site_pbe_cm5_charge
 _atom_site_pbe_ddec_charge
 _atom_site_pbe_ddec_spin_density
 _atom_site_pbe_ddec_sum_bond_order
 _atom_site_pbe_magmom
Sr  Sr0  1  0.41771981  0.27344317  0.57603934  1  0  1.622568  0  1.09398  0  0  1.479119  0  1.46724  0  0  1.516823  0  1.420939  0  0  0.932655  1.452405  0  1.499833  0
Sr  Sr1  1  0.58228236  0.72655829  0.42396210  1  0  1.622582  0  1.093969  0  0  1.47912  0  1.467267  0  0  1.516817  0  1.420972  0  0  0.932659  1.452408  0  1.499861  0
H  H2  1  0.27372023  0.41017726  0.34927552  1  0  0.417799  0  0.89172  0  0  0.38343  0  0.962846  0  0  0.394596  0  0.946626  0  0  0.291386  0.375248  0  0.974696  0
H  H3  1  0.72628421  0.58982419  0.65072512  1  0  0.41786  0  0.891641  0  0  0.383487  0  0.96277  0  0  0.394653  0  0.946549  0  0  0.291393  0.375304  0  0.974621  0
H  H4  1  0.14493132  0.26779830  0.37037940  1  0  0.410926  0  0.844136  0  0  0.394953  0  0.899784  0  0  0.401353  0  0.893387  0  0  0.315105  0.390226  0  0.904838  0
H  H5  1  0.85507425  0.73220316  0.62962131  1  0  0.410946  0  0.84422  0  0  0.394968  0  0.899866  0  0  0.401368  0  0.893471  0  0  0.315091  0.390242  0  0.904917  0
H  H6  1  0.27069716  0.92878223  0.55138912  1  0  0.42132  0  0.886703  0  0  0.388574  0  0.954186  0  0  0.399341  0  0.93836  0  0  0.292421  0.380851  0  0.965542  0
H  H7  1  0.72930477  0.07121806  0.44861040  1  0  0.421327  0  0.886694  0  0  0.388581  0  0.954177  0  0  0.399348  0  0.938351  0  0  0.292437  0.380859  0  0.965532  0
H  H8  1  0.16988843  0.96802513  0.43973054  1  0  0.432946  0  0.838692  0  0  0.411734  0  0.889275  0  0  0.420579  0  0.87623  0  0  0.311882  0.4047  0  0.899882  0
H  H9  1  0.83011600  0.03197631  0.56026918  1  0  0.432962  0  0.838651  0  0  0.411751  0  0.889247  0  0  0.420596  0  0.876202  0  0  0.311888  0.404716  0  0.899854  0
H  H10  1  0.64556437  0.10893656  0.70266062  1  0  0.41013  0  0.902723  0  0  0.379557  0  0.967209  0  0  0.390903  0  0.950597  0  0  0.289789  0.3716  0  0.978848  0
H  H11  1  0.35443780  0.89106489  0.29733989  1  0  0.410148  0  0.902697  0  0  0.379579  0  0.967178  0  0  0.390926  0  0.950565  0  0  0.289783  0.371623  0  0.978816  0
H  H12  1  0.49922962  0.96957153  0.67172429  1  0  0.420153  0  0.883934  0  0  0.391213  0  0.945151  0  0  0.400839  0  0.931026  0  0  0.299419  0.384637  0  0.954839  0
H  H13  1  0.50077255  0.03042992  0.32827622  1  0  0.420132  0  0.883957  0  0  0.391238  0  0.945107  0  0  0.400865  0  0.930982  0  0  0.299433  0.384664  0  0.954794  0
H  H14  1  0.15671848  0.16367362  0.88526332  1  0  0.037553  0  0.91805  0  0  0.042952  0  0.993156  0  0  0.045545  0  0.986069  0  0  0.117269  0.040842  0  0.998361  0
H  H15  1  0.84327621  0.83632441  0.11474031  1  0  0.037563  0  0.918093  0  0  0.042932  0  0.993202  0  0  0.045548  0  0.986092  0  0  0.117297  0.040819  0  0.998416  0
H  H16  1  0.21624480  0.08198200  0.06160599  1  0  0.098852  0  0.954692  0  0  0.114888  0  1.026066  0  0  0.11614  0  1.024717  0  0  0.100588  0.113814  0  1.027226  0
H  H17  1  0.78375443  0.91801603  0.93839698  1  0  0.098812  0  0.954707  0  0  0.114875  0  1.026057  0  0  0.116127  0  1.02471  0  0  0.100571  0.1138  0  1.027218  0
H  H18  1  0.35177188  0.22006747  0.16183924  1  0  0.108818  0  0.939376  0  0  0.129397  0  1.000973  0  0  0.130963  0  0.999785  0  0  0.101249  0.128108  0  1.002141  0
H  H19  1  0.64822870  0.77993168  0.83816108  1  0  0.108844  0  0.939347  0  0  0.129428  0  1.000942  0  0  0.130995  0  0.999754  0  0  0.101247  0.128138  0  1.002111  0
H  H20  1  0.41076047  0.05726210  0.08944410  1  0  0.10465  0  0.948405  0  0  0.121453  0  1.016671  0  0  0.122968  0  1.015754  0  0  0.09964  0.120131  0  1.017672  0
H  H21  1  0.58923987  0.94273589  0.91055615  1  0  0.104574  0  0.9485  0  0  0.12138  0  1.016776  0  0  0.122895  0  1.01586  0  0  0.099636  0.120058  0  1.017773  0
H  H22  1  0.57275129  0.38200026  0.05589995  1  0  0.096962  0  0.933355  0  0  0.119426  0  0.994756  0  0  0.119072  0  0.99619  0  0  0.102377  0.119492  0  0.993966  0
H  H23  1  0.42724542  0.61799656  0.94409819  1  0  0.096949  0  0.933391  0  0  0.119435  0  0.99477  0  0  0.119082  0  0.996203  0  0  0.102414  0.119501  0  0.993979  0
H  H24  1  0.54627092  0.38112643  0.88934117  1  0  0.111582  0  0.957545  0  0  0.127615  0  1.026015  0  0  0.130095  0  1.023919  0  0  0.114205  0.125561  0  1.027905  0
H  H25  1  0.45372465  0.61887039  0.11065690  1  0  0.111561  0  0.957525  0  0  0.1276  0  1.025997  0  0  0.130081  0  1.023898  0  0  0.114222  0.125547  0  1.027887  0
H  H26  1  0.61445484  0.22727674  0.95764889  1  0  0.097769  0  0.940862  0  0  0.115625  0  1.009964  0  0  0.115921  0  1.009906  0  0  0.100415  0.115353  0  1.010182  0
H  H27  1  0.38554072  0.77272006  0.04234824  1  0  0.097754  0  0.940769  0  0  0.115626  0  1.009863  0  0  0.115924  0  1.0098  0  0  0.100421  0.115354  0  1.010081  0
C  C28  1  0.34006236  0.66575242  0.62173461  1  0  0.723491  0  3.881931  0  0  0.666757  0  4.186439  0  0  0.70187  0  4.175333  0  0  0.228972  0.643059  0  4.193485  0
C  C29  1  0.65993638  0.33424898  0.37826292  1  0  0.723483  0  3.881922  0  0  0.666798  0  4.186327  0  0  0.701912  0  4.175221  0  0  0.229065  0.643105  0  4.193374  0
C  C30  1  0.27336226  0.23008955  0.87322718  1  0  0.422378  0  3.825151  0  0  0.342576  0  4.124824  0  0  0.371959  0  4.122908  0  0  0.181393  0.323142  0  4.12494  0
C  C31  1  0.72663172  0.76990498  0.12677162  1  0  0.422403  0  3.825052  0  0  0.342677  0  4.124659  0  0  0.372042  0  4.122741  0  0  0.181405  0.32324  0  4.12478  0
C  C32  1  0.20326603  0.63816615  0.69903189  1  0  -0.252669  0  3.735507  0  0  -0.264483  0  4.01589  0  0  -0.272575  0  4.028536  0  0  -0.030155  -0.259691  0  4.008083  0
C  C33  1  0.79673364  0.36183415  0.30096843  1  0  -0.252624  0  3.735383  0  0  -0.264438  0  4.015732  0  0  -0.272525  0  4.02837  0  0  -0.03019  -0.259661  0  4.007944  0
C  C34  1  0.33728242  0.14242615  0.07634142  1  0  -0.183608  0  3.667353  0  0  -0.290077  0  3.926419  0  0  -0.286769  0  3.935735  0  0  -0.139914  -0.292044  0  3.920319  0
C  C35  1  0.66271657  0.85757072  0.92366055  1  0  -0.183527  0  3.667408  0  0  -0.290028  0  3.926471  0  0  -0.286723  0  3.935793  0  0  -0.139879  -0.291991  0  3.920365  0
C  C36  1  0.18937099  0.74180216  0.79876258  1  0  0.230009  0  3.802018  0  0  0.194806  0  4.103646  0  0  0.207476  0  4.111435  0  0  0.102128  0.186139  0  4.098759  0
C  C37  1  0.81062640  0.25819810  0.20123482  1  0  0.229973  0  3.802009  0  0  0.194754  0  4.103652  0  0  0.207424  0  4.111442  0  0  0.102132  0.186091  0  4.098768  0
C  C38  1  0.53722347  0.30950565  0.96821400  1  0  -0.168513  0  3.648814  0  0  -0.274223  0  3.905098  0  0  -0.270386  0  3.914917  0  0  -0.135848  -0.276437  0  3.898429  0
C  C39  1  0.46277074  0.69049001  0.03178393  1  0  -0.168435  0  3.648744  0  0  -0.274173  0  3.905024  0  0  -0.270334  0  3.914839  0  0  -0.135861  -0.27639  0  3.898357  0
C  C40  1  0.06967260  0.71254015  0.87653390  1  0  0.078806  0  3.822082  0  0  0.039135  0  4.139681  0  0  0.043637  0  4.146317  0  0  0.074636  0.035569  0  4.135805  0
C  C41  1  0.93032844  0.28746130  0.12346655  1  0  0.078896  0  3.822047  0  0  0.039204  0  4.139674  0  0  0.043708  0  4.146309  0  0  0.074684  0.035638  0  4.135798  0
C  C42  1  0.95628775  0.57990677  0.85039038  1  0  0.235902  0  3.802774  0  0  0.194794  0  4.114901  0  0  0.207862  0  4.121267  0  0  0.09886  0.185742  0  4.111049  0
C  C43  1  0.04371556  0.42009469  0.14961113  1  0  0.235763  0  3.802776  0  0  0.194672  0  4.114914  0  0  0.207738  0  4.121282  0  0  0.098836  0.185621  0  4.111064  0
C  C44  1  0.95923733  0.47552151  0.74892629  1  0  -0.254192  0  3.759802  0  0  -0.265969  0  4.039232  0  0  -0.274084  0  4.052768  0  0  -0.033397  -0.260883  0  4.030576  0
C  C45  1  0.04076348  0.52447879  0.25107502  1  0  -0.254118  0  3.75964  0  0  -0.265918  0  4.0391  0  0  -0.274033  0  4.052641  0  0  -0.033424  -0.260833  0  4.030443  0
C  C46  1  0.81956377  0.34750779  0.70977667  1  0  0.708917  0  3.889586  0  0  0.65335  0  4.200067  0  0  0.687744  0  4.190598  0  0  0.221964  0.629943  0  4.205518  0
C  C47  1  0.18043953  0.65249366  0.29022391  1  0  0.708931  0  3.889593  0  0  0.653332  0  4.20015  0  0  0.687726  0  4.190679  0  0  0.221961  0.629925  0  4.205603  0
C  C48  1  0.08570643  0.50632570  0.67830020  1  0  0.331119  0  3.744839  0  0  0.296264  0  4.044522  0  0  0.311806  0  4.0505  0  0  0.116791  0.285646  0  4.040833  0
C  C49  1  0.91429278  0.49367803  0.32169932  1  0  0.331056  0  3.744847  0  0  0.296232  0  4.044496  0  0  0.311768  0  4.050483  0  0  0.11681  0.28562  0  4.040808  0
N  N50  1  0.37801559  0.22796458  0.96896291  1  0  -0.091701  0  3.505349  0  0  0.010278  0  3.74489  0  0  -0.010265  0  3.770554  0  0  -0.282171  0.024041  0  3.726778  0
N  N51  1  0.62197840  0.77202995  0.03103682  1  0  -0.091701  0  3.505292  0  0  0.010224  0  3.744859  0  0  -0.010321  0  3.770531  0  0  -0.282229  0.023986  0  3.726755  0
O  O52  1  0.40469320  0.55531619  0.59465358  1  0  -0.681148  0  2.00353  0  0  -0.625248  0  2.253808  0  0  -0.650693  0  2.243267  0  0  -0.363777  -0.607232  0  2.260214  0
O  O53  1  0.59530740  0.44468875  0.40535071  1  0  -0.681164  0  2.003508  0  0  -0.625297  0  2.253796  0  0  -0.650741  0  2.243255  0  0  -0.363853  -0.607281  0  2.260202  0
O  O54  1  0.29960751  0.30071215  0.77802537  1  0  -0.616508  0  2.060441  0  0  -0.556141  0  2.316109  0  0  -0.580707  0  2.30868  0  0  -0.371769  -0.538824  0  2.320322  0
O  O55  1  0.70038534  0.69928239  0.22197430  1  0  -0.616561  0  2.060356  0  0  -0.556207  0  2.31599  0  0  -0.580776  0  2.308573  0  0  -0.371802  -0.538889  0  2.320207  0
O  O56  1  0.25624579  0.29936248  0.36801794  1  0  -0.862299  0  1.820726  0  0  -0.815455  0  1.995594  0  0  -0.833998  0  1.971396  0  0  -0.614376  -0.802292  0  2.013609  0
O  O57  1  0.74375842  0.70063783  0.63198264  1  0  -0.86239  0  1.820783  0  0  -0.815534  0  1.995667  0  0  -0.834076  0  1.97147  0  0  -0.614367  -0.802369  0  2.013682  0
O  O58  1  0.38503266  0.80071906  0.58692211  1  0  -0.699592  0  2.044837  0  0  -0.633994  0  2.273165  0  0  -0.65982  0  2.26075  0  0  -0.329412  -0.615954  0  2.281498  0
O  O59  1  0.61496927  0.19928123  0.41307741  1  0  -0.699565  0  2.044805  0  0  -0.634001  0  2.273118  0  0  -0.659827  0  2.260702  0  0  -0.329418  -0.615951  0  2.281428  0
O  O60  1  0.22021617  0.01208569  0.52117929  1  0  -0.880525  0  1.739326  0  0  -0.827744  0  1.891525  0  0  -0.846147  0  1.861377  0  0  -0.626981  -0.81511  0  1.91427  0
O  O61  1  0.77978463  0.98791459  0.47882016  1  0  -0.880547  0  1.739289  0  0  -0.827768  0  1.891507  0  0  -0.84617  0  1.861359  0  0  -0.626997  -0.815136  0  1.914255  0
O  O62  1  0.69757759  0.39717416  0.67701708  1  0  -0.680497  0  1.974974  0  0  -0.617638  0  2.207331  0  0  -0.64528  0  2.198264  0  0  -0.339289  -0.597374  0  2.21277  0
O  O63  1  0.30242572  0.60282731  0.32298535  1  0  -0.680419  0  1.97512  0  0  -0.617553  0  2.207489  0  0  -0.645193  0  2.198418  0  0  -0.339214  -0.597289  0  2.21293  0
O  O64  1  0.53074600  0.07891145  0.70062805  1  0  -0.89141  0  1.826081  0  0  -0.84072  0  2.005574  0  0  -0.860959  0  1.975342  0  0  -0.64287  -0.826854  0  2.026614  0
O  O65  1  0.46925593  0.92108885  0.29937240  1  0  -0.891405  0  1.826107  0  0  -0.840766  0  2.005527  0  0  -0.861006  0  1.975294  0  0  -0.642878  -0.826902  0  2.026565  0
O  O66  1  0.83415431  0.21007338  0.71267132  1  0  -0.603079  0  1.902161  0  0  -0.558197  0  2.110896  0  0  -0.581675  0  2.099656  0  0  -0.307201  -0.541624  0  2.118917  0
O  O67  1  0.16584899  0.78992806  0.28732833  1  0  -0.603132  0  1.902197  0  0  -0.558239  0  2.110964  0  0  -0.581718  0  2.099725  0  0  -0.307225  -0.541666  0  2.118986  0
F  F68  1  0.29622221  0.87287615  0.82626022  1  0  -0.158368  0  1.2781  0  0  -0.093468  0  1.437063  0  0  -0.103024  0  1.42837  0  0  -0.061095  -0.086627  0  1.442924  0
F  F69  1  0.70377449  0.12712640  0.17373632  1  0  -0.158331  0  1.278175  0  0  -0.093413  0  1.437126  0  0  -0.102971  0  1.428433  0  0  -0.061049  -0.086573  0  1.442984  0
F  F70  1  0.06412744  0.81234120  0.97561303  1  0  -0.147093  0  1.255428  0  0  -0.097963  0  1.42332  0  0  -0.10555  0  1.413222  0  0  -0.077131  -0.092453  0  1.430442  0
F  F71  1  0.93587404  0.18766254  0.02438662  1  0  -0.14715  0  1.255403  0  0  -0.098015  0  1.423311  0  0  -0.1056  0  1.413208  0  0  -0.0772  -0.092505  0  1.430433  0
F  F72  1  0.83912858  0.55484353  0.92556445  1  0  -0.165068  0  1.247506  0  0  -0.09928  0  1.404131  0  0  -0.109277  0  1.396142  0  0  -0.069692  -0.09205  0  1.409573  0
F  F73  1  0.16087677  0.44515680  0.07443805  1  0  -0.165049  0  1.247484  0  0  -0.099248  0  1.404085  0  0  -0.109245  0  1.396097  0  0  -0.069698  -0.092019  0  1.409529  0
F  F74  1  0.08873528  0.40660035  0.57797902  1  0  -0.186391  0  1.232067  0  0  -0.137294  0  1.406863  0  0  -0.146282  0  1.396305  0  0  -0.068084  -0.130799  0  1.414237  0
F  F75  1  0.91126439  0.59340566  0.42201877  1  0  -0.186388  0  1.232076  0  0  -0.137298  0  1.406866  0  0  -0.146284  0  1.39631  0  0  -0.068083  -0.130804  0  1.414238  0
