# generated using pymatgen
data_CuH4C7N4O
_symmetry_space_group_name_H-M   'P 1'
_cell_length_a   7.79299479
_cell_length_b   9.11867933
_cell_length_c   11.80321779
_cell_angle_alpha   102.09521830
_cell_angle_beta   89.99930124
_cell_angle_gamma   90.00037956
_symmetry_Int_Tables_number   1
_chemical_formula_structural   CuH4C7N4O
_chemical_formula_sum   'Cu4 H16 C28 N16 O4'
_cell_volume   820.13832278
_cell_formula_units_Z   4
loop_
 _symmetry_equiv_pos_site_id
 _symmetry_equiv_pos_as_xyz
  1  'x, y, z'
loop_
 _atom_site_type_symbol
 _atom_site_label
 _atom_site_symmetry_multiplicity
 _atom_site_fract_x
 _atom_site_fract_y
 _atom_site_fract_z
 _atom_site_occupancy
 _atom_site_hle17_bader_spin_density
 _atom_site_hle17_ddec_charge
 _atom_site_hle17_ddec_spin_density
 _atom_site_hle17_ddec_sum_bond_order
 _atom_site_hle17_magmom
 _atom_site_hse06_10hf_bader_spin_density
 _atom_site_hse06_10hf_ddec_charge
 _atom_site_hse06_10hf_ddec_spin_density
 _atom_site_hse06_10hf_ddec_sum_bond_order
 _atom_site_hse06_10hf_magmom
 _atom_site_hse06_bader_spin_density
 _atom_site_hse06_ddec_charge
 _atom_site_hse06_ddec_spin_density
 _atom_site_hse06_ddec_sum_bond_order
 _atom_site_hse06_magmom
 _atom_site_pbe_bader_spin_density
 _atom_site_pbe_cm5_charge
 _atom_site_pbe_ddec_charge
 _atom_site_pbe_ddec_spin_density
 _atom_site_pbe_ddec_sum_bond_order
 _atom_site_pbe_magmom
Cu  Cu0  1  0.47981815  0.74389685  0.44760817  1  0  0.603086  0  2.020756  0  0  0.492157  0  2.542126  0  0  0.488406  0  2.495801  0  0  0.611498  0.497635  0  2.571372  0
Cu  Cu1  1  0.97985936  0.75610366  0.05239273  1  0  0.60314  0  2.021264  0  0  0.492096  0  2.542598  0  0  0.488371  0  2.496297  0  0  0.611499  0.497569  0  2.571834  0
Cu  Cu2  1  0.52013743  0.25610070  0.55239298  1  0  0.603035  0  2.021081  0  0  0.492023  0  2.54246  0  0  0.488293  0  2.496151  0  0  0.611483  0.497497  0  2.571715  0
Cu  Cu3  1  0.02017449  0.24389838  0.94760916  1  0  0.603089  0  2.020951  0  0  0.492077  0  2.542301  0  0  0.488339  0  2.495996  0  0  0.611487  0.497557  0  2.571532  0
H  H4  1  0.52250005  0.09007042  0.73609388  1  0  0.10062  0  0.98296  0  0  0.102178  0  1.055643  0  0  0.105188  0  1.052765  0  0  0.119312  0.099853  0  1.057876  0
H  H5  1  0.02253405  0.40992868  0.76390824  1  0  0.100498  0  0.983094  0  0  0.102103  0  1.055743  0  0  0.105113  0  1.052859  0  0  0.119274  0.099775  0  1.057984  0
H  H6  1  0.47747349  0.90992382  0.26390078  1  0  0.100613  0  0.983058  0  0  0.102212  0  1.055696  0  0  0.105224  0  1.05281  0  0  0.119314  0.099884  0  1.057939  0
H  H7  1  0.97749851  0.59007221  0.23609770  1  0  0.100636  0  0.982964  0  0  0.102223  0  1.055615  0  0  0.105235  0  1.052733  0  0  0.119327  0.099899  0  1.057852  0
H  H8  1  0.62524528  0.01008954  0.93997912  1  0  0.129706  0  0.952662  0  0  0.139749  0  1.008728  0  0  0.142368  0  1.009423  0  0  0.110836  0.137879  0  1.008364  0
H  H9  1  0.12524129  0.48991335  0.56001517  1  0  0.12971  0  0.952653  0  0  0.139737  0  1.008729  0  0  0.142348  0  1.00944  0  0  0.110826  0.137874  0  1.008338  0
H  H10  1  0.37476162  0.98991147  0.06001073  1  0  0.129683  0  0.952651  0  0  0.139728  0  1.008683  0  0  0.142333  0  1.009407  0  0  0.110829  0.137868  0  1.008292  0
H  H11  1  0.87476176  0.51009094  0.43998624  1  0  0.129706  0  0.952696  0  0  0.139742  0  1.008735  0  0  0.142347  0  1.009459  0  0  0.110834  0.137881  0  1.008347  0
H  H12  1  0.63252933  0.70288598  0.88666694  1  0  0.133578  0  0.961708  0  0  0.138427  0  1.029651  0  0  0.141475  0  1.027575  0  0  0.109893  0.136137  0  1.031223  0
H  H13  1  0.13251903  0.79711413  0.61332738  1  0  0.133657  0  0.9617  0  0  0.138507  0  1.02963  0  0  0.141555  0  1.027552  0  0  0.109928  0.136216  0  1.031209  0
H  H14  1  0.36748142  0.29711274  0.11332847  1  0  0.133591  0  0.961677  0  0  0.13844  0  1.029613  0  0  0.141488  0  1.027535  0  0  0.109901  0.136134  0  1.03121  0
H  H15  1  0.86748017  0.20288793  0.38667197  1  0  0.133686  0  0.961634  0  0  0.138543  0  1.029549  0  0  0.141591  0  1.027471  0  0  0.109942  0.136251  0  1.03113  0
H  H16  1  0.55671875  0.49376270  0.67871361  1  0  0.083564  0  0.981075  0  0  0.085571  0  1.065329  0  0  0.091102  0  1.056934  0  0  0.112764  0.081455  0  1.07131  0
H  H17  1  0.05673192  0.00623990  0.82128628  1  0  0.083518  0  0.98104  0  0  0.085521  0  1.06529  0  0  0.091057  0  1.05688  0  0  0.11275  0.081402  0  1.071274  0
H  H18  1  0.44326762  0.50623487  0.32128669  1  0  0.08353  0  0.981121  0  0  0.085515  0  1.06539  0  0  0.091059  0  1.056974  0  0  0.112749  0.081399  0  1.071373  0
H  H19  1  0.94328525  0.99376212  0.17871815  1  0  0.083528  0  0.981067  0  0  0.085555  0  1.065287  0  0  0.091089  0  1.056883  0  0  0.11278  0.081445  0  1.071259  0
C  C20  1  0.54381472  0.98240495  0.75886816  1  0  0.12947  0  3.56859  0  0  0.092968  0  3.827569  0  0  0.101598  0  3.842177  0  0  0.013226  0.087264  0  3.817973  0
C  C21  1  0.04384227  0.51759368  0.74113172  1  0  0.129643  0  3.568728  0  0  0.09318  0  3.827703  0  0  0.10183  0  3.842303  0  0  0.013235  0.087456  0  3.8181  0
C  C22  1  0.45616395  0.01759040  0.24112669  1  0  0.129522  0  3.568744  0  0  0.09301  0  3.827701  0  0  0.101654  0  3.8423  0  0  0.013244  0.087294  0  3.818102  0
C  C23  1  0.95618388  0.48240610  0.25887318  1  0  0.129452  0  3.568843  0  0  0.092884  0  3.8278  0  0  0.101518  0  3.842402  0  0  0.013223  0.087177  0  3.818204  0
C  C24  1  0.59322340  0.93711484  0.85782975  1  0  -0.171283  0  3.782827  0  0  -0.190281  0  4.045777  0  0  -0.19925  0  4.068952  0  0  -0.118205  -0.184375  0  4.030137  0
C  C25  1  0.09322745  0.56288736  0.64216692  1  0  -0.17134  0  3.782974  0  0  -0.190298  0  4.045914  0  0  -0.199268  0  4.069079  0  0  -0.118181  -0.184389  0  4.030275  0
C  C26  1  0.40677581  0.06288390  0.14216311  1  0  -0.171285  0  3.782958  0  0  -0.190242  0  4.04588  0  0  -0.199213  0  4.069046  0  0  -0.118236  -0.18433  0  4.030238  0
C  C27  1  0.90678459  0.43711355  0.35783562  1  0  -0.171219  0  3.782898  0  0  -0.190166  0  4.045819  0  0  -0.19913  0  4.068981  0  0  -0.11818  -0.184257  0  4.030181  0
C  C28  1  0.59762699  0.77786831  0.83020911  1  0  -0.136822  0  3.688098  0  0  -0.169483  0  3.948133  0  0  -0.166801  0  3.966476  0  0  -0.096164  -0.170868  0  3.935498  0
C  C29  1  0.09763176  0.72213165  0.66978800  1  0  -0.136979  0  3.688209  0  0  -0.169629  0  3.948224  0  0  -0.166945  0  3.966561  0  0  -0.096207  -0.171021  0  3.935604  0
C  C30  1  0.40237349  0.22212704  0.16978573  1  0  -0.136969  0  3.688158  0  0  -0.169592  0  3.948225  0  0  -0.166903  0  3.966569  0  0  -0.096197  -0.170974  0  3.935609  0
C  C31  1  0.90238155  0.27786927  0.33021370  1  0  -0.137084  0  3.688202  0  0  -0.169708  0  3.948294  0  0  -0.167019  0  3.966639  0  0  -0.096256  -0.171097  0  3.935666  0
C  C32  1  0.55202539  0.73467387  0.71458796  1  0  0.167793  0  3.773923  0  0  0.163192  0  4.033383  0  0  0.162384  0  4.053652  0  0  0.062959  0.163666  0  4.019703  0
C  C33  1  0.05205019  0.76532478  0.78541269  1  0  0.167926  0  3.773811  0  0  0.163359  0  4.033308  0  0  0.162565  0  4.053564  0  0  0.062943  0.163809  0  4.019639  0
C  C34  1  0.44795328  0.26531921  0.28541074  1  0  0.168073  0  3.773631  0  0  0.163346  0  4.033271  0  0  0.162533  0  4.05355  0  0  0.063012  0.16382  0  4.019577  0
C  C35  1  0.94797724  0.23467836  0.21459192  1  0  0.168097  0  3.773613  0  0  0.163278  0  4.033314  0  0  0.162454  0  4.053604  0  0  0.062964  0.163752  0  4.019632  0
C  C36  1  0.53875335  0.59204418  0.63980684  1  0  0.05367  0  3.709257  0  0  0.014654  0  3.968739  0  0  0.028427  0  3.975124  0  0  0.055622  0.004423  0  3.966782  0
C  C37  1  0.03877531  0.90795442  0.86019391  1  0  0.053793  0  3.709006  0  0  0.014811  0  3.968416  0  0  0.0286  0  3.974801  0  0  0.055779  0.004599  0  3.966426  0
C  C38  1  0.46122532  0.40794889  0.36019355  1  0  0.053699  0  3.708904  0  0  0.014744  0  3.968354  0  0  0.028531  0  3.974741  0  0  0.055716  0.004518  0  3.966373  0
C  C39  1  0.96124699  0.09204760  0.13981051  1  0  0.053693  0  3.708913  0  0  0.014714  0  3.968454  0  0  0.028498  0  3.97484  0  0  0.055647  0.004475  0  3.96651  0
C  C40  1  0.12580500  0.84705085  0.38741742  1  0  0.505804  0  3.990129  0  0  0.47551  0  4.263721  0  0  0.49693  0  4.277768  0  0  0.306071  0.460903  0  4.253928  0
C  C41  1  0.62584175  0.65295291  0.11257927  1  0  0.505591  0  3.989894  0  0  0.475429  0  4.26348  0  0  0.496839  0  4.277515  0  0  0.305876  0.460824  0  4.253686  0
C  C42  1  0.87414544  0.15295122  0.61258024  1  0  0.505638  0  3.98971  0  0  0.475445  0  4.263293  0  0  0.496855  0  4.277333  0  0  0.305859  0.46084  0  4.2535  0
C  C43  1  0.37419595  0.34704019  0.88741690  1  0  0.505627  0  3.990206  0  0  0.475332  0  4.263804  0  0  0.496748  0  4.277852  0  0  0.305988  0.460729  0  4.254003  0
C  C44  1  0.83220099  0.84957369  0.38516120  1  0  0.502288  0  3.982237  0  0  0.475661  0  4.250657  0  0  0.496322  0  4.26512  0  0  0.305042  0.461522  0  4.240644  0
C  C45  1  0.33223188  0.65043639  0.11484163  1  0  0.502057  0  3.982369  0  0  0.475581  0  4.250787  0  0  0.49623  0  4.265247  0  0  0.30497  0.461441  0  4.24077  0
C  C46  1  0.16775587  0.15043173  0.61483955  1  0  0.501853  0  3.98285  0  0  0.475331  0  4.251267  0  0  0.495984  0  4.265719  0  0  0.304785  0.461194  0  4.241255  0
C  C47  1  0.66780582  0.34956343  0.88515734  1  0  0.502323  0  3.982109  0  0  0.475708  0  4.250529  0  0  0.496363  0  4.264994  0  0  0.305145  0.461569  0  4.240511  0
N  N48  1  0.50505096  0.57470953  0.52885516  1  0  -0.210974  0  3.329511  0  0  -0.153039  0  3.643164  0  0  -0.160632  0  3.648148  0  0  -0.274186  -0.148209  0  3.63914  0
N  N49  1  0.00507872  0.92528782  0.97114735  1  0  -0.211004  0  3.32925  0  0  -0.152974  0  3.642805  0  0  -0.160616  0  3.647823  0  0  -0.274251  -0.148142  0  3.63878  0
N  N50  1  0.49491745  0.42528802  0.47114682  1  0  -0.21091  0  3.32914  0  0  -0.152848  0  3.642672  0  0  -0.160493  0  3.647687  0  0  -0.274171  -0.148012  0  3.638653  0
N  N51  1  0.99494744  0.07471307  0.02885858  1  0  -0.210987  0  3.329294  0  0  -0.152993  0  3.642879  0  0  -0.160603  0  3.647882  0  0  -0.274147  -0.14816  0  3.63885  0
N  N52  1  0.26444070  0.80964547  0.40951463  1  0  -0.615203  0  3.135496  0  0  -0.570355  0  3.487925  0  0  -0.582004  0  3.481282  0  0  -0.448656  -0.563033  0  3.492039  0
N  N53  1  0.76448071  0.69035871  0.09049201  1  0  -0.615114  0  3.135405  0  0  -0.570224  0  3.487716  0  0  -0.581873  0  3.481082  0  0  -0.448439  -0.562899  0  3.491822  0
N  N54  1  0.73550589  0.19035994  0.59048697  1  0  -0.615188  0  3.135265  0  0  -0.570315  0  3.48765  0  0  -0.581963  0  3.481009  0  0  -0.448513  -0.562994  0  3.491771  0
N  N55  1  0.23555699  0.30963657  0.90951299  1  0  -0.615117  0  3.13561  0  0  -0.570236  0  3.48798  0  0  -0.581891  0  3.481353  0  0  -0.448627  -0.562912  0  3.492078  0
N  N56  1  0.69091226  0.81520951  0.40357825  1  0  -0.600726  0  3.107643  0  0  -0.558346  0  3.452913  0  0  -0.569412  0  3.447033  0  0  -0.443162  -0.551457  0  3.456692  0
N  N57  1  0.19094375  0.68479448  0.09641879  1  0  -0.600635  0  3.108008  0  0  -0.558239  0  3.453226  0  0  -0.569298  0  3.447336  0  0  -0.443133  -0.551354  0  3.457013  0
N  N58  1  0.30903690  0.18478806  0.59642120  1  0  -0.600263  0  3.108232  0  0  -0.55786  0  3.45344  0  0  -0.568917  0  3.447554  0  0  -0.442853  -0.550978  0  3.45723  0
N  N59  1  0.80909010  0.31520983  0.90357924  1  0  -0.600708  0  3.107817  0  0  -0.558316  0  3.453084  0  0  -0.569378  0  3.447199  0  0  -0.443203  -0.551427  0  3.456855  0
N  N60  1  0.98041017  0.89715068  0.35812021  1  0  -0.474524  0  3.289097  0  0  -0.417321  0  3.543476  0  0  -0.44052  0  3.550062  0  0  -0.30798  -0.400756  0  3.538112  0
N  N61  1  0.48044019  0.60286439  0.14188648  1  0  -0.474262  0  3.289009  0  0  -0.417336  0  3.543546  0  0  -0.44054  0  3.550161  0  0  -0.307949  -0.400772  0  3.538176  0
N  N62  1  0.01953771  0.10285698  0.64188091  1  0  -0.474336  0  3.289062  0  0  -0.417343  0  3.543559  0  0  -0.440544  0  3.550172  0  0  -0.30794  -0.400783  0  3.538191  0
N  N63  1  0.51959237  0.39713768  0.85811202  1  0  -0.474468  0  3.288886  0  0  -0.417274  0  3.543282  0  0  -0.440456  0  3.549846  0  0  -0.307993  -0.40071  0  3.537916  0
O  O64  1  0.51832807  0.86117166  0.67082593  1  0  -0.200087  0  2.429175  0  0  -0.121316  0  2.65805  0  0  -0.135642  0  2.662486  0  0  -0.118896  -0.112122  0  2.655446  0
O  O65  1  0.01836521  0.63882572  0.82917818  1  0  -0.200214  0  2.429025  0  0  -0.121656  0  2.658079  0  0  -0.136012  0  2.662533  0  0  -0.118965  -0.112414  0  2.655439  0
O  O66  1  0.48164419  0.13882253  0.32917380  1  0  -0.200269  0  2.429153  0  0  -0.121551  0  2.658161  0  0  -0.135891  0  2.662609  0  0  -0.118965  -0.112333  0  2.65553  0
O  O67  1  0.98167378  0.36117739  0.17083066  1  0  -0.200217  0  2.429287  0  0  -0.1213  0  2.658141  0  0  -0.135631  0  2.662587  0  0  -0.118875  -0.112106  0  2.655533  0
