# generated using pymatgen
data_AlH27(C4O)12
_symmetry_space_group_name_H-M   'P 1'
_cell_length_a   4.05351968
_cell_length_b   23.53341844
_cell_length_c   23.49115947
_cell_angle_alpha   60.07447785
_cell_angle_beta   88.41050543
_cell_angle_gamma   88.21628705
_symmetry_Int_Tables_number   1
_chemical_formula_structural   AlH27(C4O)12
_chemical_formula_sum   'Al1 H27 C48 O12'
_cell_volume   1940.99401353
_cell_formula_units_Z   1
loop_
 _symmetry_equiv_pos_site_id
 _symmetry_equiv_pos_as_xyz
  1  'x, y, z'
loop_
 _atom_site_type_symbol
 _atom_site_label
 _atom_site_symmetry_multiplicity
 _atom_site_fract_x
 _atom_site_fract_y
 _atom_site_fract_z
 _atom_site_occupancy
 _atom_site_pbe_bader_charge
 _atom_site_pbe_bader_spin_density
 _atom_site_pbe_cm5_charge
 _atom_site_pbe_ddec_charge
 _atom_site_pbe_ddec_spin_density
 _atom_site_pbe_ddec_sum_bond_order
 _atom_site_pbe_magmom
Al  Al0  1  0.03418198  0.49935043  0.49936019  1  2.507292  0  0.434459  1.60718  0  2.567241  0
H  H1  1  0.25170589  0.32857549  0.67740278  1  0.093135  0  0.11375  0.119713  0  0.971787  0
H  H2  1  0.26891152  0.26107821  0.79778273  1  0.123795  0  0.106951  0.11454  0  1.02263  0
H  H3  1  0.75862683  0.15154640  0.02151533  1  0.086805  0  0.101277  0.097797  0  1.034634  0
H  H4  1  0.80807245  0.68426804  0.33401571  1  0.071217  0  0.109114  0.115293  0  0.98076  0
H  H5  1  0.80825284  0.80562514  0.27928282  1  0.053513  0  0.096613  0.09338  0  1.01309  0
H  H6  1  0.31154400  0.88663456  0.23731181  1  0.085817  0  0.106891  0.109449  0  0.996029  0
H  H7  1  0.27706723  0.00647768  0.17044918  1  0.064367  0  0.104076  0.104893  0  0.996133  0
H  H8  1  0.48759101  0.10022718  0.11029602  1  0.052399  0  0.098603  0.097821  0  1.030888  0
H  H9  1  0.22988748  0.67738811  0.49407332  1  0.099516  0  0.113787  0.119651  0  0.970858  0
H  H10  1  0.24519771  0.79756029  0.44157038  1  0.094389  0  0.107193  0.116102  0  1.02181  0
H  H11  1  0.73383871  0.02080695  0.32554861  1  0.054315  0  0.101456  0.097276  0  1.03827  0
H  H12  1  0.84886519  0.33525995  0.47604744  1  0.081916  0  0.109382  0.11535  0  0.981031  0
H  H13  1  0.85141627  0.27968695  0.40991517  1  0.048236  0  0.096038  0.092363  0  1.017462  0
H  H14  1  0.33878793  0.23892200  0.37566348  1  0.063394  0  0.106604  0.109097  0  0.998058  0
H  H15  1  0.28944295  0.17195591  0.32310477  1  0.084056  0  0.104241  0.105618  0  0.994677  0
H  H16  1  0.50598852  0.11005083  0.28805016  1  0.081851  0  0.098666  0.098312  0  1.032024  0
H  H17  1  0.26735437  0.49435630  0.32795276  1  0.055914  0  0.112868  0.118855  0  0.973529  0
H  H18  1  0.28742613  0.44108163  0.26034599  1  0.13074  0  0.108098  0.117524  0  1.01357  0
H  H19  1  0.77891312  0.32142598  0.15096781  1  0.067706  0  0.101319  0.097586  0  1.035466  0
H  H20  1  0.79775967  0.47892466  0.68492939  1  0.082263  0  0.109281  0.115392  0  0.981191  0
H  H21  1  0.79743870  0.41269422  0.80652507  1  0.067319  0  0.096674  0.093401  0  1.014006  0
H  H22  1  0.29199681  0.37478124  0.88760069  1  0.07267  0  0.107116  0.109374  0  0.995057  0
H  H23  1  0.25385267  0.32098181  0.00791270  1  0.073147  0  0.104143  0.104897  0  0.993952  0
H  H24  1  0.50592107  0.28713975  0.10069304  1  0.098272  0  0.098412  0.097373  0  1.03144  0
H  H25  1  0.18474959  0.36845848  0.15958500  1  0.611408  0  0.305247  0.33359  0  0.960626  0
H  H26  1  0.16345498  0.16231390  0.96209811  1  0.593886  0  0.306603  0.334654  0  0.957373  0
H  H27  1  0.12780085  0.96138294  0.37486088  1  0.604773  0  0.306895  0.335517  0  0.956614  0
C  C28  1  0.52791448  0.44668357  0.60003157  1  1.61292  0  0.28637  0.67773  0  4.038737  0
C  C29  1  0.55063799  0.45219806  0.44575176  1  1.576564  0  0.286619  0.676912  0  4.041994  0
C  C30  1  0.52363480  0.59985863  0.45177580  1  1.59837  0  0.286456  0.677208  0  4.041055  0
C  C31  1  0.37715134  0.34650969  0.70563040  1  -0.096764  0  -0.078106  -0.091345  0  3.952877  0
C  C32  1  0.38494162  0.30856576  0.77376656  1  0.054051  0  -0.078236  -0.092221  0  3.950706  0
C  C33  1  0.66957071  0.23014099  0.92330816  1  0.036933  0  -0.016859  -0.105973  0  3.975934  0
C  C34  1  0.65177514  0.20061897  0.99207506  1  -0.163217  0  -0.097912  -0.187886  0  4.022557  0
C  C35  1  0.67985474  0.70941121  0.35679654  1  0.066699  0  -0.08614  -0.105489  0  3.996314  0
C  C36  1  0.68045263  0.77755149  0.32640342  1  -0.14169  0  -0.092138  -0.132848  0  4.015526  0
C  C37  1  0.40639363  0.91623118  0.25682832  1  -0.119341  0  -0.084149  -0.123765  0  3.976297  0
C  C38  1  0.38926140  0.98419229  0.21874773  1  0.025662  0  -0.085212  -0.110912  0  3.976125  0
C  C39  1  0.52633413  0.40773625  0.67347514  1  -0.054146  0  -0.004173  -0.025512  0  3.966113  0
C  C40  1  0.53695534  0.33169682  0.81104637  1  -0.054702  0  -0.014894  0.041241  0  4.013317  0
C  C41  1  0.53575715  0.29432907  0.88392917  1  0.007801  0  0.012008  0.075835  0  3.924475  0
C  C42  1  0.50431173  0.23135836  0.02456799  1  0.081171  0  -0.013625  0.06158  0  4.023882  0
C  C43  1  0.49375751  0.19765841  0.09719126  1  0.029812  0  -0.008109  0.084143  0  4.019961  0
C  C44  1  0.48987308  0.12900626  0.13496085  1  -0.156621  0  -0.090687  -0.180028  0  3.92871  0
C  C45  1  0.36159937  0.70542276  0.44745909  1  -0.072016  0  -0.078371  -0.091027  0  3.95217  0
C  C46  1  0.36867904  0.77345246  0.41752100  1  -0.034939  0  -0.078444  -0.095223  0  3.949998  0
C  C47  1  0.65031222  0.92286300  0.34564182  1  -0.018937  0  -0.016352  -0.107446  0  3.977847  0
C  C48  1  0.63642163  0.99145685  0.30600877  1  -0.049682  0  -0.098626  -0.186547  0  4.019858  0
C  C49  1  0.72104734  0.35775541  0.42932516  1  0.007493  0  -0.086295  -0.104439  0  3.994694  0
C  C50  1  0.72337377  0.32689838  0.39184206  1  -0.053177  0  -0.092705  -0.134255  0  4.016694  0
C  C51  1  0.43678023  0.25717726  0.32601273  1  -0.030083  0  -0.083738  -0.123418  0  3.975239  0
C  C52  1  0.41201430  0.21897987  0.29648101  1  0.026411  0  -0.08491  -0.111687  0  3.977459  0
C  C53  1  0.52032731  0.67316412  0.41765991  1  0.006527  0  -0.003827  -0.024542  0  3.966883  0
C  C54  1  0.53020011  0.81050688  0.35669839  1  0.050201  0  -0.014448  0.042789  0  4.010039  0
C  C55  1  0.52956910  0.88326369  0.32120375  1  0.011946  0  0.011996  0.076918  0  3.925011  0
C  C56  1  0.50391169  0.02384486  0.24279961  1  -0.076612  0  -0.013204  0.061928  0  4.019218  0
C  C57  1  0.49434427  0.09639316  0.20378811  1  0.03532  0  -0.008069  0.083799  0  4.016831  0
C  C58  1  0.50083983  0.13429680  0.23465096  1  0.011267  0  -0.090298  -0.178529  0  3.926224  0
C  C59  1  0.40156070  0.44790497  0.34528825  1  0.041712  0  -0.077808  -0.091882  0  3.954213  0
C  C60  1  0.41131776  0.41760683  0.30730367  1  -0.041608  0  -0.077496  -0.093559  0  3.949127  0
C  C61  1  0.69739880  0.34315246  0.22895719  1  -0.070066  0  -0.015517  -0.103103  0  3.975165  0
C  C62  1  0.67704316  0.30333025  0.20032632  1  -0.079632  0  -0.098657  -0.18979  0  4.023904  0
C  C63  1  0.67636709  0.43172652  0.70995938  1  -0.049281  0  -0.086508  -0.105353  0  3.995137  0
C  C64  1  0.67685299  0.39418360  0.77825149  1  -0.031943  0  -0.092352  -0.132963  0  4.016039  0
C  C65  1  0.39674900  0.32553822  0.91709638  1  -0.07328  0  -0.083318  -0.121022  0  3.971742  0
C  C66  1  0.37741702  0.29526812  0.98519827  1  -0.062862  0  -0.085077  -0.111025  0  3.975736  0
C  C67  1  0.55884859  0.41849066  0.40597235  1  -0.038755  0  -0.00486  -0.025996  0  3.967065  0
C  C68  1  0.57367941  0.35669367  0.33004130  1  -0.035801  0  -0.014631  0.043071  0  4.010694  0
C  C69  1  0.57072910  0.32038718  0.29345084  1  0.001002  0  0.012678  0.077889  0  3.924082  0
C  C70  1  0.53012349  0.24168632  0.23207688  1  -0.102032  0  -0.013921  0.060587  0  4.023527  0
C  C71  1  0.50686349  0.20291752  0.19851687  1  -0.0468  0  -0.007936  0.083666  0  4.022269  0
C  C72  1  0.50036854  0.23382838  0.12976112  1  -0.156133  0  -0.091185  -0.180404  0  3.931854  0
C  C73  1  0.84763388  0.40950660  0.18775580  1  1.53053  0  0.230532  0.56843  0  4.095134  0
C  C74  1  0.82905132  0.19036506  0.89553893  1  1.516298  0  0.230343  0.566698  0  4.096729  0
C  C75  1  0.79050952  0.89560191  0.41325135  1  1.527858  0  0.229819  0.566409  0  4.097894  0
O  O76  1  0.29381721  0.57253869  0.43880020  1  -1.253931  0  -0.235084  -0.598259  0  2.340866  0
O  O77  1  0.28800897  0.48680720  0.57259508  1  -1.257411  0  -0.23516  -0.598872  0  2.34294  0
O  O78  1  0.31164793  0.43920422  0.48653506  1  -1.249227  0  -0.235653  -0.59946  0  2.342745  0
O  O79  1  0.75702509  0.57003088  0.49186209  1  -1.25823  0  -0.235182  -0.600264  0  2.347984  0
O  O80  1  0.78184177  0.49171502  0.43574056  1  -1.25079  0  -0.234616  -0.59876  0  2.347503  0
O  O81  1  0.76926477  0.43632193  0.57024060  1  -1.257651  0  -0.235011  -0.599731  0  2.346142  0
O  O82  1  0.09245300  0.41247393  0.14492424  1  -1.121256  0  -0.348254  -0.470545  0  2.234855  0
O  O83  1  0.75984556  0.45913591  0.18793249  1  -1.093833  0  -0.250005  -0.408991  0  2.105635  0
O  O84  1  0.07742142  0.14826148  0.93265202  1  -1.10222  0  -0.347818  -0.470099  0  2.238191  0
O  O85  1  0.74707396  0.19109143  0.84593713  1  -1.094255  0  -0.249637  -0.407643  0  2.110974  0
O  O86  1  0.03090853  0.93253042  0.41825661  1  -1.11427  0  -0.347118  -0.469808  0  2.239912  0
O  O87  1  0.69901722  0.84657942  0.46219047  1  -1.097467  0  -0.250245  -0.408207  0  2.111291  0
