# generated using pymatgen
data_Tb2H16C12S3O14
_symmetry_space_group_name_H-M   'P 1'
_cell_length_a   7.93794078
_cell_length_b   10.51782705
_cell_length_c   14.15876569
_cell_angle_alpha   71.24816357
_cell_angle_beta   75.99250190
_cell_angle_gamma   77.40403692
_symmetry_Int_Tables_number   1
_chemical_formula_structural   Tb2H16C12S3O14
_chemical_formula_sum   'Tb4 H32 C24 S6 O28'
_cell_volume   1073.35043786
_cell_formula_units_Z   2
loop_
 _symmetry_equiv_pos_site_id
 _symmetry_equiv_pos_as_xyz
  1  'x, y, z'
loop_
 _atom_site_type_symbol
 _atom_site_label
 _atom_site_symmetry_multiplicity
 _atom_site_fract_x
 _atom_site_fract_y
 _atom_site_fract_z
 _atom_site_occupancy
 _atom_site_hle17_bader_spin_density
 _atom_site_hle17_ddec_charge
 _atom_site_hle17_ddec_spin_density
 _atom_site_hle17_ddec_sum_bond_order
 _atom_site_hle17_magmom
 _atom_site_hse06_10hf_bader_spin_density
 _atom_site_hse06_10hf_ddec_charge
 _atom_site_hse06_10hf_ddec_spin_density
 _atom_site_hse06_10hf_ddec_sum_bond_order
 _atom_site_hse06_10hf_magmom
 _atom_site_hse06_bader_spin_density
 _atom_site_hse06_ddec_charge
 _atom_site_hse06_ddec_spin_density
 _atom_site_hse06_ddec_sum_bond_order
 _atom_site_hse06_magmom
 _atom_site_pbe_bader_spin_density
 _atom_site_pbe_cm5_charge
 _atom_site_pbe_ddec_charge
 _atom_site_pbe_ddec_spin_density
 _atom_site_pbe_ddec_sum_bond_order
 _atom_site_pbe_magmom
Tb  Tb0  1  0.91019638  0.40732527  0.64133575  1  0  2.235432  0  1.719099  0  0  2.081876  0  2.188963  0  0  2.205895  0  2.008727  0  0  1.472009  2.041466  0  2.224911  0
Tb  Tb1  1  0.08980238  0.59267481  0.35866304  1  0  2.235416  0  1.719097  0  0  2.08186  0  2.189016  0  0  2.205903  0  2.008729  0  0  1.472007  2.041444  0  2.224967  0
Tb  Tb2  1  0.49336932  0.19660802  0.90296726  1  0  2.265745  0  1.596253  0  0  2.117947  0  2.058367  0  0  2.242155  0  1.876118  0  0  1.498785  2.081415  0  2.090233  0
Tb  Tb3  1  0.50663075  0.80339209  0.09703417  1  0  2.265743  0  1.596256  0  0  2.117946  0  2.058358  0  0  2.242149  0  1.876116  0  0  1.498783  2.081408  0  2.090226  0
H  H4  1  0.51472269  0.27259847  0.67534377  1  0  0.458351  0  0.827777  0  0  0.429405  0  0.887283  0  0  0.440005  0  0.871907  0  0  0.311288  0.422134  0  0.897976  0
H  H5  1  0.48527627  0.72740060  0.32465665  1  0  0.458336  0  0.82779  0  0  0.429396  0  0.887285  0  0  0.439995  0  0.87191  0  0  0.311288  0.422124  0  0.897979  0
H  H6  1  0.31146241  0.26851669  0.72905618  1  0  0.449105  0  0.845599  0  0  0.41753  0  0.91048  0  0  0.429026  0  0.893884  0  0  0.305515  0.409605  0  0.922057  0
H  H7  1  0.68853485  0.73148442  0.27094539  1  0  0.449088  0  0.845626  0  0  0.417513  0  0.910507  0  0  0.429007  0  0.893915  0  0  0.305507  0.409587  0  0.922084  0
H  H8  1  0.31338989  0.10279420  0.11175969  1  0  0.42571  0  0.887296  0  0  0.394245  0  0.952619  0  0  0.405632  0  0.936549  0  0  0.294684  0.386062  0  0.964453  0
H  H9  1  0.68660867  0.89720691  0.88824100  1  0  0.425724  0  0.887273  0  0  0.394256  0  0.9526  0  0  0.405642  0  0.936532  0  0  0.294702  0.386067  0  0.964445  0
H  H10  1  0.21453109  0.23927959  0.05231785  1  0  0.40899  0  0.883728  0  0  0.377245  0  0.965312  0  0  0.387536  0  0.95031  0  0  0.293473  0.369773  0  0.976402  0
H  H11  1  0.78546638  0.76072051  0.94768394  1  0  0.40901  0  0.883784  0  0  0.377233  0  0.965371  0  0  0.387529  0  0.95036  0  0  0.293451  0.369764  0  0.97645  0
H  H12  1  0.02160715  0.52961456  0.91027486  1  0  0.132647  0  0.932526  0  0  0.14381  0  0.995381  0  0  0.146474  0  0.993637  0  0  0.107655  0.142118  0  0.99626  0
H  H13  1  0.97839919  0.47038654  0.08972195  1  0  0.132617  0  0.932577  0  0  0.143772  0  0.995433  0  0  0.146434  0  0.993688  0  0  0.107634  0.142067  0  0.99633  0
H  H14  1  0.84778387  0.43433114  0.93690899  1  0  0.164257  0  0.902495  0  0  0.1806  0  0.953664  0  0  0.18377  0  0.95147  0  0  0.125956  0.178412  0  0.95522  0
H  H15  1  0.15221886  0.56567505  0.06308919  1  0  0.164298  0  0.902361  0  0  0.180633  0  0.953541  0  0  0.183802  0  0.951347  0  0  0.125943  0.178447  0  0.955092  0
H  H16  1  0.58728704  0.63554697  0.88428187  1  0  0.159237  0  0.926208  0  0  0.169301  0  0.982755  0  0  0.173096  0  0.980311  0  0  0.115846  0.166653  0  0.98442  0
H  H17  1  0.41272101  0.36445212  0.11571802  1  0  0.159236  0  0.92621  0  0  0.16929  0  0.982747  0  0  0.173089  0  0.980292  0  0  0.115838  0.166645  0  0.984416  0
H  H18  1  0.56711025  0.67234846  0.75495117  1  0  0.14016  0  0.943474  0  0  0.144476  0  1.015141  0  0  0.148302  0  1.012088  0  0  0.108767  0.141825  0  1.017123  0
H  H19  1  0.43289200  0.32765369  0.24505017  1  0  0.140161  0  0.943449  0  0  0.144465  0  1.015101  0  0  0.1483  0  1.012042  0  0  0.108764  0.141817  0  1.017095  0
H  H20  1  0.25419141  0.01821659  0.79301920  1  0  0.14407  0  0.905046  0  0  0.160515  0  0.954953  0  0  0.163384  0  0.953347  0  0  0.119812  0.158519  0  0.956082  0
H  H21  1  0.74580995  0.98178351  0.20698135  1  0  0.144047  0  0.905063  0  0  0.160493  0  0.954975  0  0  0.163359  0  0.953372  0  0  0.119815  0.158499  0  0.956099  0
H  H22  1  0.06549345  0.04734443  0.88414125  1  0  0.141825  0  0.905852  0  0  0.156763  0  0.9585  0  0  0.159628  0  0.957355  0  0  0.119003  0.154898  0  0.959014  0
H  H23  1  0.93450490  0.95265769  0.11585780  1  0  0.141786  0  0.90591  0  0  0.156737  0  0.958552  0  0  0.159603  0  0.957402  0  0  0.118999  0.154872  0  0.95906  0
H  H24  1  0.08008525  0.97087946  0.67026479  1  0  0.119874  0  0.953541  0  0  0.125796  0  1.020978  0  0  0.129088  0  1.018635  0  0  0.095956  0.123562  0  1.022448  0
H  H25  1  0.91991242  0.02911961  0.32973652  1  0  0.119863  0  0.953535  0  0  0.125783  0  1.020971  0  0  0.129075  0  1.018628  0  0  0.095943  0.123546  0  1.022436  0
H  H26  1  0.90464907  0.87226022  0.72455786  1  0  0.126042  0  0.945098  0  0  0.13573  0  1.00809  0  0  0.138538  0  1.006439  0  0  0.10016  0.133774  0  1.009117  0
H  H27  1  0.09535140  0.12773786  0.27544472  1  0  0.126074  0  0.945058  0  0  0.135762  0  1.008049  0  0  0.138569  0  1.006398  0  0  0.10018  0.133802  0  1.009075  0
H  H28  1  0.77146112  0.41407349  0.32210361  1  0  0.128966  0  0.935707  0  0  0.142671  0  0.993156  0  0  0.144958  0  0.992212  0  0  0.107969  0.141065  0  0.993845  0
H  H29  1  0.22854003  0.58592764  0.67789813  1  0  0.129003  0  0.935677  0  0  0.142701  0  0.993128  0  0  0.144989  0  0.992183  0  0  0.107983  0.141092  0  0.993824  0
H  H30  1  0.55599916  0.45288140  0.39048479  1  0  0.15009  0  0.936605  0  0  0.158902  0  0.996485  0  0  0.162914  0  0.994347  0  0  0.115441  0.156104  0  0.997902  0
H  H31  1  0.44400220  0.54711870  0.60951577  1  0  0.150096  0  0.936609  0  0  0.15892  0  0.996471  0  0  0.162933  0  0.994334  0  0  0.11546  0.156123  0  0.997885  0
H  H32  1  0.40631918  0.09931863  0.49086990  1  0  0.126578  0  0.92099  0  0  0.145046  0  0.973142  0  0  0.146554  0  0.972577  0  0  0.110091  0.143955  0  0.973596  0
H  H33  1  0.59367876  0.90068549  0.50912590  1  0  0.126601  0  0.92093  0  0  0.145066  0  0.973072  0  0  0.146573  0  0.97251  0  0  0.110099  0.143974  0  0.973526  0
H  H34  1  0.48742719  0.15734708  0.57287667  1  0  0.126608  0  0.942037  0  0  0.138215  0  1.002242  0  0  0.141993  0  0.998855  0  0  0.103532  0.135663  0  1.004389  0
H  H35  1  0.51256727  0.84265499  0.42712010  1  0  0.12661  0  0.942034  0  0  0.138185  0  1.002275  0  0  0.141963  0  0.99888  0  0  0.10351  0.13563  0  1.004417  0
C  C36  1  0.08532448  0.36231226  0.84695694  1  0  0.776805  0  3.79783  0  0  0.727528  0  4.098721  0  0  0.762892  0  4.091716  0  0  0.237265  0.703831  0  4.105177  0
C  C37  1  0.91467449  0.63768680  0.15304278  1  0  0.776749  0  3.797847  0  0  0.727483  0  4.098711  0  0  0.762845  0  4.091708  0  0  0.237234  0.703781  0  4.105173  0
C  C38  1  0.95410027  0.47818552  0.87745984  1  0  -0.324293  0  3.586372  0  0  -0.358822  0  3.84317  0  0  -0.363367  0  3.847266  0  0  -0.146396  -0.355788  0  3.840606  0
C  C39  1  0.04590197  0.52181660  0.12253798  1  0  -0.324242  0  3.586196  0  0  -0.358754  0  3.842951  0  0  -0.363289  0  3.847031  0  0  -0.146332  -0.355715  0  3.840395  0
C  C40  1  0.57928494  0.46295687  0.83578609  1  0  0.736228  0  3.83852  0  0  0.693298  0  4.131554  0  0  0.726222  0  4.132645  0  0  0.20889  0.670329  0  4.136574  0
C  C41  1  0.42071902  0.53704324  0.16421481  1  0  0.736251  0  3.838548  0  0  0.693276  0  4.131623  0  0  0.726199  0  4.132716  0  0  0.208894  0.670303  0  4.136651  0
C  C42  1  0.63140329  0.59978339  0.81642398  1  0  -0.310054  0  3.621262  0  0  -0.336809  0  3.868175  0  0  -0.341955  0  3.872468  0  0  -0.145533  -0.332965  0  3.865376  0
C  C43  1  0.36860067  0.40021671  0.18357621  1  0  -0.310001  0  3.621211  0  0  -0.336674  0  3.868022  0  0  -0.341829  0  3.872311  0  0  -0.145484  -0.332841  0  3.865254  0
C  C44  1  0.27807357  0.91457460  0.94679345  1  0  0.764095  0  3.813646  0  0  0.721077  0  4.104195  0  0  0.755421  0  4.101717  0  0  0.222446  0.697678  0  4.110111  0
C  C45  1  0.72192629  0.08542652  0.05320777  1  0  0.764131  0  3.813557  0  0  0.721114  0  4.104105  0  0  0.755457  0  4.101627  0  0  0.222487  0.697716  0  4.110024  0
C  C46  1  0.17094760  0.96785095  0.86368022  1  0  -0.305916  0  3.611108  0  0  -0.336917  0  3.865881  0  0  -0.341876  0  3.869097  0  0  -0.141584  -0.333345  0  3.862816  0
C  C47  1  0.82905246  0.03214914  0.13632051  1  0  -0.305826  0  3.611199  0  0  -0.336852  0  3.865999  0  0  -0.341807  0  3.869212  0  0  -0.141582  -0.333277  0  3.862918  0
C  C48  1  0.85757543  0.06644987  0.75671318  1  0  0.782379  0  3.786722  0  0  0.744268  0  4.069084  0  0  0.779246  0  4.062115  0  0  0.242062  0.720807  0  4.075441  0
C  C49  1  0.14242224  0.93354921  0.24328883  1  0  0.782287  0  3.7867  0  0  0.74418  0  4.069077  0  0  0.779152  0  4.062118  0  0  0.242016  0.720708  0  4.075442  0
C  C50  1  0.97879210  0.94018550  0.73743152  1  0  -0.327103  0  3.656909  0  0  -0.357423  0  3.905219  0  0  -0.363  0  3.909535  0  0  -0.155699  -0.353361  0  3.901179  0
C  C51  1  0.02120686  0.05981357  0.26256961  1  0  -0.327079  0  3.656961  0  0  -0.357371  0  3.905207  0  0  -0.362948  0  3.909527  0  0  -0.155667  -0.353302  0  3.901156  0
C  C52  1  0.75680728  0.38357904  0.48077791  1  0  0.758141  0  3.797353  0  0  0.713301  0  4.091492  0  0  0.74801  0  4.088076  0  0  0.219878  0.689463  0  4.098045  0
C  C53  1  0.24319019  0.61642106  0.51922388  1  0  0.757882  0  3.797606  0  0  0.713113  0  4.091639  0  0  0.747821  0  4.08823  0  0  0.219831  0.689297  0  4.098167  0
C  C54  1  0.67994940  0.38166130  0.39362679  1  0  -0.304012  0  3.600472  0  0  -0.333117  0  3.852037  0  0  -0.337959  0  3.854082  0  0  -0.148202  -0.329542  0  3.849817  0
C  C55  1  0.32004957  0.61833777  0.60637364  1  0  -0.303984  0  3.600559  0  0  -0.333119  0  3.852106  0  0  -0.337968  0  3.85416  0  0  -0.148228  -0.329556  0  3.849888  0
C  C56  1  0.29395733  0.30100921  0.49431826  1  0  0.770051  0  3.803049  0  0  0.729247  0  4.093367  0  0  0.764434  0  4.086817  0  0  0.228246  0.70582  0  4.099097  0
C  C57  1  0.70603664  0.69898878  0.50567675  1  0  0.770074  0  3.803284  0  0  0.729226  0  4.093627  0  0  0.764414  0  4.087078  0  0  0.228274  0.705791  0  4.099368  0
C  C58  1  0.45132538  0.18728642  0.49790487  1  0  -0.312724  0  3.653124  0  0  -0.349025  0  3.916571  0  0  -0.352744  0  3.918946  0  0  -0.15574  -0.346226  0  3.913865  0
C  C59  1  0.54867187  0.81271464  0.50209177  1  0  -0.312776  0  3.653044  0  0  -0.349019  0  3.916453  0  0  -0.352737  0  3.918823  0  0  -0.155772  -0.346212  0  3.913742  0
S  S60  1  0.86389375  0.59976824  0.77109352  1  0  0.011419  0  2.475608  0  0  0.014772  0  2.82747  0  0  0.006847  0  2.823094  0  0  0.007035  0.016524  0  2.829712  0
S  S61  1  0.13611021  0.40023184  0.22890456  1  0  0.011318  0  2.475574  0  0  0.014654  0  2.827375  0  0  0.006719  0  2.823004  0  0  0.006997  0.016418  0  2.829611  0
S  S62  1  0.08013344  0.83598659  0.84483488  1  0  0.030975  0  2.345303  0  0  0.028463  0  2.691066  0  0  0.028326  0  2.686772  0  0  -0.009494  0.029342  0  2.693422  0
S  S63  1  0.91986573  0.16401147  0.15516647  1  0  0.030943  0  2.345379  0  0  0.028418  0  2.691158  0  0  0.028281  0  2.686862  0  0  -0.009513  0.029292  0  2.693511  0
S  S64  1  0.63891175  0.21711955  0.39658806  1  0  0.020348  0  2.339787  0  0  0.015322  0  2.682301  0  0  0.014484  0  2.677419  0  0  -0.018389  0.016369  0  2.685338  0
S  S65  1  0.36108701  0.78288053  0.60341073  1  0  0.020389  0  2.339741  0  0  0.015354  0  2.682235  0  0  0.014518  0  2.677354  0  0  -0.018363  0.016396  0  2.685273  0
O  O66  1  0.09438494  0.34482419  0.76043555  1  0  -0.755867  0  2.115625  0  0  -0.695738  0  2.366576  0  0  -0.73258  0  2.354992  0  0  -0.38873  -0.676309  0  2.372396  0
O  O67  1  0.90561403  0.65517487  0.23956417  1  0  -0.755857  0  2.115622  0  0  -0.695739  0  2.366575  0  0  -0.732584  0  2.354991  0  0  -0.388748  -0.676305  0  2.372394  0
O  O68  1  0.18311232  0.29004711  0.90847497  1  0  -0.713315  0  2.059523  0  0  -0.659552  0  2.316693  0  0  -0.694419  0  2.303649  0  0  -0.366957  -0.641073  0  2.322909  0
O  O69  1  0.81688665  0.70995196  0.09152546  1  0  -0.71328  0  2.059562  0  0  -0.659513  0  2.316718  0  0  -0.694381  0  2.303676  0  0  -0.366947  -0.64104  0  2.322949  0
O  O70  1  0.67093313  0.37934432  0.78593363  1  0  -0.83234  0  2.1104  0  0  -0.77821  0  2.373007  0  0  -0.821984  0  2.363482  0  0  -0.424102  -0.759085  0  2.378869  0
O  O71  1  0.32906802  0.62065679  0.21406600  1  0  -0.832397  0  2.110525  0  0  -0.778244  0  2.373123  0  0  -0.822018  0  2.363595  0  0  -0.424082  -0.759111  0  2.378983  0
O  O72  1  0.44558367  0.43033504  0.90202056  1  0  -0.648528  0  1.921204  0  0  -0.601976  0  2.150295  0  0  -0.633823  0  2.141056  0  0  -0.369875  -0.585123  0  2.155322  0
O  O73  1  0.55441749  0.56966607  0.09797977  1  0  -0.648542  0  1.921173  0  0  -0.601988  0  2.150292  0  0  -0.633836  0  2.141057  0  0  -0.36992  -0.585135  0  2.155327  0
O  O74  1  0.89848025  0.17904917  0.70114468  1  0  -0.699023  0  2.076608  0  0  -0.653509  0  2.334652  0  0  -0.688327  0  2.320939  0  0  -0.397033  -0.636273  0  2.341779  0
O  O75  1  0.10151892  0.82094889  0.29885667  1  0  -0.698991  0  2.076547  0  0  -0.653488  0  2.334605  0  0  -0.688307  0  2.320893  0  0  -0.397039  -0.636252  0  2.341732  0
O  O76  1  0.72290178  0.05209383  0.82863434  1  0  -0.74292  0  2.081143  0  0  -0.681326  0  2.319811  0  0  -0.718265  0  2.306688  0  0  -0.380346  -0.662454  0  2.32664  0
O  O77  1  0.27709589  0.94790525  0.17136767  1  0  -0.742886  0  2.081066  0  0  -0.681299  0  2.319733  0  0  -0.718235  0  2.306613  0  0  -0.380341  -0.662425  0  2.326559  0
O  O78  1  0.37425475  0.99434727  0.95303181  1  0  -0.818785  0  2.126921  0  0  -0.75913  0  2.389865  0  0  -0.80337  0  2.378203  0  0  -0.435812  -0.739699  0  2.395892  0
O  O79  1  0.62574490  0.00565486  0.04696848  1  0  -0.818795  0  2.126885  0  0  -0.759145  0  2.389841  0  0  -0.803385  0  2.378179  0  0  -0.43581  -0.739707  0  2.395865  0
O  O80  1  0.27467890  0.79756072  0.00878612  1  0  -0.664168  0  1.916526  0  0  -0.617939  0  2.149375  0  0  -0.649895  0  2.139517  0  0  -0.350368  -0.600944  0  2.154619  0
O  O81  1  0.72531946  0.20244141  0.99121505  1  0  -0.664193  0  1.916478  0  0  -0.617967  0  2.149348  0  0  -0.649925  0  2.139491  0  0  -0.350398  -0.600976  0  2.154601  0
O  O82  1  0.67462207  0.34986770  0.57160749  1  0  -0.676493  0  1.983679  0  0  -0.620846  0  2.212262  0  0  -0.652314  0  2.203127  0  0  -0.335118  -0.602973  0  2.217647  0
O  O83  1  0.32537710  0.65013037  0.42839456  1  0  -0.67642  0  1.983776  0  0  -0.620813  0  2.212332  0  0  -0.652283  0  2.203199  0  0  -0.335137  -0.602945  0  2.217704  0
O  O84  1  0.90644441  0.42433428  0.46163956  1  0  -0.837532  0  2.170164  0  0  -0.779807  0  2.427999  0  0  -0.824393  0  2.418369  0  0  -0.428515  -0.759851  0  2.433189  0
O  O85  1  0.09355326  0.57566480  0.53836245  1  0  -0.837427  0  2.170162  0  0  -0.779729  0  2.42798  0  0  -0.824315  0  2.418353  0  0  -0.428502  -0.759785  0  2.433162  0
O  O86  1  0.18735461  0.29325384  0.57747800  1  0  -0.699994  0  2.036206  0  0  -0.651266  0  2.284201  0  0  -0.68461  0  2.271961  0  0  -0.381288  -0.633459  0  2.290407  0
O  O87  1  0.81264135  0.70674722  0.42251811  1  0  -0.699976  0  2.036356  0  0  -0.651255  0  2.284383  0  0  -0.684596  0  2.272128  0  0  -0.381267  -0.633449  0  2.290598  0
O  O88  1  0.28110990  0.39234263  0.41083778  1  0  -0.75599  0  2.124029  0  0  -0.700727  0  2.375112  0  0  -0.737654  0  2.366182  0  0  -0.400309  -0.681045  0  2.379271  0
O  O89  1  0.71889194  0.60766151  0.58915890  1  0  -0.756074  0  2.124232  0  0  -0.700727  0  2.375258  0  0  -0.737653  0  2.36633  0  0  -0.400296  -0.681028  0  2.379382  0
O  O90  1  0.43507887  0.23223696  0.73830363  1  0  -0.931143  0  1.844837  0  0  -0.88698  0  2.044484  0  0  -0.915525  0  2.00485  0  0  -0.646359  -0.873825  0  2.067573  0
O  O91  1  0.56491839  0.76776414  0.26169723  1  0  -0.931114  0  1.844894  0  0  -0.886948  0  2.044532  0  0  -0.915489  0  2.004892  0  0  -0.646354  -0.873793  0  2.067616  0
O  O92  1  0.33160203  0.19722094  0.06813053  1  0  -0.893882  0  1.945205  0  0  -0.848204  0  2.146482  0  0  -0.876751  0  2.112275  0  0  -0.645894  -0.833794  0  2.167069  0
O  O93  1  0.66839653  0.80278017  0.93187016  1  0  -0.893916  0  1.945134  0  0  -0.848209  0  2.146341  0  0  -0.876757  0  2.112133  0  0  -0.64588  -0.833784  0  2.166934  0
