# generated using pymatgen
data_CdH10C14(N3O)4
_symmetry_space_group_name_H-M   'P 1'
_cell_length_a   8.58745899
_cell_length_b   8.87849433
_cell_length_c   13.72002126
_cell_angle_alpha   95.29126362
_cell_angle_beta   89.99530865
_cell_angle_gamma   118.92753867
_symmetry_Int_Tables_number   1
_chemical_formula_structural   CdH10C14(N3O)4
_chemical_formula_sum   'Cd2 H20 C28 N24 O8'
_cell_volume   910.45803379
_cell_formula_units_Z   2
loop_
 _symmetry_equiv_pos_site_id
 _symmetry_equiv_pos_as_xyz
  1  'x, y, z'
loop_
 _atom_site_type_symbol
 _atom_site_label
 _atom_site_symmetry_multiplicity
 _atom_site_fract_x
 _atom_site_fract_y
 _atom_site_fract_z
 _atom_site_occupancy
 _atom_site_hle17_bader_spin_density
 _atom_site_hle17_ddec_charge
 _atom_site_hle17_ddec_spin_density
 _atom_site_hle17_ddec_sum_bond_order
 _atom_site_hle17_magmom
 _atom_site_hse06_10hf_bader_spin_density
 _atom_site_hse06_10hf_ddec_charge
 _atom_site_hse06_10hf_ddec_spin_density
 _atom_site_hse06_10hf_ddec_sum_bond_order
 _atom_site_hse06_10hf_magmom
 _atom_site_hse06_bader_spin_density
 _atom_site_hse06_ddec_charge
 _atom_site_hse06_ddec_spin_density
 _atom_site_hse06_ddec_sum_bond_order
 _atom_site_hse06_magmom
 _atom_site_pbe_bader_spin_density
 _atom_site_pbe_cm5_charge
 _atom_site_pbe_ddec_charge
 _atom_site_pbe_ddec_spin_density
 _atom_site_pbe_ddec_sum_bond_order
 _atom_site_pbe_magmom
Cd  Cd0  1  0.19579043  0.99992599  0.25005515  1  0  1.042284  0  1.752202  0  0  0.835702  0  2.200461  0  0  0.896613  0  2.150756  0  0  0.76811  0.792659  0  2.234023  0
Cd  Cd1  1  0.80420853  0.00007336  0.74994379  1  0  1.042263  0  1.752245  0  0  0.835692  0  2.200515  0  0  0.896603  0  2.15081  0  0  0.768093  0.792649  0  2.234077  0
H  H2  1  0.36342371  0.69776243  0.72397896  1  0  0.096796  0  0.912315  0  0  0.105831  0  0.969941  0  0  0.108444  0  0.967935  0  0  0.125803  0.103864  0  0.971467  0
H  H3  1  0.66583135  0.30233561  0.77603818  1  0  0.096667  0  0.912603  0  0  0.105415  0  0.970696  0  0  0.108042  0  0.968645  0  0  0.125857  0.103448  0  0.972227  0
H  H4  1  0.63657706  0.30223822  0.27602078  1  0  0.096811  0  0.912295  0  0  0.105851  0  0.969908  0  0  0.108464  0  0.967904  0  0  0.125812  0.103882  0  0.971435  0
H  H5  1  0.33417200  0.69767021  0.22396260  1  0  0.096745  0  0.912495  0  0  0.105454  0  0.970637  0  0  0.108081  0  0.96859  0  0  0.125865  0.103487  0  0.972167  0
H  H6  1  0.16110279  0.37704419  0.65893413  1  0  0.134915  0  0.965021  0  0  0.140079  0  1.028674  0  0  0.144407  0  1.027131  0  0  0.111091  0.136954  0  1.029986  0
H  H7  1  0.78431777  0.62304796  0.84108556  1  0  0.134937  0  0.964821  0  0  0.139371  0  1.029493  0  0  0.143736  0  1.02799  0  0  0.110868  0.136243  0  1.030767  0
H  H8  1  0.83889500  0.62295517  0.34106627  1  0  0.134927  0  0.964993  0  0  0.140089  0  1.028656  0  0  0.144416  0  1.027113  0  0  0.111096  0.136966  0  1.029966  0
H  H9  1  0.21568779  0.37695528  0.15891580  1  0  0.134945  0  0.964776  0  0  0.139381  0  1.029438  0  0  0.143749  0  1.027929  0  0  0.11086  0.136252  0  1.030714  0
H  H10  1  0.31193830  0.21509874  0.58689270  1  0  0.089279  0  0.920371  0  0  0.094209  0  0.985818  0  0  0.097458  0  0.981928  0  0  0.121315  0.091731  0  0.988695  0
H  H11  1  0.09715402  0.78496390  0.91309901  1  0  0.089715  0  0.920657  0  0  0.094542  0  0.986126  0  0  0.097827  0  0.982201  0  0  0.121241  0.092017  0  0.989087  0
H  H12  1  0.68805832  0.78490061  0.41310624  1  0  0.089305  0  0.920374  0  0  0.094229  0  0.985816  0  0  0.09748  0  0.981926  0  0  0.12132  0.091751  0  0.988694  0
H  H13  1  0.90285024  0.21503675  0.08690511  1  0  0.089684  0  0.920623  0  0  0.094506  0  0.986096  0  0  0.097791  0  0.982172  0  0  0.121224  0.09199  0  0.989049  0
H  H14  1  0.24878185  0.67133602  0.49669515  1  0  0.127965  0  0.96848  0  0  0.124813  0  1.056217  0  0  0.128792  0  1.052641  0  0  0.118151  0.122074  0  1.058739  0
H  H15  1  0.57735251  0.32874178  0.00349959  1  0  0.128376  0  0.968759  0  0  0.124815  0  1.056904  0  0  0.128732  0  1.053309  0  0  0.118235  0.122087  0  1.05944  0
H  H16  1  0.75121710  0.32866334  0.50330525  1  0  0.127966  0  0.968471  0  0  0.124814  0  1.056205  0  0  0.128794  0  1.052628  0  0  0.118157  0.122074  0  1.058728  0
H  H17  1  0.42264825  0.67125887  0.99649942  1  0  0.128374  0  0.96875  0  0  0.124814  0  1.056902  0  0  0.128731  0  1.053308  0  0  0.118239  0.122088  0  1.059436  0
H  H18  1  0.37722498  0.88808342  0.55677111  1  0  0.146467  0  0.946437  0  0  0.153163  0  1.011215  0  0  0.156852  0  1.008688  0  0  0.125097  0.150515  0  1.013075  0
H  H19  1  0.48915710  0.11206005  0.94341038  1  0  0.146372  0  0.946234  0  0  0.153152  0  1.01091  0  0  0.156788  0  1.008434  0  0  0.125115  0.150498  0  1.01279  0
H  H20  1  0.62277463  0.11191723  0.44322936  1  0  0.146449  0  0.946451  0  0  0.153139  0  1.011235  0  0  0.156829  0  1.008709  0  0  0.125097  0.150491  0  1.013095  0
H  H21  1  0.51084483  0.88794059  0.05658791  1  0  0.14627  0  0.946291  0  0  0.153141  0  1.010858  0  0  0.156779  0  1.008376  0  0  0.125102  0.150488  0  1.012738  0
C  C22  1  0.41410477  0.61696420  0.68727724  1  0  0.187376  0  3.653211  0  0  0.153973  0  3.910227  0  0  0.163542  0  3.926283  0  0  0.071928  0.147834  0  3.899312  0
C  C23  1  0.79734733  0.38314773  0.81268573  1  0  0.187073  0  3.653535  0  0  0.153734  0  3.910636  0  0  0.163324  0  3.926692  0  0  0.071572  0.147588  0  3.899721  0
C  C24  1  0.58589302  0.38303515  0.31272243  1  0  0.187451  0  3.653316  0  0  0.154057  0  3.910306  0  0  0.163624  0  3.926362  0  0  0.071992  0.147917  0  3.89939  0
C  C25  1  0.20265408  0.61685421  0.18731555  1  0  0.187034  0  3.653478  0  0  0.153686  0  3.910606  0  0  0.163271  0  3.926666  0  0  0.071565  0.14754  0  3.899689  0
C  C26  1  0.30519466  0.44305280  0.65385072  1  0  -0.162745  0  3.666023  0  0  -0.181031  0  3.927001  0  0  -0.191176  0  3.947373  0  0  -0.079219  -0.174684  0  3.913574  0
C  C27  1  0.86239991  0.55706967  0.84614972  1  0  -0.161438  0  3.664215  0  0  -0.179045  0  3.924914  0  0  -0.189279  0  3.945249  0  0  -0.078474  -0.172665  0  3.91149  0
C  C28  1  0.69480249  0.55694526  0.34614887  1  0  -0.162796  0  3.666126  0  0  -0.181107  0  3.927111  0  0  -0.191252  0  3.947484  0  0  -0.079261  -0.174762  0  3.913682  0
C  C29  1  0.13760331  0.44293357  0.15385163  1  0  -0.161549  0  3.664302  0  0  -0.179124  0  3.924955  0  0  -0.189358  0  3.94529  0  0  -0.078514  -0.172743  0  3.911532  0
C  C30  1  0.38835824  0.35339109  0.61109365  1  0  0.189978  0  3.650113  0  0  0.15938  0  3.915849  0  0  0.168966  0  3.929622  0  0  0.072961  0.153337  0  3.906441  0
C  C31  1  0.03527119  0.64669177  0.88887119  1  0  0.188439  0  3.649309  0  0  0.158089  0  3.91472  0  0  0.167631  0  3.928575  0  0  0.07287  0.152063  0  3.905288  0
C  C32  1  0.61163955  0.64660827  0.38890601  1  0  0.189872  0  3.65011  0  0  0.159296  0  3.915822  0  0  0.168878  0  3.929599  0  0  0.072941  0.153251  0  3.906415  0
C  C33  1  0.96473256  0.35331018  0.11113082  1  0  0.188577  0  3.649258  0  0  0.158232  0  3.914648  0  0  0.167774  0  3.928504  0  0  0.072969  0.152198  0  3.905213  0
C  C34  1  0.65709436  0.59852801  0.63210080  1  0  0.314617  0  3.807394  0  0  0.301722  0  4.0599  0  0  0.314255  0  4.075483  0  0  0.25227  0.293381  0  4.049366  0
C  C35  1  0.05881362  0.40152690  0.86776808  1  0  0.312772  0  3.809123  0  0  0.29858  0  4.063249  0  0  0.311215  0  4.0787  0  0  0.250662  0.290208  0  4.052761  0
C  C36  1  0.34290278  0.40147005  0.36789806  1  0  0.3146  0  3.807286  0  0  0.301662  0  4.059863  0  0  0.314205  0  4.075431  0  0  0.25221  0.293315  0  4.049334  0
C  C37  1  0.94118650  0.59847246  0.13223377  1  0  0.312833  0  3.808929  0  0  0.298594  0  4.063138  0  0  0.311229  0  4.078592  0  0  0.250672  0.290222  0  4.05265  0
C  C38  1  0.84959918  0.69109377  0.61958805  1  0  0.188335  0  3.78803  0  0  0.16125  0  4.073957  0  0  0.166667  0  4.090325  0  0  0.225731  0.157509  0  4.063026  0
C  C39  1  0.15874392  0.30897850  0.88025973  1  0  0.188411  0  3.788984  0  0  0.162517  0  4.073849  0  0  0.167894  0  4.090192  0  0  0.226057  0.158792  0  4.062928  0
C  C40  1  0.15039796  0.30890429  0.38041082  1  0  0.188341  0  3.788018  0  0  0.161264  0  4.073969  0  0  0.166677  0  4.090334  0  0  0.225749  0.157526  0  4.063038  0
C  C41  1  0.84125555  0.69101956  0.11974059  1  0  0.188375  0  3.7889  0  0  0.162464  0  4.07382  0  0  0.167842  0  4.090165  0  0  0.226017  0.158741  0  4.062898  0
C  C42  1  0.25326307  0.79643956  0.51422634  1  0  -0.217636  0  3.595811  0  0  -0.283298  0  3.835217  0  0  -0.286673  0  3.83925  0  0  -0.05262  -0.281002  0  3.832693  0
C  C43  1  0.45673887  0.20363450  0.98594486  1  0  -0.218563  0  3.597132  0  0  -0.284087  0  3.837417  0  0  -0.287256  0  3.841252  0  0  -0.052764  -0.281747  0  3.834727  0
C  C44  1  0.74673589  0.20355980  0.48577333  1  0  -0.217572  0  3.595826  0  0  -0.283244  0  3.835218  0  0  -0.286622  0  3.839256  0  0  -0.052613  -0.280945  0  3.832694  0
C  C45  1  0.54326242  0.79636486  0.01405335  1  0  -0.218509  0  3.597145  0  0  -0.284055  0  3.837389  0  0  -0.28723  0  3.841238  0  0  -0.052756  -0.281718  0  3.834699  0
C  C46  1  0.24169633  0.86720290  0.41813748  1  0  0.669085  0  3.887674  0  0  0.624639  0  4.184859  0  0  0.657466  0  4.180597  0  0  0.194669  0.602413  0  4.18668  0
C  C47  1  0.37423153  0.13274687  0.08196469  1  0  0.670273  0  3.886144  0  0  0.626187  0  4.182839  0  0  0.658988  0  4.178477  0  0  0.194275  0.603949  0  4.184735  0
C  C48  1  0.75830328  0.13279775  0.58186226  1  0  0.669116  0  3.887748  0  0  0.624688  0  4.184909  0  0  0.657516  0  4.180644  0  0  0.194697  0.602461  0  4.186735  0
C  C49  1  0.62576794  0.86725119  0.91803345  1  0  0.670246  0  3.886266  0  0  0.626191  0  4.182916  0  0  0.658992  0  4.178554  0  0  0.194268  0.603954  0  4.184811  0
N  N50  1  0.59064155  0.69519562  0.67695502  1  0  -0.374209  0  3.14144  0  0  -0.310856  0  3.394338  0  0  -0.330945  0  3.41077  0  0  -0.305606  -0.297379  0  3.38307  0
N  N51  1  0.89564885  0.30490295  0.82296506  1  0  -0.373304  0  3.141981  0  0  -0.309526  0  3.395142  0  0  -0.32965  0  3.411517  0  0  -0.304914  -0.296039  0  3.3839  0
N  N52  1  0.40935676  0.30480244  0.32304385  1  0  -0.374227  0  3.141401  0  0  -0.310859  0  3.394304  0  0  -0.33095  0  3.410732  0  0  -0.305602  -0.29738  0  3.383036  0
N  N53  1  0.10435191  0.69509770  0.17703614  1  0  -0.373287  0  3.141792  0  0  -0.309465  0  3.394945  0  0  -0.329588  0  3.41132  0  0  -0.30489  -0.295978  0  3.383703  0
N  N54  1  0.56444727  0.43037987  0.59906473  1  0  -0.346868  0  3.004303  0  0  -0.313587  0  3.266091  0  0  -0.327598  0  3.280049  0  0  -0.298849  -0.304338  0  3.256637  0
N  N55  1  0.13434394  0.56967280  0.90084455  1  0  -0.345734  0  3.003332  0  0  -0.312049  0  3.265362  0  0  -0.326076  0  3.279278  0  0  -0.298264  -0.302795  0  3.255914  0
N  N56  1  0.43554988  0.56961818  0.40093340  1  0  -0.34679  0  3.004154  0  0  -0.313502  0  3.265952  0  0  -0.327515  0  3.279907  0  0  -0.298834  -0.304251  0  3.256498  0
N  N57  1  0.86565786  0.43032526  0.09915796  1  0  -0.345797  0  3.003342  0  0  -0.312083  0  3.265342  0  0  -0.32611  0  3.279256  0  0  -0.298301  -0.30283  0  3.255899  0
N  N58  1  0.94244180  0.63798178  0.56122707  1  0  -0.231377  0  2.820238  0  0  -0.238315  0  3.081016  0  0  -0.241851  0  3.09177  0  0  -0.172749  -0.235938  0  3.074038  0
N  N59  1  0.30455691  0.36207775  0.93873112  1  0  -0.230959  0  2.823111  0  0  -0.237998  0  3.083351  0  0  -0.241528  0  3.094112  0  0  -0.17246  -0.235633  0  3.076383  0
N  N60  1  0.05755651  0.36201628  0.43877179  1  0  -0.231301  0  2.820268  0  0  -0.238244  0  3.081023  0  0  -0.241779  0  3.091775  0  0  -0.172704  -0.235867  0  3.074044  0
N  N61  1  0.69544321  0.63792160  0.06126855  1  0  -0.230996  0  2.823128  0  0  -0.237993  0  3.083409  0  0  -0.241523  0  3.094171  0  0  -0.172459  -0.235629  0  3.07644  0
N  N62  1  0.10558376  0.77323895  0.57419204  1  0  0.207812  0  3.582199  0  0  0.301312  0  3.799329  0  0  0.29852  0  3.818849  0  0  0.005787  0.302882  0  3.7864  0
N  N63  1  0.33237627  0.22679813  0.92587320  1  0  0.208523  0  3.584182  0  0  0.301701  0  3.801584  0  0  0.298864  0  3.821071  0  0  0.006153  0.303269  0  3.788678  0
N  N64  1  0.89441455  0.22675911  0.42580682  1  0  0.207712  0  3.58234  0  0  0.301252  0  3.799409  0  0  0.298462  0  3.818926  0  0  0.00576  0.302822  0  3.786481  0
N  N65  1  0.66762321  0.77319993  0.07412639  1  0  0.208673  0  3.584022  0  0  0.301735  0  3.801574  0  0  0.298897  0  3.82106  0  0  0.006183  0.303305  0  3.788665  0
N  N66  1  0.11691579  0.90397945  0.63627470  1  0  -0.040873  0  2.807292  0  0  -0.061903  0  3.076351  0  0  -0.056439  0  3.084549  0  0  -0.049953  -0.065433  0  3.070954  0
N  N67  1  0.21305692  0.09604909  0.86375201  1  0  -0.04128  0  2.808555  0  0  -0.062055  0  3.077761  0  0  -0.056595  0  3.085982  0  0  -0.05003  -0.065588  0  3.072367  0
N  N68  1  0.88308200  0.09601990  0.36372497  1  0  -0.040778  0  2.807234  0  0  -0.061804  0  3.076276  0  0  -0.05634  0  3.084472  0  0  -0.049878  -0.065334  0  3.07088  0
N  N69  1  0.78694437  0.90395027  0.13624693  1  0  -0.041381  0  2.808466  0  0  -0.06212  0  3.077712  0  0  -0.056661  0  3.085935  0  0  -0.050071  -0.065654  0  3.07232  0
N  N70  1  0.95514728  0.85172564  0.66563934  1  0  -0.248328  0  3.128444  0  0  -0.207894  0  3.42681  0  0  -0.220583  0  3.440358  0  0  -0.18971  -0.199164  0  3.417507  0
N  N71  1  0.10365826  0.14833130  0.83425578  1  0  -0.248619  0  3.128362  0  0  -0.208628  0  3.426482  0  0  -0.221316  0  3.440026  0  0  -0.190098  -0.199898  0  3.417185  0
N  N72  1  0.04484986  0.14827242  0.33435952  1  0  -0.248428  0  3.128363  0  0  -0.208018  0  3.426769  0  0  -0.220706  0  3.440312  0  0  -0.189785  -0.199288  0  3.417467  0
N  N73  1  0.89634186  0.85166805  0.16574389  1  0  -0.248632  0  3.128355  0  0  -0.208633  0  3.426484  0  0  -0.221321  0  3.440029  0  0  -0.190109  -0.199904  0  3.417188  0
O  O74  1  0.09452737  0.85885639  0.39359285  1  0  -0.634668  0  1.983012  0  0  -0.57826  0  2.223619  0  0  -0.607915  0  2.217591  0  0  -0.335463  -0.557315  0  2.226823  0
O  O75  1  0.23544775  0.14115917  0.10652064  1  0  -0.634797  0  1.981793  0  0  -0.578858  0  2.222673  0  0  -0.608509  0  2.216623  0  0  -0.335475  -0.557925  0  2.225918  0
O  O76  1  0.90547417  0.14114814  0.60640786  1  0  -0.634662  0  1.983021  0  0  -0.578299  0  2.223666  0  0  -0.607955  0  2.217639  0  0  -0.335475  -0.557352  0  2.22687  0
O  O77  1  0.76455483  0.85884277  0.89347918  1  0  -0.634756  0  1.981881  0  0  -0.578826  0  2.222742  0  0  -0.608478  0  2.216694  0  0  -0.335425  -0.557892  0  2.225987  0
O  O78  1  0.37926476  0.92898381  0.36878995  1  0  -0.617118  0  1.913674  0  0  -0.562995  0  2.138325  0  0  -0.590407  0  2.130071  0  0  -0.324726  -0.543493  0  2.143066  0
O  O79  1  0.44993135  0.07084309  0.13126440  1  0  -0.617946  0  1.913472  0  0  -0.563794  0  2.138009  0  0  -0.591227  0  2.129758  0  0  -0.324434  -0.544279  0  2.142767  0
O  O80  1  0.62073652  0.07101554  0.63120972  1  0  -0.617169  0  1.913785  0  0  -0.563058  0  2.138425  0  0  -0.590469  0  2.130168  0  0  -0.324765  -0.543556  0  2.143169  0
O  O81  1  0.55006553  0.92914979  0.86873343  1  0  -0.617941  0  1.913484  0  0  -0.563796  0  2.137997  0  0  -0.591227  0  2.129746  0  0  -0.324454  -0.544285  0  2.142761  0
