# generated using pymatgen
data_CuH9C10BrN
_symmetry_space_group_name_H-M   'P 1'
_cell_length_a   3.84198251
_cell_length_b   9.59163196
_cell_length_c   24.70341079
_cell_angle_alpha   89.99972011
_cell_angle_beta   89.99980716
_cell_angle_gamma   90.00014755
_symmetry_Int_Tables_number   1
_chemical_formula_structural   CuH9C10BrN
_chemical_formula_sum   'Cu4 H36 C40 Br4 N4'
_cell_volume   910.34248284
_cell_formula_units_Z   4
loop_
 _symmetry_equiv_pos_site_id
 _symmetry_equiv_pos_as_xyz
  1  'x, y, z'
loop_
 _atom_site_type_symbol
 _atom_site_label
 _atom_site_symmetry_multiplicity
 _atom_site_fract_x
 _atom_site_fract_y
 _atom_site_fract_z
 _atom_site_occupancy
 _atom_site_hle17_bader_spin_density
 _atom_site_hle17_ddec_charge
 _atom_site_hle17_ddec_spin_density
 _atom_site_hle17_ddec_sum_bond_order
 _atom_site_hle17_magmom
 _atom_site_hse06_10hf_bader_spin_density
 _atom_site_hse06_10hf_ddec_charge
 _atom_site_hse06_10hf_ddec_spin_density
 _atom_site_hse06_10hf_ddec_sum_bond_order
 _atom_site_hse06_10hf_magmom
 _atom_site_hse06_bader_spin_density
 _atom_site_hse06_ddec_charge
 _atom_site_hse06_ddec_spin_density
 _atom_site_hse06_ddec_sum_bond_order
 _atom_site_hse06_magmom
 _atom_site_pbe_bader_spin_density
 _atom_site_pbe_cm5_charge
 _atom_site_pbe_ddec_charge
 _atom_site_pbe_ddec_spin_density
 _atom_site_pbe_ddec_sum_bond_order
 _atom_site_pbe_magmom
Cu  Cu0  1  0.92066733  0.99498531  0.86117421  1  0  0.402144  0  1.874911  0  0  0.301057  0  2.354599  0  0  0.314069  0  2.30225  0  0  0.338006  0.293425  0  2.389523  0
Cu  Cu1  1  0.42064762  0.49499122  0.63882335  1  0  0.402171  0  1.874836  0  0  0.301095  0  2.354536  0  0  0.314119  0  2.302197  0  0  0.338035  0.293462  0  2.389478  0
Cu  Cu2  1  0.57931996  0.99499348  0.36117372  1  0  0.402149  0  1.874941  0  0  0.301054  0  2.354698  0  0  0.314052  0  2.30233  0  0  0.337994  0.29341  0  2.389611  0
Cu  Cu3  1  0.07933669  0.49499001  0.13882487  1  0  0.40213  0  1.874855  0  0  0.301037  0  2.354583  0  0  0.314044  0  2.302218  0  0  0.337996  0.293399  0  2.389501  0
H  H4  1  0.67095845  0.06026782  0.77579141  1  0  0.100266  0  1.000636  0  0  0.114017  0  1.081381  0  0  0.118614  0  1.075571  0  0  0.078023  0.110701  0  1.085168  0
H  H5  1  0.17094774  0.56026828  0.72420630  1  0  0.10026  0  1.000645  0  0  0.114001  0  1.081415  0  0  0.118598  0  1.075605  0  0  0.078017  0.110688  0  1.085198  0
H  H6  1  0.82904333  0.06027419  0.27579240  1  0  0.100198  0  1.000731  0  0  0.114004  0  1.081434  0  0  0.118604  0  1.075618  0  0  0.078022  0.110689  0  1.085217  0
H  H7  1  0.32905865  0.56026735  0.22420607  1  0  0.100246  0  1.000697  0  0  0.114017  0  1.081426  0  0  0.118616  0  1.075614  0  0  0.078018  0.110702  0  1.085207  0
H  H8  1  0.36710547  0.19330664  0.75861439  1  0  0.124741  0  0.951688  0  0  0.149961  0  1.007138  0  0  0.151055  0  1.007878  0  0  0.09588  0.149187  0  1.006569  0
H  H9  1  0.86709376  0.69330536  0.74138417  1  0  0.124738  0  0.951727  0  0  0.149989  0  1.007122  0  0  0.151083  0  1.007864  0  0  0.095882  0.149204  0  1.006569  0
H  H10  1  0.13290070  0.19331278  0.25861468  1  0  0.124732  0  0.951746  0  0  0.149954  0  1.007187  0  0  0.151047  0  1.007928  0  0  0.095882  0.149181  0  1.006616  0
H  H11  1  0.63290981  0.69330734  0.24138405  1  0  0.124729  0  0.951746  0  0  0.149991  0  1.007128  0  0  0.151088  0  1.007866  0  0  0.095877  0.149194  0  1.006588  0
H  H12  1  0.78091818  0.19530776  0.72821888  1  0  0.121029  0  0.974945  0  0  0.139766  0  1.041393  0  0  0.141629  0  1.041453  0  0  0.084007  0.138179  0  1.041772  0
H  H13  1  0.28090391  0.69530346  0.77178095  1  0  0.121083  0  0.974966  0  0  0.139827  0  1.041401  0  0  0.141695  0  1.04146  0  0  0.084027  0.138237  0  1.04178  0
H  H14  1  0.71908275  0.19531088  0.22821911  1  0  0.121042  0  0.974933  0  0  0.139774  0  1.04139  0  0  0.141638  0  1.04145  0  0  0.083999  0.138187  0  1.041769  0
H  H15  1  0.21910231  0.69530240  0.27178037  1  0  0.121121  0  0.974958  0  0  0.139869  0  1.041383  0  0  0.141737  0  1.041443  0  0  0.084047  0.138282  0  1.041757  0
H  H16  1  0.64337492  0.45201243  0.77101519  1  0  0.103948  0  0.960815  0  0  0.118157  0  1.019032  0  0  0.121087  0  1.01865  0  0  0.10196  0.115908  0  1.019608  0
H  H17  1  0.14336932  0.95201387  0.72898625  1  0  0.103876  0  0.960832  0  0  0.118093  0  1.019058  0  0  0.121022  0  1.018675  0  0  0.101937  0.115842  0  1.019635  0
H  H18  1  0.85662404  0.45201883  0.27101535  1  0  0.103915  0  0.960871  0  0  0.11813  0  1.01909  0  0  0.121058  0  1.018708  0  0  0.101936  0.115879  0  1.019664  0
H  H19  1  0.35663145  0.95201193  0.22898479  1  0  0.103951  0  0.960816  0  0  0.118157  0  1.019046  0  0  0.121086  0  1.018664  0  0  0.101955  0.115906  0  1.019624  0
H  H20  1  0.85491642  0.60359628  0.84708788  1  0  0.10131  0  0.95832  0  0  0.11225  0  1.020174  0  0  0.114927  0  1.018361  0  0  0.095992  0.109386  0  1.023241  0
H  H21  1  0.35491725  0.10360202  0.65291369  1  0  0.101187  0  0.958301  0  0  0.112215  0  1.020064  0  0  0.114871  0  1.018314  0  0  0.095962  0.109352  0  1.023123  0
H  H22  1  0.64508188  0.60360245  0.34708776  1  0  0.101199  0  0.958363  0  0  0.112232  0  1.020108  0  0  0.114895  0  1.018333  0  0  0.09596  0.109352  0  1.023195  0
H  H23  1  0.14508531  0.10359880  0.15291356  1  0  0.101204  0  0.95837  0  0  0.112227  0  1.020118  0  0  0.114886  0  1.018358  0  0  0.095973  0.109366  0  1.023175  0
H  H24  1  0.12515428  0.61770759  0.93892681  1  0  0.093497  0  0.968825  0  0  0.102463  0  1.035684  0  0  0.105224  0  1.034753  0  0  0.094933  0.100312  0  1.036421  0
H  H25  1  0.62516411  0.11771401  0.56107284  1  0  0.093437  0  0.968776  0  0  0.102385  0  1.035665  0  0  0.105148  0  1.034731  0  0  0.094872  0.100225  0  1.036425  0
H  H26  1  0.37484291  0.61771193  0.43892736  1  0  0.093467  0  0.968788  0  0  0.102411  0  1.035682  0  0  0.105173  0  1.034749  0  0  0.094883  0.100256  0  1.036433  0
H  H27  1  0.87483973  0.11771313  0.06107340  1  0  0.093473  0  0.968751  0  0  0.102392  0  1.035671  0  0  0.105155  0  1.034737  0  0  0.094875  0.100237  0  1.03642  0
H  H28  1  0.36485714  0.49618050  0.02025291  1  0  0.081161  0  0.981384  0  0  0.090979  0  1.049432  0  0  0.094015  0  1.047535  0  0  0.092254  0.088609  0  1.051331  0
H  H29  1  0.86485625  0.99618769  0.47974714  1  0  0.08114  0  0.981461  0  0  0.090963  0  1.049499  0  0  0.093998  0  1.047602  0  0  0.09225  0.088595  0  1.051399  0
H  H30  1  0.13514257  0.49618452  0.52025316  1  0  0.081124  0  0.981489  0  0  0.090952  0  1.049509  0  0  0.093986  0  1.047615  0  0  0.092244  0.088588  0  1.051407  0
H  H31  1  0.63513907  0.99618649  0.97974820  1  0  0.081131  0  0.981497  0  0  0.090959  0  1.049522  0  0  0.093993  0  1.047626  0  0  0.092252  0.088593  0  1.051423  0
H  H32  1  0.39640779  0.23894065  0.02263055  1  0  0.087759  0  0.968963  0  0  0.096967  0  1.033796  0  0  0.09948  0  1.032948  0  0  0.093799  0.095337  0  1.034096  0
H  H33  1  0.89640694  0.73894683  0.47736916  1  0  0.087776  0  0.968989  0  0  0.096957  0  1.033846  0  0  0.099469  0  1.032999  0  0  0.093802  0.09533  0  1.034148  0
H  H34  1  0.10359559  0.23894463  0.52263243  1  0  0.087791  0  0.968881  0  0  0.096985  0  1.033735  0  0  0.099498  0  1.032885  0  0  0.093803  0.095355  0  1.034036  0
H  H35  1  0.60358693  0.73894664  0.97736862  1  0  0.087795  0  0.968938  0  0  0.096992  0  1.033791  0  0  0.099506  0  1.03294  0  0  0.093816  0.09536  0  1.034093  0
H  H36  1  0.18249811  0.09823187  0.94416705  1  0  0.085108  0  0.997978  0  0  0.091972  0  1.074829  0  0  0.096962  0  1.069367  0  0  0.090033  0.088042  0  1.079295  0
H  H37  1  0.68249014  0.59823918  0.55583382  1  0  0.085052  0  0.998171  0  0  0.091998  0  1.074931  0  0  0.096989  0  1.069464  0  0  0.090049  0.088067  0  1.079396  0
H  H38  1  0.31751157  0.09823718  0.44416804  1  0  0.085065  0  0.998118  0  0  0.092009  0  1.074872  0  0  0.097004  0  1.0694  0  0  0.090028  0.08808  0  1.079336  0
H  H39  1  0.81750360  0.59823929  0.05583401  1  0  0.085063  0  0.998151  0  0  0.092004  0  1.07491  0  0  0.096996  0  1.069443  0  0  0.090038  0.088075  0  1.079375  0
C  C40  1  0.77493103  0.26011894  0.81156804  1  0  0.322484  0  3.706804  0  0  0.32532  0  3.950269  0  0  0.338554  0  3.967061  0  0  0.119856  0.316238  0  3.93922  0
C  C41  1  0.27492104  0.76012194  0.68843248  1  0  0.322353  0  3.706957  0  0  0.325233  0  3.950393  0  0  0.338469  0  3.967183  0  0  0.119855  0.316152  0  3.939341  0
C  C42  1  0.72507119  0.26012519  0.31156867  1  0  0.322345  0  3.706899  0  0  0.325165  0  3.950433  0  0  0.338398  0  3.967224  0  0  0.119827  0.316083  0  3.939381  0
C  C43  1  0.22507422  0.76012193  0.18843190  1  0  0.322429  0  3.706922  0  0  0.325256  0  3.950429  0  0  0.33849  0  3.967222  0  0  0.119875  0.316174  0  3.939371  0
C  C44  1  0.64345484  0.17157634  0.76621855  1  0  -0.384711  0  3.709408  0  0  -0.467386  0  3.945942  0  0  -0.471613  0  3.950408  0  0  -0.247005  -0.463937  0  3.942637  0
C  C45  1  0.14344394  0.67157669  0.73378018  1  0  -0.384741  0  3.709604  0  0  -0.467445  0  3.94607  0  0  -0.471688  0  3.95055  0  0  -0.24701  -0.463986  0  3.942767  0
C  C46  1  0.85655039  0.17158274  0.26621911  1  0  -0.3846  0  3.70956  0  0  -0.467296  0  3.946035  0  0  -0.471528  0  3.950501  0  0  -0.24696  -0.463849  0  3.942724  0
C  C47  1  0.35656031  0.67157579  0.23377953  1  0  -0.384763  0  3.709655  0  0  -0.467477  0  3.946092  0  0  -0.471716  0  3.950553  0  0  -0.247018  -0.464006  0  3.942796  0
C  C48  1  0.75539992  0.40710124  0.80755429  1  0  -0.177056  0  3.709067  0  0  -0.191096  0  3.953148  0  0  -0.201827  0  3.975083  0  0  -0.09375  -0.184241  0  3.93927  0
C  C49  1  0.25539766  0.90710314  0.69244596  1  0  -0.17692  0  3.7093  0  0  -0.190986  0  3.953379  0  0  -0.201712  0  3.975309  0  0  -0.093705  -0.184131  0  3.939502  0
C  C50  1  0.74461105  0.40710751  0.30755491  1  0  -0.17706  0  3.708982  0  0  -0.191131  0  3.953127  0  0  -0.201861  0  3.975061  0  0  -0.093784  -0.184272  0  3.939241  0
C  C51  1  0.24459838  0.90710316  0.19244578  1  0  -0.177117  0  3.709226  0  0  -0.191164  0  3.953328  0  0  -0.201893  0  3.97526  0  0  -0.093779  -0.18431  0  3.939452  0
C  C52  1  0.87187346  0.49013071  0.84913507  1  0  -0.030759  0  3.696951  0  0  -0.058301  0  3.947349  0  0  -0.050719  0  3.962218  0  0  -0.068387  -0.064057  0  3.939716  0
C  C53  1  0.37186683  0.99013314  0.65086779  1  0  -0.030571  0  3.696996  0  0  -0.058163  0  3.94738  0  0  -0.050587  0  3.962235  0  0  -0.06833  -0.063913  0  3.939741  0
C  C54  1  0.62813195  0.49013789  0.34913576  1  0  -0.030509  0  3.696796  0  0  -0.058085  0  3.947152  0  0  -0.050505  0  3.962016  0  0  -0.068271  -0.063828  0  3.939523  0
C  C55  1  0.12813053  0.99013407  0.15086645  1  0  -0.03054  0  3.696944  0  0  -0.05809  0  3.947324  0  0  -0.050512  0  3.962183  0  0  -0.06829  -0.063845  0  3.93969  0
C  C56  1  0.01462268  0.42671528  0.89586009  1  0  0.012613  0  3.793571  0  0  0.033105  0  4.017064  0  0  0.028088  0  4.04181  0  0  -0.005805  0.036263  0  4.00044  0
C  C57  1  0.51462154  0.92672303  0.60414025  1  0  0.01249  0  3.793443  0  0  0.032939  0  4.017015  0  0  0.027922  0  4.041755  0  0  -0.005815  0.036098  0  4.000392  0
C  C58  1  0.48538208  0.42672182  0.39586140  1  0  0.01246  0  3.793666  0  0  0.032922  0  4.017216  0  0  0.027904  0  4.041961  0  0  -0.005835  0.036082  0  4.000586  0
C  C59  1  0.98538094  0.92672228  0.10413872  1  0  0.012519  0  3.793552  0  0  0.032882  0  4.01722  0  0  0.027865  0  4.041963  0  0  -0.005846  0.036039  0  4.000596  0
C  C60  1  0.13803009  0.50423576  0.94075298  1  0  -0.095946  0  3.723891  0  0  -0.116153  0  3.968913  0  0  -0.11761  0  3.991095  0  0  -0.086255  -0.114466  0  3.953799  0
C  C61  1  0.63802955  0.00424012  0.55924729  1  0  -0.095929  0  3.723922  0  0  -0.116111  0  3.968971  0  0  -0.117564  0  3.991147  0  0  -0.086233  -0.114426  0  3.953855  0
C  C62  1  0.36197160  0.50424113  0.44075273  1  0  -0.095979  0  3.723755  0  0  -0.116169  0  3.968808  0  0  -0.117625  0  3.990986  0  0  -0.08625  -0.114485  0  3.953696  0
C  C63  1  0.86196846  0.00424131  0.05924825  1  0  -0.095924  0  3.72368  0  0  -0.116047  0  3.96875  0  0  -0.117501  0  3.990926  0  0  -0.08619  -0.114361  0  3.953636  0
C  C64  1  0.27136686  0.43705095  0.98553346  1  0  -0.0688  0  3.765195  0  0  -0.081955  0  4.013293  0  0  -0.085707  0  4.035676  0  0  -0.092304  -0.080056  0  3.999038  0
C  C65  1  0.77137274  0.93705984  0.51446672  1  0  -0.068712  0  3.765108  0  0  -0.081853  0  4.013171  0  0  -0.085604  0  4.035552  0  0  -0.092278  -0.079952  0  3.998911  0
C  C66  1  0.22862834  0.43705616  0.48553571  1  0  -0.068713  0  3.765071  0  0  -0.081854  0  4.013154  0  0  -0.085603  0  4.035529  0  0  -0.092283  -0.079962  0  3.998906  0
C  C67  1  0.72862901  0.93705775  0.01446574  1  0  -0.068783  0  3.765012  0  0  -0.081936  0  4.013091  0  0  -0.085687  0  4.035468  0  0  -0.092318  -0.080039  0  3.998828  0
C  C68  1  0.28898492  0.29007179  0.98694635  1  0  -0.037722  0  3.748102  0  0  -0.05071  0  3.992057  0  0  -0.05024  0  4.013618  0  0  -0.085246  -0.051194  0  3.978152  0
C  C69  1  0.78899083  0.79007757  0.51305369  1  0  -0.037773  0  3.748213  0  0  -0.050751  0  3.992196  0  0  -0.050281  0  4.013757  0  0  -0.08529  -0.05124  0  3.978299  0
C  C70  1  0.21102240  0.29007594  0.48694740  1  0  -0.037727  0  3.748169  0  0  -0.050714  0  3.992149  0  0  -0.050243  0  4.013711  0  0  -0.08526  -0.051199  0  3.978251  0
C  C71  1  0.71101269  0.79007755  0.01305434  1  0  -0.037763  0  3.7483  0  0  -0.050759  0  3.992287  0  0  -0.050289  0  4.01385  0  0  -0.085326  -0.051243  0  3.978393  0
C  C72  1  0.17161864  0.21205191  0.94370709  1  0  -0.153933  0  3.733623  0  0  -0.17247  0  3.983956  0  0  -0.178033  0  4.003511  0  0  -0.095597  -0.16892  0  3.971827  0
C  C73  1  0.67161066  0.71206027  0.55629236  1  0  -0.153929  0  3.73391  0  0  -0.172524  0  3.9842  0  0  -0.178087  0  4.00376  0  0  -0.095582  -0.168969  0  3.972071  0
C  C74  1  0.32838390  0.21205932  0.44370969  1  0  -0.153976  0  3.733773  0  0  -0.172568  0  3.984068  0  0  -0.178134  0  4.003627  0  0  -0.095566  -0.169003  0  3.971903  0
C  C75  1  0.82837331  0.71206038  0.05629132  1  0  -0.153941  0  3.733894  0  0  -0.172513  0  3.984156  0  0  -0.178077  0  4.003716  0  0  -0.095538  -0.168955  0  3.972005  0
C  C76  1  0.03076233  0.27800127  0.89755554  1  0  0.201816  0  3.755073  0  0  0.199477  0  3.984033  0  0  0.205898  0  4.007574  0  0  0.101536  0.195317  0  3.968279  0
C  C77  1  0.53076123  0.77800488  0.60244426  1  0  0.201875  0  3.754935  0  0  0.199547  0  3.983918  0  0  0.20597  0  4.007462  0  0  0.101547  0.195388  0  3.968164  0
C  C78  1  0.46924152  0.27800780  0.39755564  1  0  0.201947  0  3.754924  0  0  0.199624  0  3.983879  0  0  0.206046  0  4.00742  0  0  0.101576  0.195465  0  3.968127  0
C  C79  1  0.96924562  0.77800619  0.10244355  1  0  0.201864  0  3.754879  0  0  0.199558  0  3.983892  0  0  0.20598  0  4.007434  0  0  0.101524  0.195399  0  3.968138  0
Br  Br80  1  0.41881397  0.84690697  0.86568926  1  0  -0.506538  0  1.431264  0  0  -0.426755  0  1.848528  0  0  -0.446794  0  1.806164  0  0  -0.244525  -0.409875  0  1.878335  0
Br  Br81  1  0.91880411  0.34691350  0.63430778  1  0  -0.506557  0  1.431224  0  0  -0.4268  0  1.848523  0  0  -0.446842  0  1.806177  0  0  -0.244552  -0.409921  0  1.87834  0
Br  Br82  1  0.08118083  0.84691827  0.36568835  1  0  -0.506518  0  1.431293  0  0  -0.426758  0  1.848631  0  0  -0.446781  0  1.806258  0  0  -0.244498  -0.409867  0  1.878424  0
Br  Br83  1  0.58118398  0.34691229  0.13430890  1  0  -0.50651  0  1.431224  0  0  -0.426741  0  1.848512  0  0  -0.446768  0  1.806147  0  0  -0.244507  -0.40986  0  1.878312  0
N  N84  1  0.90930114  0.19712529  0.85528469  1  0  -0.382406  0  3.315882  0  0  -0.310662  0  3.603011  0  0  -0.32705  0  3.610313  0  0  -0.367406  -0.300154  0  3.597719  0
N  N85  1  0.40929724  0.69712988  0.64471384  1  0  -0.382311  0  3.315791  0  0  -0.310615  0  3.602934  0  0  -0.327004  0  3.610238  0  0  -0.367431  -0.30011  0  3.597653  0
N  N86  1  0.59069723  0.19713243  0.35528581  1  0  -0.382356  0  3.315882  0  0  -0.310643  0  3.603056  0  0  -0.327024  0  3.610339  0  0  -0.367461  -0.300144  0  3.597775  0
N  N87  1  0.09070114  0.69712868  0.14471415  1  0  -0.382311  0  3.315814  0  0  -0.310608  0  3.602997  0  0  -0.326992  0  3.610288  0  0  -0.367431  -0.300101  0  3.597699  0
