# generated using pymatgen
data_AgH4(C2N)3
_symmetry_space_group_name_H-M   'P 1'
_cell_length_a   3.65121218
_cell_length_b   12.42970362
_cell_length_c   14.51776232
_cell_angle_alpha   114.45545442
_cell_angle_beta   90.00024299
_cell_angle_gamma   89.99936282
_symmetry_Int_Tables_number   1
_chemical_formula_structural   AgH4(C2N)3
_chemical_formula_sum   'Ag4 H16 C24 N12'
_cell_volume   599.75537930
_cell_formula_units_Z   4
loop_
 _symmetry_equiv_pos_site_id
 _symmetry_equiv_pos_as_xyz
  1  'x, y, z'
loop_
 _atom_site_type_symbol
 _atom_site_label
 _atom_site_symmetry_multiplicity
 _atom_site_fract_x
 _atom_site_fract_y
 _atom_site_fract_z
 _atom_site_occupancy
 _atom_site_hle17_bader_spin_density
 _atom_site_hle17_ddec_charge
 _atom_site_hle17_ddec_spin_density
 _atom_site_hle17_ddec_sum_bond_order
 _atom_site_hle17_magmom
 _atom_site_hse06_10hf_bader_spin_density
 _atom_site_hse06_10hf_ddec_charge
 _atom_site_hse06_10hf_ddec_spin_density
 _atom_site_hse06_10hf_ddec_sum_bond_order
 _atom_site_hse06_10hf_magmom
 _atom_site_hse06_bader_spin_density
 _atom_site_hse06_ddec_charge
 _atom_site_hse06_ddec_spin_density
 _atom_site_hse06_ddec_sum_bond_order
 _atom_site_hse06_magmom
 _atom_site_pbe_bader_spin_density
 _atom_site_pbe_cm5_charge
 _atom_site_pbe_ddec_charge
 _atom_site_pbe_ddec_spin_density
 _atom_site_pbe_ddec_sum_bond_order
 _atom_site_pbe_magmom
Ag  Ag0  1  0.39679692  0.67130290  0.07415898  1  0  0.446051  0  1.532693  0  0  0.278799  0  2.018852  0  0  0.306518  0  1.97218  0  0  0.473915  0.260051  0  2.051121  0
Ag  Ag1  1  0.89676923  0.82869372  0.92584142  1  0  0.446072  0  1.532666  0  0  0.278811  0  2.018839  0  0  0.306529  0  1.972175  0  0  0.473893  0.260063  0  2.051099  0
Ag  Ag2  1  0.60320141  0.32869348  0.92583401  1  0  0.446124  0  1.532659  0  0  0.278876  0  2.0188  0  0  0.306592  0  1.972136  0  0  0.473933  0.260132  0  2.051056  0
Ag  Ag3  1  0.10321541  0.17130542  0.07416287  1  0  0.446089  0  1.532688  0  0  0.278839  0  2.018848  0  0  0.306555  0  1.972184  0  0  0.473917  0.26009  0  2.051105  0
H  H4  1  0.62726163  0.85180946  0.31226901  1  0  0.091847  0  0.981267  0  0  0.105462  0  1.042636  0  0  0.107821  0  1.041243  0  0  0.099137  0.103725  0  1.043787  0
H  H5  1  0.12726162  0.64819435  0.68773635  1  0  0.09184  0  0.981268  0  0  0.105468  0  1.042624  0  0  0.107829  0  1.041227  0  0  0.099145  0.103736  0  1.043764  0
H  H6  1  0.37272301  0.14819234  0.68773689  1  0  0.091822  0  0.98129  0  0  0.10546  0  1.042631  0  0  0.107822  0  1.041235  0  0  0.099138  0.103731  0  1.043764  0
H  H7  1  0.87275588  0.35180652  0.31226440  1  0  0.091823  0  0.981314  0  0  0.105448  0  1.042672  0  0  0.107811  0  1.04127  0  0  0.099131  0.103716  0  1.043809  0
H  H8  1  0.78894099  0.03981145  0.45961740  1  0  0.078959  0  0.960702  0  0  0.093305  0  1.018489  0  0  0.095537  0  1.01829  0  0  0.094939  0.091653  0  1.018757  0
H  H9  1  0.28894972  0.46019388  0.54038467  1  0  0.078882  0  0.960646  0  0  0.09322  0  1.018462  0  0  0.095453  0  1.018264  0  0  0.094886  0.091576  0  1.018718  0
H  H10  1  0.21101900  0.96019300  0.54038943  1  0  0.078931  0  0.960681  0  0  0.093253  0  1.018507  0  0  0.095485  0  1.018309  0  0  0.094903  0.091624  0  1.018747  0
H  H11  1  0.71106230  0.53980521  0.45961477  1  0  0.078926  0  0.960649  0  0  0.093274  0  1.018454  0  0  0.095509  0  1.01825  0  0  0.094919  0.091608  0  1.018733  0
H  H12  1  0.70082164  0.23336216  0.45259011  1  0  0.080099  0  0.981463  0  0  0.093607  0  1.040412  0  0  0.095595  0  1.040492  0  0  0.095214  0.092174  0  1.04046  0
H  H13  1  0.20082075  0.26664167  0.54740583  1  0  0.080054  0  0.981499  0  0  0.093528  0  1.040484  0  0  0.095514  0  1.040568  0  0  0.095203  0.092096  0  1.040529  0
H  H14  1  0.29918491  0.76664224  0.54741187  1  0  0.08002  0  0.981444  0  0  0.093509  0  1.040419  0  0  0.095496  0  1.040502  0  0  0.095182  0.092078  0  1.040469  0
H  H15  1  0.79918579  0.73335829  0.45259254  1  0  0.07998  0  0.981461  0  0  0.093472  0  1.040433  0  0  0.095457  0  1.040518  0  0  0.095175  0.092042  0  1.040482  0
H  H16  1  0.42599911  0.24763086  0.29999343  1  0  0.090558  0  0.978979  0  0  0.101563  0  1.045066  0  0  0.104432  0  1.042725  0  0  0.098359  0.099382  0  1.046974  0
H  H17  1  0.92597592  0.25236945  0.69999740  1  0  0.090649  0  0.978849  0  0  0.101578  0  1.045036  0  0  0.104485  0  1.042654  0  0  0.098371  0.099384  0  1.046952  0
H  H18  1  0.57401292  0.75237174  0.70000517  1  0  0.090634  0  0.978908  0  0  0.101611  0  1.045036  0  0  0.104499  0  1.042675  0  0  0.098364  0.099432  0  1.046944  0
H  H19  1  0.07398407  0.74762870  0.29999621  1  0  0.090586  0  0.978957  0  0  0.101545  0  1.045094  0  0  0.10445  0  1.042719  0  0  0.098342  0.099378  0  1.046991  0
C  C20  1  0.44677676  0.94563931  0.22284358  1  0  0.130935  0  3.834935  0  0  0.126521  0  4.074358  0  0  0.12822  0  4.099987  0  0  0.08693  0.125338  0  4.057011  0
C  C21  1  0.94675893  0.55435976  0.77715636  1  0  0.131292  0  3.834827  0  0  0.126789  0  4.074343  0  0  0.128488  0  4.099972  0  0  0.087011  0.125606  0  4.056996  0
C  C22  1  0.55324622  0.05436244  0.77715817  1  0  0.131279  0  3.834749  0  0  0.126753  0  4.074216  0  0  0.12845  0  4.099851  0  0  0.087009  0.12557  0  4.056865  0
C  C23  1  0.05323666  0.44564021  0.22284271  1  0  0.13108  0  3.834862  0  0  0.126639  0  4.074276  0  0  0.128333  0  4.099912  0  0  0.086964  0.125455  0  4.056931  0
C  C24  1  0.58756920  0.93741324  0.30980289  1  0  -0.140864  0  3.753181  0  0  -0.157673  0  4.000807  0  0  -0.159985  0  4.021703  0  0  -0.094821  -0.15603  0  3.986721  0
C  C25  1  0.08756398  0.56258803  0.69019811  1  0  -0.1411  0  3.753217  0  0  -0.1579  0  4.000887  0  0  -0.160213  0  4.021781  0  0  -0.09488  -0.156258  0  3.986802  0
C  C26  1  0.41244556  0.06258763  0.69019856  1  0  -0.141047  0  3.753168  0  0  -0.157848  0  4.000835  0  0  -0.160164  0  4.021728  0  0  -0.094898  -0.156205  0  3.98675  0
C  C27  1  0.91244805  0.43741194  0.30980095  1  0  -0.141002  0  3.753246  0  0  -0.157829  0  4.000922  0  0  -0.160139  0  4.021812  0  0  -0.094872  -0.156181  0  3.986821  0
C  C28  1  0.67476735  0.04235004  0.39109197  1  0  -0.071421  0  3.784161  0  0  -0.08721  0  4.037565  0  0  -0.089644  0  4.060706  0  0  -0.098018  -0.085414  0  4.021727  0
C  C29  1  0.17476358  0.45765393  0.60890950  1  0  -0.071212  0  3.784112  0  0  -0.086986  0  4.037496  0  0  -0.089421  0  4.060639  0  0  -0.097904  -0.085196  0  4.021657  0
C  C30  1  0.32523919  0.95765438  0.60891208  1  0  -0.071391  0  3.784143  0  0  -0.087157  0  4.037525  0  0  -0.089591  0  4.060668  0  0  -0.097957  -0.085379  0  4.021681  0
C  C31  1  0.82525666  0.54234516  0.39109064  1  0  -0.071297  0  3.784162  0  0  -0.087088  0  4.037548  0  0  -0.089524  0  4.06069  0  0  -0.097953  -0.085278  0  4.021715  0
C  C32  1  0.62178299  0.15355753  0.38735166  1  0  -0.078677  0  3.792886  0  0  -0.093074  0  4.042309  0  0  -0.095413  0  4.065346  0  0  -0.099804  -0.091397  0  4.026563  0
C  C33  1  0.12177491  0.34644482  0.61264437  1  0  -0.078608  0  3.792885  0  0  -0.092968  0  4.04228  0  0  -0.09531  0  4.065329  0  0  -0.099806  -0.091289  0  4.026533  0
C  C34  1  0.37823451  0.84644598  0.61264933  1  0  -0.078501  0  3.792678  0  0  -0.092874  0  4.042118  0  0  -0.09521  0  4.065151  0  0  -0.099778  -0.091199  0  4.026386  0
C  C35  1  0.87823163  0.65355337  0.38735339  1  0  -0.078509  0  3.792867  0  0  -0.092879  0  4.04228  0  0  -0.09522  0  4.065333  0  0  -0.099757  -0.091202  0  4.026538  0
C  C36  1  0.47383130  0.16263396  0.30306620  1  0  -0.140814  0  3.765581  0  0  -0.157239  0  4.013327  0  0  -0.159485  0  4.03324  0  0  -0.094607  -0.155558  0  3.999935  0
C  C37  1  0.97381333  0.33736713  0.69693115  1  0  -0.140963  0  3.765538  0  0  -0.157339  0  4.013254  0  0  -0.159612  0  4.033137  0  0  -0.094628  -0.155644  0  3.999866  0
C  C38  1  0.52619990  0.83736957  0.69693617  1  0  -0.140859  0  3.765619  0  0  -0.157338  0  4.013342  0  0  -0.159597  0  4.033234  0  0  -0.094577  -0.155657  0  3.999953  0
C  C39  1  0.02616309  0.66263192  0.30306484  1  0  -0.140939  0  3.765663  0  0  -0.157361  0  4.013417  0  0  -0.159632  0  4.033288  0  0  -0.094659  -0.155689  0  4.000028  0
C  C40  1  0.38817872  0.05680877  0.22006348  1  0  0.122843  0  3.85039  0  0  0.122353  0  4.087218  0  0  0.123775  0  4.112642  0  0  0.086914  0.121296  0  4.07007  0
C  C41  1  0.88816937  0.44318910  0.77993335  1  0  0.122717  0  3.850573  0  0  0.122283  0  4.087333  0  0  0.123706  0  4.11276  0  0  0.086893  0.121226  0  4.070189  0
C  C42  1  0.61183879  0.94319121  0.77993697  1  0  0.122535  0  3.850676  0  0  0.122247  0  4.087297  0  0  0.123669  0  4.11272  0  0  0.086865  0.121184  0  4.07017  0
C  C43  1  0.11182348  0.55680820  0.22006410  1  0  0.122748  0  3.850498  0  0  0.12235  0  4.087209  0  0  0.123771  0  4.112648  0  0  0.086903  0.121294  0  4.070072  0
N  N44  1  0.33995542  0.86174347  0.13099310  1  0  -0.286412  0  3.26781  0  0  -0.216831  0  3.573852  0  0  -0.232329  0  3.587725  0  0  -0.262499  -0.206327  0  3.56436  0
N  N45  1  0.83994163  0.63825424  0.86900762  1  0  -0.286557  0  3.267953  0  0  -0.216968  0  3.57406  0  0  -0.232468  0  3.587933  0  0  -0.262562  -0.206462  0  3.564566  0
N  N46  1  0.66005387  0.13825653  0.86900942  1  0  -0.286428  0  3.267795  0  0  -0.216834  0  3.573876  0  0  -0.232336  0  3.587749  0  0  -0.262485  -0.206329  0  3.564384  0
N  N47  1  0.16005670  0.36174219  0.13099021  1  0  -0.286389  0  3.267729  0  0  -0.216808  0  3.573791  0  0  -0.232307  0  3.587664  0  0  -0.262474  -0.206302  0  3.564298  0
N  N48  1  0.22283672  0.91842319  0.07551073  1  0  -0.055597  0  3.193926  0  0  -0.00641  0  3.491107  0  0  -0.007027  0  3.503022  0  0  -0.12849  -0.005817  0  3.483051  0
N  N49  1  0.72282305  0.58157316  0.92448801  1  0  -0.055524  0  3.194055  0  0  -0.006351  0  3.491247  0  0  -0.006964  0  3.503159  0  0  -0.128487  -0.005759  0  3.483192  0
N  N50  1  0.77715065  0.08157684  0.92449387  1  0  -0.055654  0  3.193904  0  0  -0.006485  0  3.491126  0  0  -0.007097  0  3.503033  0  0  -0.128586  -0.005891  0  3.48307  0
N  N51  1  0.27715337  0.41842412  0.07550736  1  0  -0.055738  0  3.193827  0  0  -0.006577  0  3.491068  0  0  -0.007189  0  3.502974  0  0  -0.128622  -0.005984  0  3.483016  0
N  N52  1  0.24711833  0.03565532  0.12712353  1  0  -0.267511  0  3.237212  0  0  -0.203168  0  3.54186  0  0  -0.218013  0  3.556333  0  0  -0.257158  -0.193082  0  3.531973  0
N  N53  1  0.74710427  0.46434217  0.87287163  1  0  -0.267575  0  3.23726  0  0  -0.203213  0  3.541854  0  0  -0.218062  0  3.556329  0  0  -0.25717  -0.193129  0  3.531975  0
N  N54  1  0.75288000  0.96434468  0.87287899  1  0  -0.267423  0  3.237224  0  0  -0.203116  0  3.54179  0  0  -0.217964  0  3.556265  0  0  -0.257096  -0.193031  0  3.531901  0
N  N55  1  0.25286667  0.53565597  0.12712129  1  0  -0.26737  0  3.237019  0  0  -0.203038  0  3.541619  0  0  -0.217885  0  3.556092  0  0  -0.257007  -0.192954  0  3.531737  0
