# generated using pymatgen
data_ZnH6(C2O)6
_symmetry_space_group_name_H-M   'P 1'
_cell_length_a   5.54044386
_cell_length_b   15.38573966
_cell_length_c   15.38061745
_cell_angle_alpha   90.16443411
_cell_angle_beta   82.98780631
_cell_angle_gamma   82.88486863
_symmetry_Int_Tables_number   1
_chemical_formula_structural   ZnH6(C2O)6
_chemical_formula_sum   'Zn4 H24 C48 O24'
_cell_volume   1291.05948799
_cell_formula_units_Z   4
loop_
 _symmetry_equiv_pos_site_id
 _symmetry_equiv_pos_as_xyz
  1  'x, y, z'
loop_
 _atom_site_type_symbol
 _atom_site_label
 _atom_site_symmetry_multiplicity
 _atom_site_fract_x
 _atom_site_fract_y
 _atom_site_fract_z
 _atom_site_occupancy
 _atom_site_pbe_bader_charge
 _atom_site_pbe_bader_spin_density
 _atom_site_pbe_cm5_charge
 _atom_site_pbe_ddec_charge
 _atom_site_pbe_ddec_spin_density
 _atom_site_pbe_ddec_sum_bond_order
 _atom_site_pbe_magmom
Zn  Zn0  1  0.27093568  0.00444842  0.50628665  1  1.298244  0  0.691948  0.898545  0  2.328642  0
Zn  Zn1  1  0.75060501  0.97772478  0.48447416  1  1.278322  0  0.688703  0.888996  0  2.28111  0
Zn  Zn2  1  0.74934634  0.48363811  0.97848039  1  1.279603  0  0.688361  0.888785  0  2.281997  0
Zn  Zn3  1  0.26954125  0.50621247  0.00517012  1  1.298997  0  0.692197  0.900132  0  2.326202  0
H  H4  1  0.27133620  0.73177593  0.05052797  1  0.062632  0  0.095695  0.105035  0  1.036852  0
H  H5  1  0.97693288  0.86553293  0.06025969  1  0.04536  0  0.098438  0.094869  0  1.025487  0
H  H6  1  0.30682547  0.96239218  0.27249421  1  0.062735  0  0.096933  0.109309  0  1.025337  0
H  H7  1  0.00282144  0.98398480  0.16854762  1  0.103855  0  0.101126  0.105577  0  1.006999  0
H  H8  1  0.30577813  0.27215014  0.96267350  1  0.082723  0  0.096249  0.108638  0  1.025438  0
H  H9  1  0.00273444  0.16807275  0.98429034  1  0.100136  0  0.100817  0.105017  0  1.006151  0
H  H10  1  0.27134221  0.04997049  0.73214585  1  0.054526  0  0.095569  0.105554  0  1.036823  0
H  H11  1  0.97750255  0.05962436  0.86587813  1  0.039473  0  0.098277  0.09455  0  1.025111  0
H  H12  1  0.06599669  0.46141960  0.23532113  1  0.091159  0  0.093798  0.099621  0  1.075018  0
H  H13  1  0.75704924  0.47877937  0.36356871  1  0.068335  0  0.104254  0.104897  0  0.984235  0
H  H14  1  0.06646348  0.23503616  0.46182627  1  0.101727  0  0.093826  0.099851  0  1.07409  0
H  H15  1  0.75737259  0.36338883  0.47905708  1  0.066328  0  0.104223  0.104578  0  0.9843  0
H  H16  1  0.69960711  0.71057062  0.93885910  1  0.069904  0  0.09372  0.099396  0  1.043714  0
H  H17  1  0.96758072  0.82556519  0.94100890  1  0.063823  0  0.09831  0.096314  0  1.033291  0
H  H18  1  0.69991573  0.93800980  0.71142267  1  0.046876  0  0.093817  0.099941  0  1.044412  0
H  H19  1  0.96783298  0.93986270  0.82665381  1  0.03887  0  0.097793  0.094723  0  1.031622  0
H  H20  1  0.00608434  0.79075396  0.36003591  1  0.655241  0  0.316377  0.363963  0  0.936522  0
H  H21  1  0.99994588  0.58009950  0.15654882  1  0.654588  0  0.311757  0.34565  0  0.962692  0
H  H22  1  0.99921428  0.15587803  0.58072789  1  0.609682  0  0.311759  0.34548  0  0.963099  0
H  H23  1  0.00415334  0.35969314  0.79114411  1  0.652357  0  0.316381  0.363691  0  0.937126  0
H  H24  1  0.82159118  0.10175899  0.31000445  1  0.63159  0  0.311541  0.356717  0  0.957883  0
H  H25  1  0.82176474  0.30958373  0.10265571  1  0.639905  0  0.311765  0.357696  0  0.955216  0
H  H26  1  0.04464289  0.80763320  0.60195083  1  0.65287  0  0.315946  0.361318  0  0.930038  0
H  H27  1  0.04407160  0.60181474  0.80800170  1  0.647858  0  0.31619  0.361619  0  0.929524  0
C  C28  1  0.41299240  0.87484589  0.61162011  1  1.483135  0  0.226974  0.629377  0  4.081426  0
C  C29  1  0.62742259  0.87837394  0.36289794  1  1.462667  0  0.221213  0.620179  0  4.093006  0
C  C30  1  0.43730965  0.12257201  0.38879875  1  1.4576  0  0.2267  0.623531  0  4.067633  0
C  C31  1  0.63246119  0.09404596  0.61593929  1  1.44172  0  0.228252  0.629951  0  4.055436  0
C  C32  1  0.43714657  0.38835665  0.12311922  1  1.46116  0  0.226524  0.623284  0  4.065908  0
C  C33  1  0.63263335  0.61538899  0.09470714  1  1.443217  0  0.227966  0.630398  0  4.054606  0
C  C34  1  0.41288855  0.61107423  0.87539819  1  1.48791  0  0.226931  0.629531  0  4.083659  0
C  C35  1  0.62645935  0.36232828  0.87891098  1  1.463189  0  0.221824  0.621498  0  4.089764  0
C  C36  1  0.63930520  0.68946760  0.15476945  1  0.008371  0  -0.032213  -0.223495  0  3.943093  0
C  C37  1  0.45756317  0.76626178  0.15942411  1  0.028041  0  -0.004459  0.072193  0  3.958488  0
C  C38  1  0.82363652  0.68328915  0.20987905  1  0.578754  0  0.101112  0.225965  0  4.022425  0
C  C39  1  0.28006910  0.78105381  0.10031493  1  0.001598  0  -0.102055  -0.141347  0  3.991211  0
C  C40  1  0.11585576  0.85681661  0.10491370  1  -0.049243  0  -0.097942  -0.08811  0  4.052271  0
C  C41  1  0.63942748  0.81957619  0.28630719  1  0.053175  0  -0.029738  -0.218401  0  3.968334  0
C  C42  1  0.82601390  0.74929725  0.27572583  1  0.603087  0  0.099812  0.226959  0  4.036387  0
C  C43  1  0.46171360  0.83233418  0.22499178  1  -0.020877  0  -0.006041  0.065646  0  3.983823  0
C  C44  1  0.29760303  0.91072574  0.22524266  1  -0.051336  0  -0.100932  -0.132866  0  3.982546  0
C  C45  1  0.12678459  0.92297953  0.16676288  1  -0.036167  0  -0.097187  -0.082882  0  4.042911  0
C  C46  1  0.63833534  0.28580283  0.82001739  1  -0.003196  0  -0.030601  -0.218765  0  3.968246  0
C  C47  1  0.46099890  0.22448082  0.83273941  1  0.005345  0  -0.005906  0.065327  0  3.984765  0
C  C48  1  0.82454783  0.27531703  0.74969812  1  0.620804  0  0.098426  0.225017  0  4.036971  0
C  C49  1  0.29695869  0.22476752  0.91107198  1  -0.049065  0  -0.100111  -0.131966  0  3.980158  0
C  C50  1  0.12662649  0.16623588  0.92331548  1  -0.038548  0  -0.096618  -0.081842  0  4.040117  0
C  C51  1  0.63867208  0.15423351  0.68994489  1  0.000966  0  -0.032758  -0.224544  0  3.946614  0
C  C52  1  0.82247907  0.20942939  0.68371756  1  0.586572  0  0.101286  0.225918  0  4.024895  0
C  C53  1  0.45705906  0.15888452  0.76667235  1  0.029967  0  -0.003787  0.073738  0  3.958137  0
C  C54  1  0.27998642  0.09975244  0.78143001  1  -0.021562  0  -0.101682  -0.142266  0  3.990252  0
C  C55  1  0.11603252  0.10431771  0.85717459  1  -0.022602  0  -0.098323  -0.088135  0  4.053  0
C  C56  1  0.43653936  0.32801551  0.19739784  1  -5e-05  0  -0.030424  -0.223203  0  3.949297  0
C  C57  1  0.24283967  0.33554000  0.27014298  1  -0.02193  0  -0.005827  0.070649  0  3.973622  0
C  C58  1  0.63649024  0.26249659  0.19711204  1  0.5464  0  0.10044  0.226767  0  4.018479  0
C  C59  1  0.06290672  0.40965914  0.28268042  1  -0.016285  0  -0.103787  -0.139276  0  3.991931  0
C  C60  1  0.88892329  0.41969305  0.35556095  1  -0.103546  0  -0.094303  -0.080294  0  4.044723  0
C  C61  1  0.43665746  0.19689370  0.32848694  1  0.010432  0  -0.030107  -0.224185  0  3.949263  0
C  C62  1  0.63645185  0.19648785  0.26302397  1  0.631103  0  0.099992  0.227212  0  4.016925  0
C  C63  1  0.24301015  0.26975853  0.33595132  1  0.064226  0  -0.005801  0.071698  0  3.972763  0
C  C64  1  0.06323662  0.28238585  0.41003121  1  -0.001532  0  -0.103999  -0.139705  0  3.991032  0
C  C65  1  0.88910546  0.35532381  0.41998378  1  -0.023888  0  -0.093554  -0.079028  0  4.044074  0
C  C66  1  0.39550559  0.68558095  0.81552714  1  0.011177  0  -0.03151  -0.22113  0  3.968778  0
C  C67  1  0.55111965  0.75340747  0.81973660  1  0.085318  0  -0.004025  0.071513  0  3.979593  0
C  C68  1  0.22664700  0.68868589  0.75498826  1  0.602358  0  0.09902  0.22544  0  4.029764  0
C  C69  1  0.69915588  0.75925544  0.88794493  1  -0.057152  0  -0.101349  -0.13496  0  3.995645  0
C  C70  1  0.84800963  0.82455543  0.88999460  1  0.002845  0  -0.098939  -0.089502  0  4.05281  0
C  C71  1  0.39553575  0.81498525  0.68614999  1  0.077585  0  -0.032062  -0.223257  0  3.970031  0
C  C72  1  0.22671412  0.75454881  0.68909927  1  0.511686  0  0.099064  0.225774  0  4.028147  0
C  C73  1  0.55114215  0.81904837  0.75411307  1  -0.041724  0  -0.003782  0.073615  0  3.976977  0
C  C74  1  0.69928419  0.88709794  0.76009526  1  -0.035038  0  -0.10059  -0.136572  0  3.993673  0
C  C75  1  0.84811239  0.88899847  0.82552245  1  -0.040461  0  -0.098398  -0.084151  0  4.047494  0
O  O76  1  0.20838766  0.90729219  0.58294819  1  -1.13786  0  -0.315031  -0.55167  0  2.313326  0
O  O77  1  0.62135536  0.89287962  0.57816932  1  -1.164884  0  -0.297744  -0.535089  0  2.358404  0
O  O78  1  0.83520451  0.88852126  0.39216947  1  -1.129461  0  -0.312368  -0.538869  0  2.309419  0
O  O79  1  0.42396224  0.91566844  0.40001449  1  -1.168646  0  -0.303988  -0.555956  0  2.349331  0
O  O80  1  0.64520172  0.07815801  0.39910864  1  -1.172531  0  -0.308093  -0.567649  0  2.36065  0
O  O81  1  0.23299572  0.10196664  0.42809728  1  -1.136229  0  -0.307287  -0.515825  0  2.335787  0
O  O82  1  0.43158092  0.07234216  0.59746448  1  -1.168295  0  -0.292855  -0.535864  0  2.40618  0
O  O83  1  0.84094505  0.06363814  0.56798812  1  -1.151397  0  -0.319063  -0.573216  0  2.350404  0
O  O84  1  0.64500810  0.39852201  0.07878713  1  -1.1701  0  -0.307735  -0.567464  0  2.362379  0
O  O85  1  0.23279818  0.42785071  0.10248529  1  -1.134387  0  -0.307383  -0.516133  0  2.336945  0
O  O86  1  0.43150865  0.59702275  0.07313235  1  -1.169132  0  -0.292592  -0.535806  0  2.404747  0
O  O87  1  0.84087753  0.56721886  0.06430220  1  -1.154317  0  -0.31915  -0.574674  0  2.350149  0
O  O88  1  0.20817869  0.58267081  0.90777664  1  -1.14196  0  -0.314603  -0.5519  0  2.316058  0
O  O89  1  0.62123488  0.57745498  0.89352942  1  -1.163414  0  -0.297585  -0.534838  0  2.358118  0
O  O90  1  0.83432091  0.39144723  0.88910087  1  -1.131204  0  -0.313075  -0.540073  0  2.307173  0
O  O91  1  0.42319975  0.39955502  0.91626053  1  -1.16851  0  -0.303862  -0.556738  0  2.34592  0
O  O92  1  0.01134539  0.73613048  0.32472749  1  -1.137636  0  -0.331128  -0.394112  0  2.296189  0
O  O93  1  0.00425819  0.61642074  0.20914351  1  -1.152915  0  -0.327472  -0.381812  0  2.363628  0
O  O94  1  0.00285057  0.20866193  0.61685502  1  -1.103773  0  -0.327459  -0.381431  0  2.36467  0
O  O95  1  0.00931530  0.32442081  0.73649472  1  -1.136078  0  -0.330476  -0.392738  0  2.295245  0
O  O96  1  0.83580230  0.13631675  0.25512236  1  -1.126226  0  -0.333035  -0.400989  0  2.316147  0
O  O97  1  0.83610310  0.25467246  0.13718020  1  -1.13558  0  -0.333351  -0.401795  0  2.315201  0
O  O98  1  0.06102789  0.75127840  0.63235005  1  -1.14072  0  -0.333702  -0.393539  0  2.306586  0
O  O99  1  0.06079799  0.63213623  0.75161952  1  -1.128674  0  -0.333455  -0.393582  0  2.308962  0
