# generated using pymatgen
data_Al2H9C16S2NO12
_symmetry_space_group_name_H-M   'P 1'
_cell_length_a   6.70964308
_cell_length_b   11.22487632
_cell_length_c   12.73471825
_cell_angle_alpha   74.94888650
_cell_angle_beta   74.44217676
_cell_angle_gamma   71.45170887
_symmetry_Int_Tables_number   1
_chemical_formula_structural   Al2H9C16S2NO12
_chemical_formula_sum   'Al2 H9 C16 S2 N1 O12'
_cell_volume   859.86620303
_cell_formula_units_Z   1
loop_
 _symmetry_equiv_pos_site_id
 _symmetry_equiv_pos_as_xyz
  1  'x, y, z'
loop_
 _atom_site_type_symbol
 _atom_site_label
 _atom_site_symmetry_multiplicity
 _atom_site_fract_x
 _atom_site_fract_y
 _atom_site_fract_z
 _atom_site_occupancy
 _atom_site_pbe_bader_charge
 _atom_site_pbe_bader_spin_density
 _atom_site_pbe_cm5_charge
 _atom_site_pbe_ddec_charge
 _atom_site_pbe_ddec_spin_density
 _atom_site_pbe_ddec_sum_bond_order
 _atom_site_pbe_magmom
Al  Al0  1  0.50004574  0.49969141  0.50104289  1  2.504996  0  0.403822  1.641451  0  2.574777  0
Al  Al1  1  0.00137646  0.49734709  0.50401047  1  2.505476  0  0.397623  1.651506  0  2.570579  0
H  H2  1  0.25386887  0.60684175  0.37454223  1  0.629278  0  0.354594  0.433846  0  0.848238  0
H  H3  1  0.76933718  0.35586275  0.60649879  1  0.633596  0  0.357741  0.437604  0  0.84147  0
H  H4  1  0.75787259  0.10708864  0.52093466  1  0.140765  0  0.109503  0.136593  0  1.029231  0
H  H5  1  0.25201792  0.88965206  0.47815324  1  0.137831  0  0.112696  0.141556  0  1.026376  0
H  H6  1  0.65477366  0.44125755  0.16095564  1  0.123746  0  0.116306  0.137981  0  0.992559  0
H  H7  1  0.93430807  0.77393021  0.53117292  1  0.626848  0  0.313786  0.355267  0  0.968424  0
H  H8  1  0.07852188  0.22313102  0.46653183  1  0.641645  0  0.310994  0.349338  0  0.981099  0
H  H9  1  0.48151056  0.57040244  0.88466383  1  0.46205  0  0.292308  0.282381  0  1.000449  0
H  H10  1  0.46503864  0.55356125  0.75589889  1  0.497557  0  0.312438  0.322483  0  0.950881  0
C  C11  1  0.83854789  0.51313142  0.30421604  1  1.585321  0  0.260529  0.650669  0  4.136886  0
C  C12  1  0.63589147  0.72665457  0.50396011  1  1.50683  0  0.265572  0.653281  0  4.06967  0
C  C13  1  0.16529898  0.48196862  0.70070973  1  1.553192  0  0.247752  0.654805  0  4.143882  0
C  C14  1  0.37077517  0.26960199  0.49855805  1  1.52601  0  0.26713  0.655494  0  4.059677  0
C  C15  1  0.57031908  0.86563386  0.50246345  1  -0.009541  0  -0.030771  -0.17039  0  4.004063  0
C  C16  1  0.43903413  0.13112818  0.49726073  1  -0.04551  0  -0.031453  -0.169215  0  4.006878  0
C  C17  1  0.71428689  0.92821992  0.51562250  1  0.471304  0  0.083088  0.288282  0  4.064421  0
C  C18  1  0.29596520  0.06857748  0.48300231  1  0.458741  0  0.081884  0.288602  0  4.06432  0
C  C19  1  0.64583177  0.05988377  0.51256948  1  0.115816  0  -0.095685  -0.189589  0  3.943585  0
C  C20  1  0.36400369  0.93693855  0.48645266  1  0.049544  0  -0.095447  -0.188989  0  3.939996  0
C  C21  1  0.21398232  0.52179835  0.87853607  1  0.555308  0  0.11351  0.291557  0  4.11859  0
C  C22  1  0.80379532  0.46878615  0.12486028  1  0.05303  0  -0.087644  -0.133945  0  3.966728  0
C  C23  1  0.10533064  0.48366130  0.81772963  1  -0.172762  0  -0.048111  -0.273546  0  3.954372  0
C  C24  1  0.90776107  0.50627348  0.18593802  1  -0.1824  0  -0.019606  -0.118048  0  3.96981  0
C  C25  1  0.91657662  0.47186602  0.01391794  1  -0.151461  0  -0.021862  0.004666  0  4.111217  0
C  C26  1  0.10299648  0.51345703  0.99172743  1  -0.178486  0  -0.02621  -0.117294  0  4.022364  0
S  S27  1  0.87504664  0.43900635  0.89767269  1  0.231792  0  0.067677  0.094755  0  2.835423  0
S  S28  1  0.14239439  0.54563336  0.10863740  1  0.252004  0  0.084546  0.130708  0  2.759334  0
N  N29  1  0.39049105  0.56574798  0.83474229  1  -1.253348  0  -0.577168  -0.576568  0  3.37028  0
O  O30  1  0.65114261  0.49973980  0.35065750  1  -1.256566  0  -0.236407  -0.587536  0  2.325727  0
O  O31  1  0.82706037  0.66506816  0.52126429  1  -1.267756  0  -0.239177  -0.612742  0  2.399794  0
O  O32  1  0.03537697  0.46074253  0.65415220  1  -1.274964  0  -0.252852  -0.61561  0  2.32402  0
O  O33  1  0.49817674  0.32315623  0.51438887  1  -1.254951  0  -0.23541  -0.584732  0  2.32653  0
O  O34  1  0.34886645  0.50215734  0.64960165  1  -1.267642  0  -0.241035  -0.601433  0  2.346639  0
O  O35  1  0.17670636  0.32966506  0.48466890  1  -1.26627  0  -0.240637  -0.618269  0  2.412941  0
O  O36  1  0.96989237  0.53198355  0.35077861  1  -1.260545  0  -0.244007  -0.605566  0  2.326622  0
O  O37  1  0.50817994  0.67375036  0.48770447  1  -1.256279  0  -0.231397  -0.575626  0  2.332824  0
O  O38  1  0.24090699  0.56337224  0.45154774  1  -1.432372  0  -0.44751  -0.988709  0  2.172786  0
O  O39  1  0.75957754  0.43404925  0.55114923  1  -1.438046  0  -0.44919  -0.997312  0  2.189153  0
O  O40  1  0.91617055  0.86554661  0.53142316  1  -1.137716  0  -0.349459  -0.436474  0  2.303425  0
O  O41  1  0.09483660  0.13179527  0.46579053  1  -1.156063  0  -0.352459  -0.441232  0  2.301641  0
