# generated using pymatgen
data_Ag2H3C5N3O5
_symmetry_space_group_name_H-M   'P 1'
_cell_length_a   6.03108518
_cell_length_b   8.86879742
_cell_length_c   15.38312009
_cell_angle_alpha   93.15609448
_cell_angle_beta   89.99941902
_cell_angle_gamma   90.00034291
_symmetry_Int_Tables_number   1
_chemical_formula_structural   Ag2H3C5N3O5
_chemical_formula_sum   'Ag8 H12 C20 N12 O20'
_cell_volume   821.57158434
_cell_formula_units_Z   4
loop_
 _symmetry_equiv_pos_site_id
 _symmetry_equiv_pos_as_xyz
  1  'x, y, z'
loop_
 _atom_site_type_symbol
 _atom_site_label
 _atom_site_symmetry_multiplicity
 _atom_site_fract_x
 _atom_site_fract_y
 _atom_site_fract_z
 _atom_site_occupancy
 _atom_site_hle17_bader_spin_density
 _atom_site_hle17_ddec_charge
 _atom_site_hle17_ddec_spin_density
 _atom_site_hle17_ddec_sum_bond_order
 _atom_site_hle17_magmom
 _atom_site_hse06_10hf_bader_spin_density
 _atom_site_hse06_10hf_ddec_charge
 _atom_site_hse06_10hf_ddec_spin_density
 _atom_site_hse06_10hf_ddec_sum_bond_order
 _atom_site_hse06_10hf_magmom
 _atom_site_hse06_bader_spin_density
 _atom_site_hse06_ddec_charge
 _atom_site_hse06_ddec_spin_density
 _atom_site_hse06_ddec_sum_bond_order
 _atom_site_hse06_magmom
 _atom_site_pbe_bader_spin_density
 _atom_site_pbe_cm5_charge
 _atom_site_pbe_ddec_charge
 _atom_site_pbe_ddec_spin_density
 _atom_site_pbe_ddec_sum_bond_order
 _atom_site_pbe_magmom
Ag  Ag0  1  0.78389638  0.36236821  0.80549353  1  0  0.610019  0  1.400001  0  0  0.492827  0  1.847385  0  0  0.520442  0  1.793361  0  0  0.459578  0.474044  0  1.885103  0
Ag  Ag1  1  0.28388953  0.63762342  0.69450590  1  0  0.610016  0  1.399951  0  0  0.492779  0  1.847416  0  0  0.520396  0  1.793388  0  0  0.459568  0.473991  0  1.885145  0
Ag  Ag2  1  0.21609901  0.63763151  0.19450128  1  0  0.609979  0  1.400023  0  0  0.492775  0  1.847416  0  0  0.520395  0  1.793401  0  0  0.459568  0.473994  0  1.885132  0
Ag  Ag3  1  0.71610586  0.36237071  0.30549850  1  0  0.609965  0  1.400043  0  0  0.492778  0  1.847426  0  0  0.520393  0  1.793402  0  0  0.459557  0.47399  0  1.885139  0
Ag  Ag4  1  0.44472972  0.24895639  0.67886503  1  0  0.588597  0  1.291382  0  0  0.45444  0  1.737114  0  0  0.491319  0  1.677464  0  0  0.427375  0.428772  0  1.77885  0
Ag  Ag5  1  0.94472964  0.75103470  0.82113180  1  0  0.58852  0  1.291461  0  0  0.454368  0  1.737188  0  0  0.49125  0  1.677541  0  0  0.427359  0.428701  0  1.778921  0
Ag  Ag6  1  0.55526898  0.75104110  0.32113362  1  0  0.588588  0  1.291411  0  0  0.454428  0  1.737175  0  0  0.491305  0  1.677528  0  0  0.427368  0.42876  0  1.778908  0
Ag  Ag7  1  0.05527570  0.24896392  0.17886883  1  0  0.588582  0  1.291444  0  0  0.454399  0  1.737164  0  0  0.491279  0  1.677517  0  0  0.427353  0.42873  0  1.778895  0
H  H8  1  0.79896690  0.15014728  0.96696645  1  0  0.106789  0  0.939519  0  0  0.114636  0  1.002106  0  0  0.117419  0  1.000302  0  0  0.124273  0.112472  0  1.003819  0
H  H9  1  0.29897113  0.84986019  0.53302754  1  0  0.106776  0  0.939607  0  0  0.114646  0  1.002154  0  0  0.117398  0  1.000389  0  0  0.124273  0.112482  0  1.003868  0
H  H10  1  0.20104673  0.84986717  0.03303726  1  0  0.106791  0  0.939527  0  0  0.114611  0  1.002132  0  0  0.117403  0  1.000319  0  0  0.124339  0.112444  0  1.003846  0
H  H11  1  0.70102260  0.15014406  0.46696936  1  0  0.106856  0  0.939486  0  0  0.114696  0  1.002067  0  0  0.117425  0  1.000328  0  0  0.124283  0.11253  0  1.00378  0
H  H12  1  0.07892441  0.38767591  0.00571279  1  0  0.104171  0  0.978704  0  0  0.108439  0  1.047882  0  0  0.112023  0  1.044699  0  0  0.119601  0.105753  0  1.050448  0
H  H13  1  0.57893016  0.61231564  0.49428786  1  0  0.104091  0  0.978853  0  0  0.108399  0  1.047981  0  0  0.111983  0  1.044797  0  0  0.11952  0.105712  0  1.050545  0
H  H14  1  0.92108258  0.61232837  0.99429126  1  0  0.104241  0  0.978619  0  0  0.108421  0  1.047897  0  0  0.112003  0  1.044715  0  0  0.119557  0.105729  0  1.050463  0
H  H15  1  0.42107186  0.38768071  0.50570945  1  0  0.104073  0  0.978819  0  0  0.108385  0  1.047986  0  0  0.111969  0  1.044803  0  0  0.11952  0.105698  0  1.050552  0
H  H16  1  0.56201079  0.10451481  0.09859976  1  0  0.099866  0  0.946297  0  0  0.101848  0  1.019073  0  0  0.105002  0  1.016213  0  0  0.119933  0.099413  0  1.021427  0
H  H17  1  0.06199912  0.89550040  0.40140362  1  0  0.099861  0  0.946342  0  0  0.101869  0  1.019101  0  0  0.105015  0  1.016241  0  0  0.119955  0.099432  0  1.021451  0
H  H18  1  0.43799951  0.89548267  0.90139758  1  0  0.099862  0  0.946364  0  0  0.101861  0  1.019126  0  0  0.105013  0  1.016266  0  0  0.119941  0.099426  0  1.021487  0
H  H19  1  0.93799129  0.10450499  0.59859527  1  0  0.09983  0  0.946251  0  0  0.101847  0  1.019034  0  0  0.104996  0  1.016175  0  0  0.119938  0.099409  0  1.02139  0
C  C20  1  0.37674751  0.37030891  0.92842770  1  0  0.060986  0  3.708392  0  0  0.067223  0  3.949176  0  0  0.064226  0  3.969416  0  0  0.115458  0.068582  0  3.936241  0
C  C21  1  0.87675788  0.62969436  0.57157301  1  0  0.061067  0  3.708153  0  0  0.067225  0  3.949043  0  0  0.064219  0  3.969286  0  0  0.11545  0.068586  0  3.936101  0
C  C22  1  0.62325119  0.62969312  0.07157628  1  0  0.061124  0  3.708386  0  0  0.06738  0  3.949048  0  0  0.064387  0  3.969289  0  0  0.115519  0.068734  0  3.936114  0
C  C23  1  0.12324082  0.37031215  0.42842591  1  0  0.061067  0  3.708274  0  0  0.067268  0  3.949099  0  0  0.064266  0  3.969344  0  0  0.115472  0.06863  0  3.936156  0
C  C24  1  0.63958276  0.20664158  0.97710380  1  0  0.085938  0  3.617046  0  0  0.05776  0  3.868005  0  0  0.059039  0  3.886994  0  0  0.058402  0.056298  0  3.856253  0
C  C25  1  0.13958510  0.79336645  0.52289668  1  0  0.085908  0  3.616889  0  0  0.057726  0  3.867887  0  0  0.059032  0  3.886858  0  0  0.058374  0.056264  0  3.856135  0
C  C26  1  0.36042920  0.79336383  0.02289833  1  0  0.085968  0  3.616984  0  0  0.057814  0  3.867977  0  0  0.059097  0  3.886952  0  0  0.058308  0.056358  0  3.856221  0
C  C27  1  0.86041526  0.20663780  0.47710217  1  0  0.085708  0  3.617029  0  0  0.057584  0  3.868015  0  0  0.05892  0  3.886976  0  0  0.058292  0.056121  0  3.856259  0
C  C28  1  0.29666539  0.48571317  0.86692448  1  0  0.62112  0  3.929081  0  0  0.564129  0  4.214914  0  0  0.598908  0  4.211572  0  0  0.203727  0.540382  0  4.216476  0
C  C29  1  0.79666816  0.51428414  0.63307376  1  0  0.621056  0  3.929254  0  0  0.564064  0  4.215093  0  0  0.598845  0  4.211752  0  0  0.203699  0.540316  0  4.216652  0
C  C30  1  0.70332999  0.51428321  0.13307933  1  0  0.621044  0  3.929192  0  0  0.564102  0  4.214915  0  0  0.598883  0  4.211572  0  0  0.203785  0.540358  0  4.216477  0
C  C31  1  0.20332557  0.48571785  0.36692372  1  0  0.621193  0  3.929015  0  0  0.564275  0  4.21471  0  0  0.599057  0  4.211367  0  0  0.203829  0.540526  0  4.216275  0
C  C32  1  0.24105113  0.33565579  0.99794854  1  0  0.083156  0  3.645898  0  0  0.043005  0  3.903463  0  0  0.047791  0  3.917786  0  0  0.05535  0.039478  0  3.894683  0
C  C33  1  0.74105368  0.66434586  0.50205265  1  0  0.083039  0  3.645923  0  0  0.042912  0  3.903452  0  0  0.047696  0  3.917781  0  0  0.055393  0.03939  0  3.89466  0
C  C34  1  0.75895586  0.66434512  0.00205606  1  0  0.08299  0  3.645682  0  0  0.042903  0  3.903233  0  0  0.047689  0  3.91756  0  0  0.055338  0.039386  0  3.89444  0
C  C35  1  0.25894502  0.33565500  0.49794414  1  0  0.083191  0  3.645817  0  0  0.042981  0  3.903411  0  0  0.047766  0  3.917743  0  0  0.055408  0.039452  0  3.894629  0
C  C36  1  0.50607657  0.17894396  0.04888832  1  0  0.094358  0  3.635592  0  0  0.06594  0  3.891566  0  0  0.069509  0  3.908873  0  0  0.062052  0.06337  0  3.880258  0
C  C37  1  0.00606791  0.82106764  0.45111257  1  0  0.094471  0  3.635299  0  0  0.065998  0  3.891338  0  0  0.069577  0  3.908629  0  0  0.062076  0.063432  0  3.880024  0
C  C38  1  0.49393043  0.82105690  0.95110978  1  0  0.094303  0  3.635693  0  0  0.065843  0  3.891734  0  0  0.069414  0  3.909039  0  0  0.062028  0.063268  0  3.880438  0
C  C39  1  0.99392748  0.17893322  0.54888423  1  0  0.094617  0  3.635158  0  0  0.066078  0  3.891256  0  0  0.06965  0  3.908552  0  0  0.062115  0.063515  0  3.879946  0
N  N40  1  0.57683738  0.30416714  0.91773339  1  0  -0.253955  0  3.269686  0  0  -0.185594  0  3.542897  0  0  -0.198579  0  3.559377  0  0  -0.312096  -0.176765  0  3.532129  0
N  N41  1  0.07684228  0.69583839  0.58226531  1  0  -0.253867  0  3.269432  0  0  -0.185478  0  3.542667  0  0  -0.198445  0  3.559118  0  0  -0.312015  -0.176644  0  3.531892  0
N  N42  1  0.42316961  0.69583712  0.08226676  1  0  -0.253982  0  3.269705  0  0  -0.185604  0  3.542876  0  0  -0.198604  0  3.55937  0  0  -0.312121  -0.176776  0  3.532108  0
N  N43  1  0.92315642  0.30416587  0.41773288  1  0  -0.253862  0  3.269683  0  0  -0.18548  0  3.542867  0  0  -0.198458  0  3.559324  0  0  -0.312009  -0.176644  0  3.532082  0
N  N44  1  0.10136950  0.06363300  0.80295836  1  0  0.693025  0  4.129086  0  0  0.723285  0  4.414262  0  0  0.751034  0  4.422994  0  0  0.087609  0.702663  0  4.408386  0
N  N45  1  0.60136933  0.93635793  0.69703851  1  0  0.692695  0  4.129542  0  0  0.723011  0  4.41466  0  0  0.750762  0  4.423388  0  0  0.087535  0.702516  0  4.408629  0
N  N46  1  0.89862754  0.93636450  0.19704354  1  0  0.692971  0  4.129096  0  0  0.723242  0  4.414281  0  0  0.750985  0  4.423004  0  0  0.087646  0.702626  0  4.4084  0
N  N47  1  0.39862937  0.06363729  0.30296072  1  0  0.693088  0  4.129183  0  0  0.723353  0  4.414355  0  0  0.751096  0  4.423085  0  0  0.087626  0.702729  0  4.408484  0
N  N48  1  0.19435842  0.24336276  0.55905192  1  0  -0.236077  0  3.191234  0  0  -0.169802  0  3.46968  0  0  -0.183372  0  3.483126  0  0  -0.303356  -0.160611  0  3.460898  0
N  N49  1  0.69436352  0.75662853  0.94094589  1  0  -0.235828  0  3.191379  0  0  -0.169584  0  3.469694  0  0  -0.183152  0  3.483136  0  0  -0.303242  -0.160392  0  3.460905  0
N  N50  1  0.80564360  0.75663472  0.44094542  1  0  -0.235969  0  3.191444  0  0  -0.169722  0  3.469807  0  0  -0.183288  0  3.483249  0  0  -0.303374  -0.16053  0  3.461016  0
N  N51  1  0.30564347  0.24337235  0.05905546  1  0  -0.235899  0  3.19156  0  0  -0.169653  0  3.469916  0  0  -0.18322  0  3.483363  0  0  -0.303279  -0.160462  0  3.461128  0
O  O52  1  0.42763945  0.52435931  0.80761102  1  0  -0.607968  0  2.192207  0  0  -0.528439  0  2.479148  0  0  -0.560168  0  2.465662  0  0  -0.315208  -0.506322  0  2.487785  0
O  O53  1  0.92763701  0.47564528  0.69238953  1  0  -0.607939  0  2.192233  0  0  -0.528392  0  2.479155  0  0  -0.560124  0  2.465669  0  0  -0.315217  -0.506295  0  2.48784  0
O  O54  1  0.57235427  0.47563820  0.19239282  1  0  -0.607862  0  2.192208  0  0  -0.528383  0  2.479125  0  0  -0.56011  0  2.465638  0  0  -0.315166  -0.506261  0  2.487742  0
O  O55  1  0.07236004  0.52435218  0.30760522  1  0  -0.607972  0  2.192073  0  0  -0.528472  0  2.478987  0  0  -0.560201  0  2.465497  0  0  -0.315239  -0.506372  0  2.48767  0
O  O56  1  0.13105325  0.19970927  0.78301287  1  0  -0.483799  0  1.911781  0  0  -0.453363  0  2.181147  0  0  -0.471746  0  2.168837  0  0  -0.200752  -0.439495  0  2.189516  0
O  O57  1  0.63105467  0.80028291  0.71698392  1  0  -0.483631  0  1.911787  0  0  -0.453258  0  2.181212  0  0  -0.471677  0  2.16899  0  0  -0.200733  -0.439436  0  2.189541  0
O  O58  1  0.86893716  0.80028823  0.21698838  1  0  -0.483747  0  1.911787  0  0  -0.453359  0  2.181234  0  0  -0.47177  0  2.168997  0  0  -0.200754  -0.439497  0  2.189604  0
O  O59  1  0.36894072  0.19971345  0.28301599  1  0  -0.483829  0  1.911748  0  0  -0.453406  0  2.181156  0  0  -0.471817  0  2.168912  0  0  -0.20078  -0.43954  0  2.189522  0
O  O60  1  0.10271692  0.53692873  0.88121888  1  0  -0.635057  0  2.158349  0  0  -0.560013  0  2.438911  0  0  -0.591973  0  2.427686  0  0  -0.317005  -0.537601  0  2.445908  0
O  O61  1  0.60273287  0.46305429  0.61877384  1  0  -0.635014  0  2.15845  0  0  -0.559968  0  2.43902  0  0  -0.591924  0  2.427789  0  0  -0.316948  -0.537559  0  2.446024  0
O  O62  1  0.89727515  0.46306088  0.11878473  1  0  -0.635112  0  2.158575  0  0  -0.560028  0  2.43898  0  0  -0.591983  0  2.42775  0  0  -0.317076  -0.537619  0  2.445979  0
O  O63  1  0.39726251  0.53694883  0.38122237  1  0  -0.635072  0  2.158354  0  0  -0.560102  0  2.438957  0  0  -0.592053  0  2.427714  0  0  -0.317069  -0.537694  0  2.445965  0
O  O64  1  0.58684316  0.03981947  0.75774687  1  0  -0.471416  0  1.831562  0  0  -0.453238  0  2.087913  0  0  -0.472944  0  2.079764  0  0  -0.198175  -0.438766  0  2.093423  0
O  O65  1  0.08684784  0.96017029  0.74225132  1  0  -0.471591  0  1.831505  0  0  -0.453322  0  2.087747  0  0  -0.473025  0  2.079592  0  0  -0.198239  -0.438812  0  2.093301  0
O  O66  1  0.41315223  0.96017688  0.24225109  1  0  -0.471602  0  1.831554  0  0  -0.45336  0  2.087849  0  0  -0.473059  0  2.079697  0  0  -0.198232  -0.438849  0  2.093403  0
O  O67  1  0.91315252  0.03982609  0.25775185  1  0  -0.471594  0  1.831563  0  0  -0.453353  0  2.087807  0  0  -0.473051  0  2.079655  0  0  -0.198272  -0.438845  0  2.093355  0
O  O68  1  0.08395687  0.03187588  0.88167706  1  0  -0.459753  0  1.756859  0  0  -0.443077  0  1.977705  0  0  -0.457913  0  1.970873  0  0  -0.186753  -0.431689  0  1.982211  0
O  O69  1  0.58395573  0.96811726  0.61832189  1  0  -0.459688  0  1.757059  0  0  -0.443004  0  1.97785  0  0  -0.457851  0  1.971041  0  0  -0.186756  -0.43166  0  1.982311  0
O  O70  1  0.91604515  0.96812162  0.11832484  1  0  -0.45972  0  1.756771  0  0  -0.443016  0  1.97759  0  0  -0.45786  0  1.970774  0  0  -0.186755  -0.43163  0  1.982093  0
O  O71  1  0.41604629  0.03187796  0.38167734  1  0  -0.459752  0  1.756943  0  0  -0.443085  0  1.977797  0  0  -0.457911  0  1.970959  0  0  -0.186734  -0.4317  0  1.982306  0
