# generated using pymatgen
data_ZnH6C17(NO2)4
_symmetry_space_group_name_H-M   'P 1'
_cell_length_a   14.86246310
_cell_length_b   16.15672699
_cell_length_c   17.24744616
_cell_angle_alpha   88.93144347
_cell_angle_beta   85.57880064
_cell_angle_gamma   89.22933154
_symmetry_Int_Tables_number   1
_chemical_formula_structural   ZnH6C17(NO2)4
_chemical_formula_sum   'Zn2 H12 C34 N8 O16'
_cell_volume   4128.26576888
_cell_formula_units_Z   2
loop_
 _symmetry_equiv_pos_site_id
 _symmetry_equiv_pos_as_xyz
  1  'x, y, z'
loop_
 _atom_site_type_symbol
 _atom_site_label
 _atom_site_symmetry_multiplicity
 _atom_site_fract_x
 _atom_site_fract_y
 _atom_site_fract_z
 _atom_site_occupancy
 _atom_site_pbe_bader_charge
 _atom_site_pbe_bader_spin_density
 _atom_site_pbe_cm5_charge
 _atom_site_pbe_ddec_charge
 _atom_site_pbe_ddec_spin_density
 _atom_site_pbe_ddec_sum_bond_order
 _atom_site_pbe_magmom
Zn  Zn0  1  0.59410157  0.49781293  0.50057361  1  1.30843  0  0.685514  0.88619  0  2.419246  0
Zn  Zn1  1  0.40589835  0.50218930  0.49942697  1  1.310239  0  0.685504  0.886172  0  2.419228  0
H  H2  1  0.58828949  0.57750705  0.74232253  1  0.10068  0  0.114273  0.121474  0  0.975613  0
H  H3  1  0.41169963  0.42249825  0.25768008  1  0.100431  0  0.11425  0.121447  0  0.975592  0
H  H4  1  0.58432175  0.57793578  0.88817079  1  0.098314  0  0.112137  0.1146  0  1.002751  0
H  H5  1  0.41566740  0.42206581  0.11183125  1  0.098234  0  0.112211  0.114629  0  1.002702  0
H  H6  1  0.64637240  0.58156746  0.09985656  1  0.12323  0  0.12288  0.138961  0  0.976717  0
H  H7  1  0.35363252  0.41841558  0.90014376  1  0.123195  0  0.122919  0.138982  0  0.976638  0
H  H8  1  0.64629648  0.92243655  0.49175324  1  0.075776  0  0.111695  0.115824  0  0.98013  0
H  H9  1  0.35370074  0.07756569  0.50824698  1  0.075842  0  0.11168  0.115832  0  0.980118  0
H  H10  1  0.64460905  0.07678098  0.49196379  1  0.085666  0  0.111016  0.114216  0  0.98289  0
H  H11  1  0.35538815  0.92322127  0.50803527  1  0.085661  0  0.111045  0.114275  0  0.982841  0
H  H12  1  0.09987291  0.56723760  0.39494272  1  0.160999  0  0.148006  0.167331  0  0.944008  0
H  H13  1  0.90012781  0.43276027  0.60506073  1  0.161233  0  0.148024  0.167284  0  0.944029  0
C  C14  1  0.50017913  0.66054470  0.49896124  1  1.698416  0  0.219666  0.671937  0  4.234214  0
C  C15  1  0.49982347  0.33945754  0.50103797  1  1.698214  0  0.219684  0.671869  0  4.234213  0
C  C16  1  0.51628807  0.50283766  0.34820708  1  1.540281  0  0.218583  0.601077  0  4.192248  0
C  C17  1  0.48370921  0.49716024  0.65179317  1  1.540571  0  0.21849  0.601039  0  4.192469  0
C  C18  1  0.52307362  0.50486918  0.26077745  1  0.097566  0  0.006343  -0.04023  0  3.89478  0
C  C19  1  0.47692372  0.49512623  0.73922455  1  0.097828  0  0.006439  -0.040163  0  3.89475  0
C  C20  1  0.46178420  0.45808683  0.22217092  1  -0.023454  0  -0.072126  -0.070515  0  3.957612  0
C  C21  1  0.53821034  0.54191293  0.77782896  1  -0.023841  0  -0.072213  -0.070558  0  3.957767  0
C  C22  1  0.46390324  0.45752721  0.14167382  1  -0.013221  0  -0.073986  -0.131948  0  3.935067  0
C  C23  1  0.53609135  0.54247007  0.85832665  1  -0.012901  0  -0.07397  -0.132092  0  3.93518  0
C  C24  1  0.52925466  0.50411723  0.09726220  1  0.441393  0  0.091969  0.18139  0  4.047753  0
C  C25  1  0.47074542  0.49587385  0.90273845  1  0.440751  0  0.092153  0.181674  0  4.047528  0
C  C26  1  0.59434422  0.54728213  0.13430297  1  -0.04314  0  -0.066176  -0.181471  0  3.909754  0
C  C27  1  0.40565795  0.45270585  0.86569869  1  -0.042839  0  -0.066311  -0.181679  0  3.909745  0
C  C28  1  0.58915425  0.54847704  0.21504478  1  0.241445  0  0.08497  0.061672  0  3.922478  0
C  C29  1  0.41085065  0.45151032  0.78495724  1  0.241486  0  0.084975  0.061779  0  3.922379  0
C  C30  1  0.58163785  0.04266120  0.49546950  1  -0.099166  0  -0.077448  -0.119357  0  3.9573  0
C  C31  1  0.41835938  0.95734041  0.50453073  1  -0.099109  0  -0.07746  -0.119371  0  3.957366  0
C  C32  1  0.49906736  0.08727016  0.50003539  1  0.120712  0  0.005321  0.133556  0  4.105648  0
C  C33  1  0.50093053  0.91273208  0.49996478  1  0.120726  0  0.00536  0.133573  0  4.105675  0
C  C34  1  0.41740749  0.04316507  0.50454185  1  0.059053  0  -0.075911  -0.116078  0  3.95389  0
C  C35  1  0.58258973  0.95683717  0.49545838  1  0.058897  0  -0.075945  -0.116056  0  3.95389  0
C  C36  1  0.49845197  0.17484746  0.50027276  1  -0.551842  0  -0.029432  -0.050552  0  4.096302  0
C  C37  1  0.50154519  0.82515481  0.49972457  1  -0.551839  0  -0.029344  -0.050402  0  4.096159  0
C  C38  1  0.50142431  0.74975308  0.49925107  1  0.199478  0  -0.044144  -0.175637  0  3.958964  0
C  C39  1  0.49857694  0.25024855  0.50074767  1  0.199475  0  -0.044057  -0.175471  0  3.958914  0
C  C40  1  0.96406634  0.54211289  0.43877790  1  0.283957  0  0.110983  0.064975  0  3.873046  0
C  C41  1  0.03593369  0.45788560  0.56122503  1  0.284051  0  0.110918  0.06482  0  3.872948  0
C  C42  1  0.90572096  0.50482777  0.49690188  1  0.09164  0  0.044228  0.04803  0  4.034507  0
C  C43  1  0.09427903  0.49517196  0.50310046  1  0.091701  0  0.044285  0.048148  0  4.034424  0
C  C44  1  0.94304428  0.46228875  0.55881310  1  0.106664  0  -0.032138  -0.110783  0  3.853331  0
C  C45  1  0.05695574  0.53771036  0.44118982  1  0.107104  0  -0.032153  -0.110939  0  3.853384  0
C  C46  1  0.81009092  0.50615361  0.49555250  1  0.899462  0  0.245533  0.292312  0  3.924516  0
C  C47  1  0.18990975  0.49384735  0.50445035  1  0.899467  0  0.245539  0.292284  0  3.924504  0
N  N48  1  0.53482740  0.51191633  0.01538642  1  -0.539367  0  -0.145301  -0.13238  0  3.271578  0
N  N49  1  0.46517200  0.48807537  0.98461428  1  -0.497076  0  -0.145417  -0.132324  0  3.27148  0
N  N50  1  0.26775355  0.50043325  0.49858659  1  -1.097397  0  -0.242032  -0.22787  0  3.057058  0
N  N51  1  0.73224571  0.49956836  0.50141405  1  -1.097405  0  -0.242037  -0.227921  0  3.057011  0
N  N52  1  0.65331804  0.60286416  0.25044690  1  0.412297  0  0.059732  0.523553  0  4.216277  0
N  N53  1  0.34669364  0.39711827  0.74955287  1  0.412506  0  0.059779  0.523546  0  4.215824  0
N  N54  1  0.92681763  0.58888131  0.37318857  1  0.436066  0  0.069941  0.497539  0  4.221256  0
N  N55  1  0.07318373  0.41111658  0.62681309  1  0.436148  0  0.070037  0.497846  0  4.220964  0
O  O56  1  0.57617080  0.62324970  0.50082757  1  -1.134003  0  -0.313934  -0.543556  0  2.263958  0
O  O57  1  0.42383174  0.37675320  0.49916932  1  -1.134026  0  -0.313954  -0.54353  0  2.263908  0
O  O58  1  0.42294326  0.62736844  0.49734448  1  -1.135465  0  -0.318578  -0.548054  0  2.256009  0
O  O59  1  0.57705941  0.37263254  0.50265705  1  -1.135347  0  -0.318603  -0.548066  0  2.256054  0
O  O60  1  0.58959487  0.49780983  0.38123166  1  -1.144025  0  -0.314039  -0.543176  0  2.311875  0
O  O61  1  0.41040312  0.50218682  0.61876970  1  -1.14401  0  -0.313944  -0.543131  0  2.312001  0
O  O62  1  0.43650918  0.50390057  0.38036888  1  -1.14907  0  -0.313718  -0.546188  0  2.300498  0
O  O63  1  0.56348737  0.49610043  0.61963083  1  -1.149308  0  -0.313683  -0.54618  0  2.300623  0
O  O64  1  0.73389195  0.59614150  0.22653755  1  -0.4616  0  -0.146124  -0.345457  0  1.86557  0
O  O65  1  0.62148652  0.65297058  0.29869809  1  -0.416882  0  -0.122839  -0.308466  0  1.887446  0
O  O66  1  0.26612072  0.40382602  0.77346747  1  -0.46181  0  -0.146142  -0.345347  0  1.865414  0
O  O67  1  0.37853092  0.34702308  0.70129359  1  -0.417005  0  -0.122874  -0.308594  0  1.887262  0
O  O68  1  0.97764827  0.59828156  0.31375040  1  -0.406733  0  -0.100047  -0.283527  0  1.853562  0
O  O69  1  0.84852705  0.61479883  0.38468192  1  -0.388297  0  -0.074932  -0.259484  0  1.916785  0
O  O70  1  0.02235046  0.40170646  0.68624807  1  -0.406758  0  -0.100091  -0.28366  0  1.853512  0
O  O71  1  0.15147832  0.38520830  0.61532341  1  -0.388355  0  -0.074981  -0.259623  0  1.916688  0
