# generated using pymatgen
data_AlH11C16N2O5
_symmetry_space_group_name_H-M   'P 1'
_cell_length_a   6.66480427
_cell_length_b   23.66655379
_cell_length_c   25.82474837
_cell_angle_alpha   90.01919848
_cell_angle_beta   88.88168403
_cell_angle_gamma   89.00206155
_symmetry_Int_Tables_number   1
_chemical_formula_structural   AlH11C16N2O5
_chemical_formula_sum   'Al4 H44 C64 N8 O20'
_cell_volume   4072.01916980
_cell_formula_units_Z   4
loop_
 _symmetry_equiv_pos_site_id
 _symmetry_equiv_pos_as_xyz
  1  'x, y, z'
loop_
 _atom_site_type_symbol
 _atom_site_label
 _atom_site_symmetry_multiplicity
 _atom_site_fract_x
 _atom_site_fract_y
 _atom_site_fract_z
 _atom_site_occupancy
 _atom_site_pbe_bader_charge
 _atom_site_pbe_bader_spin_density
 _atom_site_pbe_cm5_charge
 _atom_site_pbe_ddec_charge
 _atom_site_pbe_ddec_spin_density
 _atom_site_pbe_ddec_sum_bond_order
 _atom_site_pbe_magmom
Al  Al0  1  0.98736848  0.00401985  0.49451782  1  2.504158  0  0.398572  1.642693  0  2.574184  0
Al  Al1  1  0.48686532  0.00203258  0.49897660  1  2.502223  0  0.392743  1.644248  0  2.596514  0
Al  Al2  1  0.01510562  0.50317315  0.99675968  1  2.500943  0  0.396085  1.643759  0  2.586771  0
Al  Al3  1  0.51518392  0.50147972  0.99668630  1  2.503902  0  0.394402  1.646227  0  2.58969  0
H  H4  1  0.22919192  0.07502321  0.51294595  1  0.617321  0  0.351495  0.424572  0  0.861531  0
H  H5  1  0.74726874  0.92750983  0.50489945  1  0.630345  0  0.35149  0.423675  0  0.863269  0
H  H6  1  0.26721095  0.42941900  0.01011096  1  0.618018  0  0.352556  0.426346  0  0.859366  0
H  H7  1  0.75648504  0.57659065  0.00832244  1  0.609896  0  0.356586  0.434248  0  0.845089  0
H  H8  1  0.45971494  0.36726856  0.09281788  1  0.08026  0  0.102799  0.101184  0  1.021204  0
H  H9  1  0.43206652  0.29681972  0.16418629  1  0.093378  0  0.100732  0.109961  0  1.006958  0
H  H10  1  0.03831503  0.33374335  0.20713991  1  0.070519  0  0.105725  0.119594  0  0.996418  0
H  H11  1  0.40757393  0.20587439  0.32365519  1  0.056271  0  0.104565  0.117126  0  1.000026  0
H  H12  1  0.02283804  0.09199792  0.35757534  1  0.097979  0  0.106977  0.106999  0  1.013908  0
H  H13  1  0.02838748  0.16508980  0.28757045  1  0.077812  0  0.099996  0.108092  0  1.009481  0
H  H14  1  0.96762662  0.63919091  0.89947596  1  0.09824  0  0.105191  0.104949  0  1.017287  0
H  H15  1  0.95814085  0.71055871  0.82819525  1  0.067282  0  0.099926  0.108576  0  1.010213  0
H  H16  1  0.57811472  0.67000400  0.79088237  1  0.084503  0  0.105246  0.118149  0  0.999422  0
H  H17  1  0.94911143  0.79528586  0.67381601  1  0.056336  0  0.106255  0.120416  0  0.995762  0
H  H18  1  0.52968535  0.91723374  0.63488288  1  0.090603  0  0.105668  0.107129  0  1.014582  0
H  H19  1  0.55502914  0.84475353  0.70495064  1  0.074127  0  0.10081  0.109113  0  1.007339  0
H  H20  1  0.55833312  0.62925162  0.10006287  1  0.088977  0  0.103065  0.101334  0  1.019945  0
H  H21  1  0.56978507  0.70217727  0.16974097  1  0.078333  0  0.100502  0.109315  0  1.008364  0
H  H22  1  0.95598849  0.66516580  0.21170476  1  0.100319  0  0.105408  0.1189  0  0.997649  0
H  H23  1  0.56555613  0.79148867  0.32651453  1  0.059037  0  0.105596  0.118535  0  0.998046  0
H  H24  1  0.95992932  0.91022045  0.36397439  1  0.089793  0  0.10805  0.109744  0  1.009907  0
H  H25  1  0.95466468  0.83932519  0.29216393  1  0.068697  0  0.101062  0.110086  0  1.006122  0
H  H26  1  0.47551535  0.41445589  0.86249900  1  0.085192  0  0.107888  0.110432  0  1.009715  0
H  H27  1  0.45278328  0.33957285  0.79457790  1  0.051185  0  0.100729  0.108933  0  1.009082  0
H  H28  1  0.06484583  0.28935554  0.82507044  1  0.076392  0  0.10517  0.118656  0  0.997445  0
H  H29  1  0.43025739  0.16512908  0.71025894  1  0.065415  0  0.105299  0.118233  0  0.998639  0
H  H30  1  0.03217668  0.13558091  0.59689782  1  0.093239  0  0.102469  0.100628  0  1.02258  0
H  H31  1  0.04466569  0.20365864  0.67037966  1  0.080437  0  0.100435  0.109709  0  1.007177  0
H  H32  1  0.12064043  0.43581378  0.10493275  1  0.489103  0  0.308918  0.315222  0  0.980797  0
H  H33  1  0.22096515  0.40118898  0.15895312  1  0.431079  0  0.310987  0.307787  0  0.950382  0
H  H34  1  0.34787886  0.09728960  0.42078762  1  0.508504  0  0.307751  0.318409  0  0.985605  0
H  H35  1  0.23655240  0.15305777  0.38678683  1  0.45609  0  0.305939  0.299943  0  0.96156  0
H  H36  1  0.63928156  0.56914271  0.89459831  1  0.502793  0  0.312482  0.321775  0  0.971019  0
H  H37  1  0.74919361  0.60205599  0.84064640  1  0.477276  0  0.309715  0.30485  0  0.952342  0
H  H38  1  0.86424468  0.90550536  0.57986413  1  0.495062  0  0.304439  0.305729  0  0.997783  0
H  H39  1  0.75990032  0.84945854  0.61456579  1  0.447237  0  0.303319  0.299012  0  0.968035  0
H  H40  1  0.89422008  0.56160743  0.11057041  1  0.50122  0  0.309005  0.316989  0  0.975663  0
H  H41  1  0.78504627  0.59611230  0.16424878  1  0.42145  0  0.308859  0.304471  0  0.953183  0
H  H42  1  0.62250973  0.89773498  0.42504017  1  0.505719  0  0.306623  0.311364  0  0.991111  0
H  H43  1  0.73716395  0.84315978  0.38911598  1  0.452771  0  0.305197  0.299326  0  0.96387  0
H  H44  1  0.14552267  0.40069462  0.91833609  1  0.509755  0  0.307173  0.317202  0  0.980086  0
H  H45  1  0.25075308  0.34321542  0.88414859  1  0.457807  0  0.30498  0.299226  0  0.964767  0
H  H46  1  0.37101958  0.06487536  0.60606252  1  0.492517  0  0.310359  0.316236  0  0.979844  0
H  H47  1  0.26122351  0.09713567  0.66116776  1  0.44935  0  0.312057  0.309088  0  0.944887  0
C  C48  1  0.73207590  0.07366157  0.56623571  1  1.502378  0  0.259246  0.65583  0  4.081073  0
C  C49  1  0.73082284  0.06718353  0.42338485  1  1.539791  0  0.260119  0.652128  0  4.095965  0
C  C50  1  0.24652688  0.93157095  0.42912040  1  1.514887  0  0.261249  0.653587  0  4.085798  0
C  C51  1  0.23485546  0.93774916  0.57098404  1  1.517966  0  0.254729  0.645251  0  4.0961  0
C  C52  1  0.77309231  0.43699701  0.92381797  1  1.498244  0  0.257988  0.646889  0  4.095977  0
C  C53  1  0.76392873  0.43034409  0.06518313  1  1.508843  0  0.257021  0.651967  0  4.085645  0
C  C54  1  0.25894096  0.56669736  0.07157444  1  1.528258  0  0.254904  0.648319  0  4.10127  0
C  C55  1  0.26659914  0.57370382  0.92897972  1  1.500129  0  0.261207  0.653072  0  4.086657  0
C  C56  1  0.76118231  0.39044476  0.10888634  1  0.02849  0  -0.037494  -0.189825  0  3.942895  0
C  C57  1  0.58480916  0.35989922  0.11858365  1  -0.102101  0  -0.090327  -0.073555  0  4.063794  0
C  C58  1  0.56807016  0.32101902  0.15821585  1  -0.002694  0  -0.111671  -0.191013  0  4.005497  0
C  C59  1  0.73512919  0.31115402  0.19046281  1  0.069538  0  0.002892  0.174913  0  4.150297  0
C  C60  1  0.91115400  0.34127890  0.18194968  1  0.019008  0  -0.099814  -0.259659  0  3.886798  0
C  C61  1  0.92962834  0.38120033  0.14156990  1  0.436925  0  0.11576  0.322597  0  4.081818  0
C  C62  1  0.72595373  0.27004001  0.23025272  1  0.032007  0  -0.044994  -0.110071  0  4.102599  0
C  C63  1  0.71981896  0.23365282  0.26370197  1  -0.421742  0  -0.039612  -0.094686  0  4.098785  0
C  C64  1  0.71784739  0.19110631  0.30229104  1  0.109542  0  0.00071  0.166536  0  4.155574  0
C  C65  1  0.54291083  0.18083340  0.33117490  1  -0.047151  0  -0.099282  -0.255543  0  3.886355  0
C  C66  1  0.53612880  0.13914412  0.37035735  1  0.464237  0  0.116123  0.319784  0  4.072291  0
C  C67  1  0.71721152  0.10807553  0.38064564  1  0.019574  0  -0.034191  -0.182565  0  3.940879  0
C  C68  1  0.89016909  0.11807844  0.35006973  1  -0.113666  0  -0.088945  -0.077502  0  4.06021  0
C  C69  1  0.89426246  0.15840794  0.31140984  1  0.020742  0  -0.110932  -0.186732  0  4.006766  0
C  C70  1  0.27391634  0.61421677  0.88576795  1  0.048794  0  -0.034954  -0.185602  0  3.938999  0
C  C71  1  0.09941004  0.64599803  0.87476801  1  -0.102747  0  -0.089993  -0.076766  0  4.063842  0
C  C72  1  0.09301601  0.68535698  0.83529478  1  -0.026191  0  -0.111076  -0.189602  0  4.008499  0
C  C73  1  0.26897885  0.69427625  0.80471001  1  0.106116  0  0.001256  0.170526  0  4.150741  0
C  C74  1  0.44371547  0.66302329  0.81469414  1  -0.054021  0  -0.100021  -0.259836  0  3.887238  0
C  C75  1  0.45208632  0.62272693  0.85502659  1  0.49413  0  0.116818  0.321596  0  4.07583  0
C  C76  1  0.26785935  0.73552188  0.76491934  1  -0.252364  0  -0.041158  -0.099051  0  4.095229  0
C  C77  1  0.26331243  0.77193088  0.73147337  1  -0.145577  0  -0.042938  -0.105412  0  4.09887  0
C  C78  1  0.25361879  0.81419931  0.69273040  1  0.123168  0  0.002305  0.17239  0  4.149043  0
C  C79  1  0.07690044  0.82210672  0.66516708  1  0.012721  0  -0.098599  -0.255663  0  3.884544  0
C  C80  1  0.05898135  0.86368557  0.62629335  1  0.424867  0  0.11371  0.319536  0  4.07214  0
C  C81  1  0.23015862  0.89703998  0.61415635  1  0.002952  0  -0.035773  -0.18181  0  3.936792  0
C  C82  1  0.40476632  0.88944798  0.64346874  1  -0.096805  0  -0.090027  -0.077949  0  4.057416  0
C  C83  1  0.41986738  0.84934146  0.68214687  1  -0.014333  0  -0.109258  -0.187929  0  4.004473  0
C  C84  1  0.25426595  0.60620957  0.11576423  1  -0.047884  0  -0.036682  -0.185496  0  3.940463  0
C  C85  1  0.42815830  0.63719621  0.12536686  1  -0.038647  0  -0.090297  -0.074892  0  4.062374  0
C  C86  1  0.43570667  0.67741886  0.16406633  1  -0.0326  0  -0.11118  -0.189887  0  4.007429  0
C  C87  1  0.26153621  0.68806578  0.19527829  1  0.089471  0  0.001893  0.171812  0  4.151939  0
C  C88  1  0.08848795  0.65698284  0.18718342  1  -0.037848  0  -0.100014  -0.258699  0  3.88843  0
C  C89  1  0.07955093  0.61566083  0.14787182  1  0.466512  0  0.113614  0.319095  0  4.081447  0
C  C90  1  0.26094330  0.73066937  0.23385250  1  -0.00673  0  -0.042353  -0.102838  0  4.100247  0
C  C91  1  0.26051676  0.76769708  0.26677285  1  -0.384674  0  -0.041531  -0.101383  0  4.098269  0
C  C92  1  0.26010103  0.80971724  0.30587896  1  0.047583  0  0.002289  0.170641  0  4.147696  0
C  C93  1  0.43217950  0.81752303  0.33490670  1  0.026197  0  -0.098165  -0.254383  0  3.884829  0
C  C94  1  0.43853766  0.85790129  0.37508418  1  0.4869  0  0.115184  0.319317  0  4.071885  0
C  C95  1  0.26033644  0.89049427  0.38639693  1  0.019645  0  -0.033888  -0.182761  0  3.939252  0
C  C96  1  0.09022507  0.88301190  0.35568954  1  -0.064021  0  -0.088022  -0.076967  0  4.055692  0
C  C97  1  0.08646498  0.84386158  0.31601551  1  -0.003307  0  -0.108861  -0.187081  0  4.002717  0
C  C98  1  0.77859458  0.39436285  0.88226993  1  0.070376  0  -0.034964  -0.182676  0  3.938864  0
C  C99  1  0.60259311  0.38614038  0.85408091  1  -0.090572  0  -0.087742  -0.0743  0  4.052682  0
C  C100  1  0.58876664  0.34461165  0.81676138  1  -0.010818  0  -0.111723  -0.191924  0  4.008168  0
C  C101  1  0.75797450  0.30876368  0.80659014  1  0.147696  0  0.001524  0.169508  0  4.153106  0
C  C102  1  0.93549053  0.31698066  0.83332400  1  -0.049452  0  -0.099944  -0.257829  0  3.887183  0
C  C103  1  0.95210603  0.35985475  0.87103693  1  0.440551  0  0.115577  0.319713  0  4.07797  0
C  C104  1  0.74866730  0.26547501  0.76882103  1  0.065297  0  -0.041328  -0.098699  0  4.098226  0
C  C105  1  0.73966405  0.22896940  0.73558458  1  -0.45148  0  -0.043332  -0.105625  0  4.099431  0
C  C106  1  0.73648552  0.18853597  0.69514168  1  0.085459  0  0.0017  0.171765  0  4.152079  0
C  C107  1  0.56270220  0.15847782  0.68534963  1  -0.005679  0  -0.100149  -0.259188  0  3.88872  0
C  C108  1  0.55293046  0.11972982  0.64386048  1  0.473224  0  0.115904  0.322135  0  4.077624  0
C  C109  1  0.72744601  0.11187364  0.61125458  1  0.023866  0  -0.036207  -0.18795  0  3.93814  0
C  C110  1  0.90176500  0.14205084  0.62243167  1  -0.043648  0  -0.089517  -0.073107  0  4.063105  0
C  C111  1  0.91007495  0.17962738  0.66324225  1  -0.074396  0  -0.110891  -0.18914  0  4.003217  0
N  N112  1  0.10355806  0.40989491  0.13588586  1  -1.24329  0  -0.586617  -0.609018  0  3.367394  0
N  N113  1  0.36179267  0.13178512  0.39761858  1  -1.290919  0  -0.586832  -0.606046  0  3.356356  0
N  N114  1  0.62553000  0.59291940  0.86212656  1  -1.298371  0  -0.583816  -0.60372  0  3.348995  0
N  N115  1  0.88278285  0.86943490  0.60066291  1  -1.273006  0  -0.592156  -0.611029  0  3.351871  0
N  N116  1  0.90881353  0.58551915  0.14284495  1  -1.24098  0  -0.587599  -0.608068  0  3.354269  0
N  N117  1  0.61040512  0.86295258  0.40233400  1  -1.296756  0  -0.589197  -0.607733  0  3.349559  0
N  N118  1  0.12789141  0.36557150  0.89631466  1  -1.290133  0  -0.587393  -0.607604  0  3.349968  0
N  N119  1  0.38087348  0.09085439  0.63707097  1  -1.276768  0  -0.58553  -0.609279  0  3.364087  0
O  O120  1  0.90232291  0.05914822  0.54615661  1  -1.267592  0  -0.247479  -0.613177  0  2.340011  0
O  O121  1  0.56577651  0.04892317  0.44286953  1  -1.274064  0  -0.240348  -0.604845  0  2.395943  0
O  O122  1  0.40937367  0.94545031  0.45139174  1  -1.275252  0  -0.239407  -0.606933  0  2.382717  0
O  O123  1  0.06897729  0.95205553  0.54962329  1  -1.262468  0  -0.243946  -0.609615  0  2.368048  0
O  O124  1  0.07347974  0.95113266  0.44264376  1  -1.267403  0  -0.242365  -0.599753  0  2.346385  0
O  O125  1  0.40677037  0.95606814  0.55647662  1  -1.267486  0  -0.251198  -0.618919  0  2.361476  0
O  O126  1  0.56318130  0.05706500  0.54891033  1  -1.264924  0  -0.243384  -0.614546  0  2.37655  0
O  O127  1  0.90424205  0.05280839  0.43973916  1  -1.269875  0  -0.24372  -0.59961  0  2.333345  0
O  O128  1  0.23587341  0.03865138  0.49563476  1  -1.423395  0  -0.447333  -0.985467  0  2.201  0
O  O129  1  0.74078861  0.96789461  0.49916688  1  -1.439037  0  -0.448801  -0.989367  0  2.214394  0
O  O130  1  0.93995645  0.45279579  0.94288307  1  -1.270142  0  -0.240116  -0.603234  0  2.366811  0
O  O131  1  0.59626927  0.44431761  0.04493037  1  -1.275273  0  -0.247783  -0.615336  0  2.345422  0
O  O132  1  0.42997761  0.55122914  0.05272771  1  -1.271864  0  -0.247154  -0.610976  0  2.348705  0
O  O133  1  0.09565652  0.55840836  0.94693884  1  -1.266825  0  -0.244772  -0.602812  0  2.327492  0
O  O134  1  0.08984131  0.55077852  0.05377651  1  -1.273638  0  -0.245357  -0.619111  0  2.376975  0
O  O135  1  0.43430803  0.55605181  0.94700605  1  -1.261283  0  -0.23828  -0.602487  0  2.39149  0
O  O136  1  0.60136247  0.45538817  0.93955285  1  -1.266189  0  -0.243372  -0.600839  0  2.361537  0
O  O137  1  0.93454535  0.44897002  0.04921134  1  -1.265627  0  -0.245018  -0.615582  0  2.373038  0
O  O138  1  0.26594172  0.46708534  0.99542179  1  -1.4248  0  -0.44867  -0.988791  0  2.204761  0
O  O139  1  0.76242039  0.53691215  0.99920604  1  -1.416441  0  -0.449526  -0.997605  0  2.220132  0
