# generated using pymatgen
data_CsH17C17SO9
_symmetry_space_group_name_H-M   'P 1'
_cell_length_a   6.83662355
_cell_length_b   9.99840046
_cell_length_c   15.17591220
_cell_angle_alpha   71.56791892
_cell_angle_beta   86.10284783
_cell_angle_gamma   68.26608670
_symmetry_Int_Tables_number   1
_chemical_formula_structural   CsH17C17SO9
_chemical_formula_sum   'Cs2 H34 C34 S2 O18'
_cell_volume   912.75719927
_cell_formula_units_Z   2
loop_
 _symmetry_equiv_pos_site_id
 _symmetry_equiv_pos_as_xyz
  1  'x, y, z'
loop_
 _atom_site_type_symbol
 _atom_site_label
 _atom_site_symmetry_multiplicity
 _atom_site_fract_x
 _atom_site_fract_y
 _atom_site_fract_z
 _atom_site_occupancy
 _atom_site_pbe_bader_spin_density
 _atom_site_pbe_cm5_charge
 _atom_site_pbe_ddec_charge
 _atom_site_pbe_ddec_spin_density
 _atom_site_pbe_ddec_sum_bond_order
 _atom_site_pbe_magmom
Cs  Cs0  1  0.96090929  0.74697687  0.99443557  1  0  0.822446  0.927365  0  0.720451  0
Cs  Cs1  1  0.03909427  0.25302448  0.00556651  1  0  0.822436  0.927369  0  0.720427  0
H  H2  1  0.43925412  0.60934304  0.27490544  1  0  0.108057  0.116969  0  1.024971  0
H  H3  1  0.56075004  0.39065716  0.72509751  1  0  0.108036  0.116902  0  1.025007  0
H  H4  1  0.21719408  0.44682367  0.30457677  1  0  0.107142  0.123441  0  1.030985  0
H  H5  1  0.78280226  0.55318016  0.69542249  1  0  0.10714  0.123473  0  1.03085  0
H  H6  1  0.99270567  0.58076834  0.41005007  1  0  0.096161  0.08586  0  1.05282  0
H  H7  1  0.00730293  0.41923177  0.58995271  1  0  0.096195  0.085858  0  1.052926  0
H  H8  1  0.68477852  0.50315381  0.53672870  1  0  0.121998  0.094474  0  1.00845  0
H  H9  1  0.31521962  0.49684323  0.46327253  1  0  0.121996  0.094465  0  1.008423  0
H  H10  1  0.30869088  0.82797910  0.68258018  1  0  0.116072  0.150481  0  1.024137  0
H  H11  1  0.69131289  0.17201554  0.31742262  1  0  0.116084  0.15051  0  1.024144  0
H  H12  1  0.01859080  0.26336034  0.47127435  1  0  0.098961  0.113567  0  1.025282  0
H  H13  1  0.98141367  0.73663881  0.52872617  1  0  0.098965  0.113624  0  1.02525  0
H  H14  1  0.19345169  0.14864123  0.34875475  1  0  0.108644  0.113285  0  1.001473  0
H  H15  1  0.80653688  0.85135387  0.65124402  1  0  0.108662  0.113267  0  1.001449  0
H  H16  1  0.24293967  0.98594593  0.76404722  1  0  0.107942  0.081712  0  0.982362  0
H  H17  1  0.75705586  0.01405343  0.23595299  1  0  0.107942  0.08171  0  0.98238  0
H  H18  1  0.02199377  0.93951322  0.74964371  1  0  0.104194  0.068444  0  0.995105  0
H  H19  1  0.97801367  0.06048586  0.25035670  1  0  0.104181  0.068393  0  0.995107  0
H  H20  1  0.97131556  0.06783792  0.87305210  1  0  0.090388  0.102459  0  1.064039  0
H  H21  1  0.02868287  0.93216140  0.12694734  1  0  0.090389  0.102452  0  1.06406  0
H  H22  1  0.77734927  0.17350768  0.78044173  1  0  0.091375  0.126064  0  1.04047  0
H  H23  1  0.22264254  0.82649296  0.21955576  1  0  0.091391  0.126051  0  1.040416  0
H  H24  1  0.99279439  0.23037253  0.78869008  1  0  0.089522  0.121981  0  1.042014  0
H  H25  1  0.00720404  0.76962678  0.21130936  1  0  0.089516  0.121963  0  1.042008  0
H  H26  1  0.21315631  0.41774788  0.16435551  1  0  0.31476  0.371587  0  0.938878  0
H  H27  1  0.78684337  0.58224911  0.83564632  1  0  0.314782  0.371638  0  0.938864  0
H  H28  1  0.37763153  0.93292105  0.95054548  1  0  0.285476  0.383118  0  0.959558  0
H  H29  1  0.62236798  0.06707600  0.04945438  1  0  0.285485  0.383147  0  0.959523  0
H  H30  1  0.47846826  0.89010772  0.08895493  1  0  0.28111  0.364984  0  0.98692  0
H  H31  1  0.52153456  0.10989151  0.91104367  1  0  0.281085  0.364974  0  0.986944  0
H  H32  1  0.43820976  0.75814855  0.01022093  1  0  0.290299  0.378852  0  0.960527  0
H  H33  1  0.56179454  0.24185066  0.98977761  1  0  0.290333  0.378923  0  0.960421  0
H  H34  1  0.53101955  0.90740715  0.18548050  1  0  0.28634  0.380302  0  0.963143  0
H  H35  1  0.46896989  0.09259240  0.81451797  1  0  0.286363  0.380342  0  0.963073  0
C  C36  1  0.60940259  0.57599550  0.28234642  1  0  -0.083731  -0.122571  0  3.980207  0
C  C37  1  0.39060264  0.42400813  0.71765248  1  0  -0.083657  -0.122351  0  3.979984  0
C  C38  1  0.73301839  0.50196881  0.22234813  1  0  -0.030484  -0.201963  0  3.928809  0
C  C39  1  0.26698210  0.49803265  0.77765275  1  0  -0.030516  -0.202052  0  3.928687  0
C  C40  1  0.95449711  0.45999129  0.22808005  1  0  0.083373  0.308213  0  4.054962  0
C  C41  1  0.04550369  0.54000341  0.77192286  1  0  0.083396  0.30828  0  4.054888  0
C  C42  1  0.04624669  0.48247121  0.29927892  1  0  -0.106513  -0.212349  0  3.992194  0
C  C43  1  0.95375356  0.51752796  0.70072443  1  0  -0.106514  -0.212368  0  3.992091  0
C  C44  1  0.92051211  0.55573874  0.35856201  1  0  -0.089548  -0.106385  0  4.010151  0
C  C45  1  0.07949258  0.44426033  0.64144115  1  0  -0.089612  -0.106461  0  4.010386  0
C  C46  1  0.70020459  0.60707183  0.34991119  1  0  -0.020987  0.072153  0  4.025251  0
C  C47  1  0.29979881  0.39292959  0.65008891  1  0  -0.021059  0.072028  0  4.025326  0
C  C48  1  0.57441952  0.69341189  0.41110741  1  0  -0.031464  -0.137384  0  4.030024  0
C  C49  1  0.42558006  0.30658751  0.58888800  1  0  -0.031413  -0.137416  0  4.030106  0
C  C50  1  0.59258543  0.62300094  0.50454725  1  0  0.031395  0.066253  0  3.943537  0
C  C51  1  0.40741747  0.37699495  0.49545137  1  0  0.031413  0.066378  0  3.943599  0
C  C52  1  0.37426859  0.84061094  0.54030849  1  0  0.097808  0.259532  0  3.999136  0
C  C53  1  0.62572635  0.15938958  0.45969085  1  0  0.09783  0.259569  0  3.999127  0
C  C54  1  0.28052904  0.90097442  0.61054852  1  0  -0.114203  -0.328741  0  3.95079  0
C  C55  1  0.71946513  0.09902161  0.38945244  1  0  -0.114218  -0.328757  0  3.950841  0
C  C56  1  0.15044644  0.05423747  0.58448667  1  0  0.095402  0.289719  0  4.071702  0
C  C57  1  0.84955453  0.94576288  0.41551376  1  0  0.095384  0.289744  0  4.07175  0
C  C58  1  0.12031604  0.14403675  0.48967277  1  0  -0.105021  -0.211062  0  3.990333  0
C  C59  1  0.87968885  0.85596130  0.51032664  1  0  -0.105037  -0.211148  0  3.990378  0
C  C60  1  0.21616653  0.08082237  0.42201797  1  0  -0.078662  -0.050469  0  3.982269  0
C  C61  1  0.78383244  0.91917581  0.57798167  1  0  -0.078652  -0.050377  0  3.982126  0
C  C62  1  0.34545377  0.92557162  0.44545091  1  0  -0.037451  -0.14765  0  4.0367  0
C  C63  1  0.65454811  0.07442652  0.55454796  1  0  -0.037468  -0.147765  0  4.036707  0
C  C64  1  0.44706576  0.85551937  0.37502769  1  0  0.134964  0.35271  0  4.08938  0
C  C65  1  0.55293369  0.14447769  0.62497151  1  0  0.134971  0.352732  0  4.089527  0
C  C66  1  0.07422426  0.03377675  0.74289614  1  0  -0.067378  0.088094  0  3.848548  0
C  C67  1  0.92576804  0.96622941  0.25710282  1  0  -0.067355  0.088178  0  3.848403  0
C  C68  1  0.94586220  0.13322486  0.79886624  1  0  -0.256538  -0.405054  0  3.960283  0
C  C69  1  0.05412827  0.86677909  0.20113392  1  0  -0.256551  -0.405021  0  3.960186  0
S  S70  1  0.60811658  0.46955617  0.13527382  1  0  0.492699  1.208398  0  6.172928  0
S  S71  1  0.39188224  0.53044871  0.86472577  1  0  0.492773  1.208551  0  6.172883  0
O  O72  1  0.70600520  0.30744617  0.14680717  1  0  -0.416405  -0.630319  0  2.21825  0
O  O73  1  0.29398960  0.69255771  0.85319149  1  0  -0.416417  -0.630381  0  2.218278  0
O  O74  1  0.64951409  0.56641751  0.04559633  1  0  -0.409759  -0.66439  0  2.240636  0
O  O75  1  0.35049438  0.43358596  0.95440576  1  0  -0.409814  -0.664456  0  2.240723  0
O  O76  1  0.38156567  0.51809580  0.15371501  1  0  -0.359198  -0.625912  0  2.231704  0
O  O77  1  0.61843154  0.48191248  0.84628395  1  0  -0.359177  -0.625944  0  2.23169  0
O  O78  1  0.07689024  0.40189536  0.16423445  1  0  -0.410962  -0.513366  0  2.360659  0
O  O79  1  0.92310938  0.59810165  0.83576673  1  0  -0.411001  -0.513455  0  2.360618  0
O  O80  1  0.42853204  0.93099004  0.29029271  1  0  -0.280498  -0.45483  0  2.190326  0
O  O81  1  0.57146846  0.06900145  0.70970561  1  0  -0.280497  -0.4548  0  2.19049  0
O  O82  1  0.49941492  0.68898261  0.56918859  1  0  -0.117817  -0.110702  0  2.691096  0
O  O83  1  0.50058737  0.31101776  0.43080980  1  0  -0.117855  -0.110787  0  2.691172  0
O  O84  1  0.04682457  0.12570174  0.64557763  1  0  -0.173174  -0.199736  0  2.521482  0
O  O85  1  0.95318117  0.87430409  0.35442212  1  0  -0.173191  -0.199818  0  2.521371  0
O  O86  1  0.34193276  0.86198665  0.00664752  1  0  -0.643385  -0.815283  0  2.01116  0
O  O87  1  0.65806977  0.13801031  0.99335287  1  0  -0.643403  -0.815356  0  2.011021  0
O  O88  1  0.57632075  0.91520186  0.12108326  1  0  -0.623344  -0.811812  0  2.029879  0
O  O89  1  0.42367667  0.08479970  0.87891642  1  0  -0.623349  -0.811848  0  2.029852  0
