# generated using pymatgen
data_Mn3H12C14(NO6)2
_symmetry_space_group_name_H-M   'P 1'
_cell_length_a   10.20976309
_cell_length_b   10.20980120
_cell_length_c   11.20875370
_cell_angle_alpha   85.02467848
_cell_angle_beta   85.02477014
_cell_angle_gamma   65.84603821
_symmetry_Int_Tables_number   1
_chemical_formula_structural   Mn3H12C14(NO6)2
_chemical_formula_sum   'Mn6 H24 C28 N4 O24'
_cell_volume   1060.39707119
_cell_formula_units_Z   2
loop_
 _symmetry_equiv_pos_site_id
 _symmetry_equiv_pos_as_xyz
  1  'x, y, z'
loop_
 _atom_site_type_symbol
 _atom_site_label
 _atom_site_symmetry_multiplicity
 _atom_site_fract_x
 _atom_site_fract_y
 _atom_site_fract_z
 _atom_site_occupancy
 _atom_site_pbe_bader_charge
 _atom_site_pbe_bader_spin_density
 _atom_site_pbe_cm5_charge
 _atom_site_pbe_ddec_charge
 _atom_site_pbe_ddec_spin_density
 _atom_site_pbe_ddec_sum_bond_order
 _atom_site_pbe_magmom
Mn  Mn0  1  0.53726246  0.64176548  0.48797447  1  1.529068  4.526514  0.581874  1.050742  4.648592  2.328589  4.459
Mn  Mn1  1  0.35823802  0.46274084  0.01202428  1  1.529097  4.526522  0.581844  1.050728  4.648648  2.328543  4.459
Mn  Mn2  1  0.46273937  0.35823293  0.51202160  1  1.52914  4.526503  0.581869  1.05073  4.648618  2.32856  4.459
Mn  Mn3  1  0.64177135  0.53726532  0.98797237  1  1.529043  4.526535  0.581878  1.050768  4.648557  2.328466  4.459
Mn  Mn4  1  0.63205300  0.36793758  0.75000395  1  1.523723  4.567157  0.580847  1.057766  4.682692  2.297138  4.499
Mn  Mn5  1  0.36794129  0.63205995  0.24999903  1  1.523548  4.567192  0.580855  1.057817  4.682682  2.297087  4.499
H  H6  1  0.62939888  0.27051252  0.97783682  1  0.615585  0.008618  0.306082  0.38176  0.005633  0.920869  0.007
H  H7  1  0.62745882  0.90191259  0.50677971  1  0.178963  0.000533  0.13708  0.132477  -8.8e-05  1.017031  0.0
H  H8  1  0.93055049  0.51187441  0.63342888  1  0.180047  0.0005  0.13337  0.124092  -0.000124  0.992181  0.0
H  H9  1  0.99253604  0.63017284  0.79755104  1  0.124201  0.000796  0.114571  0.124  -0.000127  1.013265  0.0
H  H10  1  0.86140301  0.89925048  0.81153416  1  0.130068  0.000975  0.114138  0.122935  0.000338  0.983008  0.0
H  H11  1  0.20053223  0.55907541  0.67560589  1  0.065708  0.006769  0.108944  0.007377  0.003682  1.013025  0.002
H  H12  1  0.72948659  0.37060514  0.52217389  1  0.615594  0.008618  0.306025  0.381675  0.005634  0.92096  0.007
H  H13  1  0.09808880  0.37254199  0.99321714  1  0.178956  0.000534  0.137041  0.132428  -8.8e-05  1.017188  0.0
H  H14  1  0.48812671  0.06944860  0.86657231  1  0.180118  0.0005  0.13336  0.124099  -0.000124  0.992191  0.0
H  H15  1  0.36982704  0.00746265  0.70245022  1  0.124231  0.000796  0.114557  0.123971  -0.000126  1.013259  0.0
H  H16  1  0.10074790  0.13859958  0.68846568  1  0.130226  0.000974  0.114141  0.12295  0.000338  0.98301  0.0
H  H17  1  0.44092440  0.79946142  0.82439247  1  0.065744  0.00677  0.108956  0.007428  0.003682  1.012925  0.002
H  H18  1  0.37060725  0.72948709  0.02217041  1  0.615193  0.008621  0.306007  0.381661  0.005634  0.920954  0.007
H  H19  1  0.37254300  0.09808975  0.49321694  1  0.178938  0.000534  0.137053  0.132429  -8.8e-05  1.01721  0.0
H  H20  1  0.06944811  0.48812531  0.36656824  1  0.180149  0.0005  0.133341  0.124054  -0.000124  0.99216  0.0
H  H21  1  0.00745933  0.36982525  0.20244824  1  0.124181  0.000796  0.114581  0.124034  -0.000126  1.013219  0.0
H  H22  1  0.13859558  0.10074727  0.18846758  1  0.130046  0.000975  0.114139  0.122915  0.000338  0.98303  0.0
H  H23  1  0.79946314  0.44092267  0.32439517  1  0.065711  0.00677  0.10893  0.007385  0.003683  1.012956  0.002
H  H24  1  0.27051093  0.62939305  0.47783324  1  0.615186  0.008621  0.306069  0.381739  0.005633  0.920902  0.007
H  H25  1  0.90191089  0.62746614  0.00677922  1  0.17896  0.000534  0.137062  0.132446  -8.7e-05  1.017164  0.0
H  H26  1  0.51187296  0.93055068  0.13343190  1  0.180133  0.0005  0.133343  0.124062  -0.000124  0.992136  0.0
H  H27  1  0.63017370  0.99253522  0.29755490  1  0.124383  0.000796  0.114582  0.124017  -0.000126  1.013224  0.0
H  H28  1  0.89925284  0.86139927  0.31153669  1  0.13021  0.000974  0.114148  0.122933  0.000338  0.982991  0.0
H  H29  1  0.55907527  0.20053590  0.17560386  1  0.065693  0.00677  0.108941  0.007393  0.003682  1.012975  0.002
C  C30  1  0.65382373  0.08126498  0.66311673  1  1.577465  0.019736  0.223457  0.585138  0.018524  4.20926  0.017
C  C31  1  0.73612679  0.92069082  0.66026080  1  -0.011685  -0.002146  -0.009486  -0.053573  -0.003976  3.993709  -0.004
C  C32  1  0.70764942  0.84922989  0.57267012  1  0.371379  0.029986  0.046046  -0.062062  0.023577  3.812525  0.018
C  C33  1  0.88099234  0.62663340  0.64601973  1  0.330745  0.032096  0.045216  -0.030222  0.025055  3.820027  0.019
C  C34  1  0.91159339  0.69442367  0.73472814  1  -0.06547  -0.005246  -0.075412  -0.098399  -0.006381  4.007262  -0.006
C  C35  1  0.83939485  0.84283085  0.74302262  1  0.082255  0.04212  -0.071404  -0.073954  0.032967  3.935257  0.025
C  C36  1  0.28445606  0.51232842  0.74219376  1  1.566591  0.022527  0.164337  0.503537  0.02087  4.201246  0.019
C  C37  1  0.91873299  0.34618501  0.83688497  1  1.577506  0.019734  0.223431  0.58501  0.018522  4.209207  0.017
C  C38  1  0.07930928  0.26387958  0.83973758  1  -0.01175  -0.002145  -0.009438  -0.053405  -0.003975  3.993616  -0.004
C  C39  1  0.15077135  0.29235403  0.92732844  1  0.371564  0.02998  0.046058  -0.062114  0.023573  3.812809  0.018
C  C40  1  0.37336607  0.11900884  0.85398217  1  0.330659  0.03209  0.04521  -0.030298  0.02505  3.820144  0.019
C  C41  1  0.30557670  0.08840749  0.76527368  1  -0.065425  -0.005246  -0.075383  -0.098311  -0.006381  4.007314  -0.006
C  C42  1  0.15716810  0.16060778  0.75697719  1  0.082082  0.042117  -0.071426  -0.074052  0.032964  3.935354  0.025
C  C43  1  0.48767415  0.71553490  0.75780560  1  1.566663  0.022531  0.164327  0.503509  0.020875  4.200991  0.019
C  C44  1  0.34617702  0.91873485  0.33688199  1  1.577435  0.019738  0.223461  0.585176  0.018525  4.209174  0.017
C  C45  1  0.26387181  0.07930694  0.33973915  1  -0.011691  -0.002146  -0.009493  -0.053569  -0.003976  3.993802  -0.004
C  C46  1  0.29235240  0.15076852  0.42732774  1  0.371471  0.029988  0.046087  -0.062014  0.023579  3.812765  0.018
C  C47  1  0.11900518  0.37336480  0.35397848  1  0.330991  0.032099  0.045265  -0.030182  0.025057  3.820123  0.019
C  C48  1  0.08840305  0.30557496  0.26527102  1  -0.065509  -0.005246  -0.075435  -0.098455  -0.006381  4.007327  -0.006
C  C49  1  0.16060482  0.15716844  0.25697622  1  0.082231  0.042123  -0.071402  -0.073917  0.032968  3.935249  0.025
C  C50  1  0.71553931  0.48767262  0.25780618  1  1.566611  0.022528  0.164388  0.503576  0.020871  4.201183  0.019
C  C51  1  0.08126669  0.65382017  0.16311699  1  1.57743  0.019735  0.223487  0.585185  0.018523  4.209193  0.017
C  C52  1  0.92069255  0.73612669  0.16026233  1  -0.011614  -0.002145  -0.009486  -0.053586  -0.003975  3.993787  -0.004
C  C53  1  0.84923049  0.70765224  0.07266969  1  0.371433  0.029985  0.046067  -0.062027  0.023577  3.812674  0.018
C  C54  1  0.62663576  0.88099252  0.14601991  1  0.330691  0.032091  0.045237  -0.030259  0.025051  3.820109  0.019
C  C55  1  0.69442405  0.91159234  0.23473039  1  -0.065654  -0.005245  -0.07542  -0.098406  -0.00638  4.007239  -0.006
C  C56  1  0.84283157  0.83939150  0.24302612  1  0.082006  0.042117  -0.071406  -0.073919  0.032963  3.93516  0.025
C  C57  1  0.51232659  0.28446001  0.24219083  1  1.566928  0.022526  0.16431  0.503487  0.020873  4.201111  0.019
N  N58  1  0.77950771  0.70437028  0.56637880  1  -0.653231  0.015286  -0.110352  0.328773  0.010277  3.957106  0.01
N  N59  1  0.29563016  0.22049380  0.93362016  1  -0.653283  0.015283  -0.110336  0.328866  0.010274  3.957144  0.01
N  N60  1  0.22049304  0.29562955  0.43361813  1  -0.653483  0.015287  -0.110358  0.328744  0.010278  3.956997  0.01
N  N61  1  0.70436952  0.77951138  0.06637912  1  -0.65322  0.015285  -0.110322  0.328839  0.010276  3.956994  0.01
O  O62  1  0.74951689  0.63811302  0.48326729  1  -0.663199  0.038201  -0.238764  -0.509442  0.02513  2.08625  0.007
O  O63  1  0.55964147  0.14050643  0.58616661  1  -1.190768  0.059779  -0.302492  -0.563185  0.042726  2.345375  0.027
O  O64  1  0.68510957  0.14297934  0.74321121  1  -1.194398  0.065734  -0.30818  -0.565273  0.045871  2.292877  0.029
O  O65  1  0.24950707  0.55090044  0.84818012  1  -1.199508  0.067043  -0.306228  -0.518017  0.046491  2.34535  0.028
O  O66  1  0.58211343  0.36794240  0.94316263  1  -1.315553  0.186245  -0.552677  -0.884893  0.145261  2.181892  0.089
O  O67  1  0.40679411  0.42323431  0.70329703  1  -1.220135  0.10035  -0.290524  -0.530705  0.074344  2.480243  0.046
O  O68  1  0.36188658  0.25048394  0.01673125  1  -0.66317  0.038194  -0.23877  -0.509449  0.02513  2.086205  0.007
O  O69  1  0.85949326  0.44036527  0.91383497  1  -1.190875  0.059776  -0.302463  -0.563153  0.042729  2.345372  0.027
O  O70  1  0.85701641  0.31489346  0.75679465  1  -1.194594  0.065776  -0.308199  -0.565233  0.045868  2.29282  0.029
O  O71  1  0.44910140  0.75048615  0.65181817  1  -1.199469  0.067049  -0.306241  -0.518026  0.046496  2.345256  0.028
O  O72  1  0.63205375  0.41789202  0.55684183  1  -1.31554  0.186229  -0.552636  -0.884815  0.145256  2.181907  0.089
O  O73  1  0.57676806  0.59319626  0.79670258  1  -1.2203  0.100356  -0.290526  -0.530716  0.074344  2.480207  0.046
O  O74  1  0.25048709  0.36188943  0.51672829  1  -0.66314  0.038199  -0.238782  -0.509411  0.025131  2.086143  0.007
O  O75  1  0.44036358  0.85949165  0.41382923  1  -1.190786  0.059773  -0.302479  -0.563187  0.042726  2.34529  0.027
O  O76  1  0.31489333  0.85702060  0.25678555  1  -1.194417  0.06573  -0.3082  -0.565328  0.045871  2.292863  0.029
O  O77  1  0.75049153  0.44910223  0.15181944  1  -1.199479  0.06705  -0.306223  -0.518017  0.046494  2.345259  0.028
O  O78  1  0.41789485  0.63205536  0.05684012  1  -1.315087  0.186224  -0.552587  -0.884773  0.145254  2.181867  0.089
O  O79  1  0.59320126  0.57676378  0.29670226  1  -1.220171  0.100347  -0.290582  -0.530738  0.074344  2.480346  0.046
O  O80  1  0.63810987  0.74952255  0.98326728  1  -0.66312  0.038184  -0.238792  -0.509466  0.025133  2.086119  0.007
O  O81  1  0.14050964  0.55963958  0.08616675  1  -1.190807  0.059785  -0.302498  -0.563195  0.042724  2.345363  0.027
O  O82  1  0.14298111  0.68510669  0.24321143  1  -1.194464  0.06575  -0.308194  -0.565332  0.045871  2.292888  0.029
O  O83  1  0.55090041  0.24950735  0.34817829  1  -1.199764  0.067052  -0.30618  -0.517979  0.046493  2.345301  0.028
O  O84  1  0.36794162  0.58211196  0.44315877  1  -1.315041  0.186217  -0.552696  -0.884889  0.145261  2.181928  0.089
O  O85  1  0.42323484  0.40679975  0.20329627  1  -1.220185  0.100346  -0.290542  -0.530703  0.074346  2.480217  0.046
