# generated using pymatgen
data_Cu3H23C32N5O8
_symmetry_space_group_name_H-M   'P 1'
_cell_length_a   7.70389452
_cell_length_b   12.91004444
_cell_length_c   16.06769675
_cell_angle_alpha   81.35700121
_cell_angle_beta   83.92522812
_cell_angle_gamma   91.83652671
_symmetry_Int_Tables_number   1
_chemical_formula_structural   Cu3H23C32N5O8
_chemical_formula_sum   'Cu6 H46 C64 N10 O16'
_cell_volume   1569.16550330
_cell_formula_units_Z   2
loop_
 _symmetry_equiv_pos_site_id
 _symmetry_equiv_pos_as_xyz
  1  'x, y, z'
loop_
 _atom_site_type_symbol
 _atom_site_label
 _atom_site_symmetry_multiplicity
 _atom_site_fract_x
 _atom_site_fract_y
 _atom_site_fract_z
 _atom_site_occupancy
 _atom_site_pbe_bader_charge
 _atom_site_pbe_bader_spin_density
 _atom_site_pbe_cm5_charge
 _atom_site_pbe_ddec_charge
 _atom_site_pbe_ddec_spin_density
 _atom_site_pbe_ddec_sum_bond_order
 _atom_site_pbe_magmom
Cu  Cu0  1  0.10928678  0.23532126  0.22863182  1  1.083337  0.559906  0.714888  0.831673  0.716578  2.203971  0.56
Cu  Cu1  1  0.89072499  0.76466827  0.77137025  1  1.083299  0.559912  0.714898  0.831623  0.716582  2.204101  0.56
Cu  Cu2  1  0.85349909  0.38783167  0.46645446  1  0.698009  0.004871  0.551594  0.38898  0.005982  2.131406  0.005
Cu  Cu3  1  0.14650412  0.61217415  0.53354167  1  0.697741  0.004867  0.551575  0.389  0.005978  2.131362  0.005
Cu  Cu4  1  0.30100849  0.99898574  0.04593082  1  0.683777  0.007882  0.533653  0.364626  0.009884  2.147236  0.008
Cu  Cu5  1  0.69897220  0.00100864  0.95406881  1  0.683882  0.007883  0.533683  0.364705  0.009885  2.147117  0.008
H  H6  1  0.65947574  0.22793418  0.21364642  1  0.106792  6.4e-05  0.1108  0.12669  -2.3e-05  1.022493  0.0
H  H7  1  0.34053845  0.77206163  0.78636228  1  0.106761  6.4e-05  0.110773  0.126676  -2.3e-05  1.022519  0.0
H  H8  1  0.34118281  0.25556669  0.49341153  1  0.044534  0.000183  0.103381  0.104662  4.6e-05  1.015524  0.0
H  H9  1  0.65882693  0.74445334  0.50659011  1  0.044642  0.000183  0.103383  0.10468  4.6e-05  1.015505  0.0
H  H10  1  0.62238639  0.16025517  0.48333849  1  0.095039  7.5e-05  0.103716  0.105391  -6.2e-05  1.019443  0.0
H  H11  1  0.37761510  0.83976075  0.51667082  1  0.095551  7.5e-05  0.1037  0.105446  -6.2e-05  1.019231  0.0
H  H12  1  0.56809394  0.31280955  0.11253239  1  0.099037  0.003575  0.119482  0.129865  0.00188  0.956756  0.002
H  H13  1  0.43192026  0.68717845  0.88747288  1  0.09913  0.003573  0.119505  0.129874  0.001879  0.956776  0.002
H  H14  1  0.36424067  0.33980396  0.07300040  1  0.073304  0.00017  0.128105  0.138529  -7.2e-05  0.949958  0.0
H  H15  1  0.63577908  0.66019043  0.92700014  1  0.073119  0.00017  0.128044  0.138488  -7.2e-05  0.949952  0.0
H  H16  1  0.40961687  0.48037993  0.14838939  1  0.041342  0.005018  0.104788  0.099925  0.002496  1.006142  0.003
H  H17  1  0.59037178  0.51960680  0.85160398  1  0.041285  0.005023  0.104706  0.099848  0.002499  1.005949  0.003
H  H18  1  0.29657098  0.46598756  0.25113228  1  0.07744  0.000269  0.112408  0.118415  5.8e-05  0.9972  0.0
H  H19  1  0.70343100  0.53400808  0.74885825  1  0.077266  0.000269  0.11251  0.118529  5.8e-05  0.997066  0.0
H  H20  1  0.83444329  0.43348301  0.63094212  1  0.139257  2.1e-05  0.108578  0.083175  -7e-06  1.041761  0.0
H  H21  1  0.16553511  0.56651526  0.36905217  1  0.139582  2.1e-05  0.108576  0.083126  -7e-06  1.041731  0.0
H  H22  1  0.93067513  0.16293168  0.52499552  1  0.162275  5.9e-05  0.121592  0.111152  6.5e-05  1.004746  0.0
H  H23  1  0.06933740  0.83707200  0.47499550  1  0.162331  5.9e-05  0.121647  0.111306  6.5e-05  1.004584  0.0
H  H24  1  0.92418953  0.35517265  0.76798714  1  0.171418  2.8e-05  0.104763  0.123664  7e-06  1.068014  0.0
H  H25  1  0.07579540  0.64482575  0.23200686  1  0.171294  2.8e-05  0.104791  0.123694  7e-06  1.067893  0.0
H  H26  1  0.02703822  0.07255335  0.65599837  1  0.125828  9.3e-05  0.11176  0.131004  9.3e-05  1.020969  0.0
H  H27  1  0.97298494  0.92745448  0.34398986  1  0.125762  9.3e-05  0.111741  0.131056  9.3e-05  1.020878  0.0
H  H28  1  0.03601721  0.29495335  0.87081014  1  0.154453  2.4e-05  0.111839  0.136403  2e-05  1.031128  0.0
H  H29  1  0.96398058  0.70504765  0.12918864  1  0.154506  2.4e-05  0.111848  0.136422  2e-05  1.03096  0.0
H  H30  1  0.06984927  0.99859295  0.77274319  1  0.150937  6.3e-05  0.110896  0.137203  2.7e-05  1.053413  0.0
H  H31  1  0.93015283  0.00141129  0.22724819  1  0.151631  6.3e-05  0.110896  0.137185  2.7e-05  1.053504  0.0
H  H32  1  0.15490400  0.20705788  0.99735889  1  0.075097  -4.2e-05  0.11829  0.095939  -7e-05  0.989138  0.0
H  H33  1  0.84507926  0.79294124  0.00264319  1  0.074905  -4.2e-05  0.118334  0.096004  -7e-05  0.989132  0.0
H  H34  1  0.19460357  0.92674303  0.90035376  1  0.103852  5.4e-05  0.119953  0.099258  4.1e-05  0.98706  0.0
H  H35  1  0.80538668  0.07326174  0.09964052  1  0.103824  5.4e-05  0.119951  0.099315  4.1e-05  0.987007  0.0
H  H36  1  0.64714732  0.55852646  0.49076569  1  0.140008  0.000125  0.112012  0.084653  0.000116  1.049712  0.0
H  H37  1  0.35287542  0.44148523  0.50923330  1  0.140129  0.000125  0.112072  0.084712  0.000116  1.049676  0.0
H  H38  1  0.82930515  0.42311968  0.28150861  1  0.157448  4.4e-05  0.121091  0.107678  1.9e-05  1.016484  0.0
H  H39  1  0.17069650  0.57688608  0.71849318  1  0.157427  4.4e-05  0.121095  0.107713  1.9e-05  1.016366  0.0
H  H40  1  0.50162217  0.69563730  0.40270240  1  0.071048  1.9e-05  0.106158  0.106075  5e-06  1.042003  0.0
H  H41  1  0.49837673  0.30436526  0.59730113  1  0.071144  1.9e-05  0.106126  0.106087  5e-06  1.042016  0.0
H  H42  1  0.70551948  0.55988568  0.18364631  1  0.111216  6.2e-05  0.114445  0.123832  4.3e-05  0.993299  0.0
H  H43  1  0.29446646  0.44011584  0.81635538  1  0.111136  6.2e-05  0.114432  0.123742  4.3e-05  0.993422  0.0
H  H44  1  0.54242119  0.84508882  0.31047042  1  0.075276  9e-06  0.11403  0.125721  4e-06  0.978361  0.0
H  H45  1  0.45755935  0.15490789  0.68953330  1  0.075198  9e-06  0.114061  0.125705  4e-06  0.97833  0.0
H  H46  1  0.45277760  0.63234284  0.13370741  1  0.080538  0.000347  0.10707  0.110581  0.000257  1.035779  0.0
H  H47  1  0.54720405  0.36765310  0.86630009  1  0.080612  0.000347  0.107022  0.110568  0.000257  1.035749  0.0
H  H48  1  0.41225956  0.98285950  0.21456038  1  0.116829  1.7e-05  0.121638  0.101822  1.6e-05  0.987245  0.0
H  H49  1  0.58771825  0.01713714  0.78544594  1  0.117038  1.7e-05  0.12164  0.101848  1.6e-05  0.987233  0.0
H  H50  1  0.32685955  0.77763822  0.04612840  1  0.109664  0.0003  0.120967  0.097848  0.000251  0.993648  0.0
H  H51  1  0.67312874  0.22235864  0.95387686  1  0.10967  0.0003  0.120988  0.097853  0.000251  0.993646  0.0
C  C52  1  0.65410471  0.18956899  0.34731853  1  0.036262  0.000837  -0.012062  -0.000973  -0.000195  3.959013  0.0
C  C53  1  0.34590839  0.81043464  0.65268866  1  0.035835  0.000837  -0.012143  -0.001144  -0.000194  3.959436  0.0
C  C54  1  0.58445476  0.23413707  0.27380662  1  -0.027957  0.013987  -0.090679  -0.175415  0.00924  3.928613  0.009
C  C55  1  0.41555828  0.76586187  0.72619988  1  -0.028425  0.013984  -0.090606  -0.175202  0.009237  3.928766  0.009
C  C56  1  0.42741750  0.28486691  0.27883144  1  0.196511  -0.004247  0.07671  0.124868  -0.005121  3.99926  -0.005
C  C57  1  0.57258917  0.71513191  0.72117159  1  0.196886  -0.004245  0.076651  0.124721  -0.00512  3.999402  -0.005
C  C58  1  0.34088041  0.29325223  0.35946196  1  -0.005153  0.012625  -0.023716  -0.124976  0.007562  3.989781  0.008
C  C59  1  0.65912511  0.70675048  0.64053942  1  -0.004805  0.012619  -0.023703  -0.125042  0.007558  3.989847  0.008
C  C60  1  0.41345784  0.25009411  0.43230819  1  -0.003645  -0.001591  -0.082469  -0.074681  -0.002129  3.98124  -0.002
C  C61  1  0.58655164  0.74991416  0.56769424  1  -0.003644  -0.001591  -0.082415  -0.074564  -0.002129  3.98113  -0.002
C  C62  1  0.56769466  0.19705058  0.42698096  1  -0.041738  0.014932  -0.08892  -0.119071  0.00976  4.010257  0.009
C  C63  1  0.43231186  0.80295839  0.57302960  1  -0.042183  0.014928  -0.088793  -0.119049  0.009757  4.010217  0.009
C  C64  1  0.82545226  0.13667508  0.33950561  1  1.574508  0.003832  0.197745  0.563387  0.003505  4.233247  0.002
C  C65  1  0.17456466  0.86332941  0.66050381  1  1.57447  0.003839  0.19754  0.563119  0.003507  4.233117  0.002
C  C66  1  0.16499931  0.33779644  0.37129084  1  1.544435  -0.000658  0.201454  0.56758  -0.000637  4.202286  -0.002
C  C67  1  0.83500247  0.66220777  0.62870740  1  1.544568  -0.000659  0.201521  0.567775  -0.000637  4.20197  -0.002
C  C68  1  0.42654172  0.29396533  0.12416482  1  0.239905  0.000233  -0.067111  -0.232338  2.5e-05  3.900527  -0.002
C  C69  1  0.57346997  0.70602418  0.87583912  1  0.239521  0.000231  -0.06713  -0.232336  2.4e-05  3.90059  -0.002
C  C70  1  0.38159066  0.17953573  0.11938679  1  1.567208  -0.000675  0.197819  0.587328  -0.000572  4.194408  -0.001
C  C71  1  0.61840825  0.82045980  0.88061384  1  1.5679  -0.000675  0.197795  0.587264  -0.000572  4.194493  -0.001
C  C72  1  0.30310156  0.43546896  0.19095578  1  0.227633  0.001018  -0.079424  -0.235828  0.000506  3.881476  -0.001
C  C73  1  0.69690814  0.56452917  0.80903788  1  0.228006  0.001016  -0.079401  -0.23591  0.000505  3.881462  -0.001
C  C74  1  0.12762519  0.45524451  0.15204375  1  1.64111  0.003603  0.179378  0.596597  0.002293  4.263302  0.003
C  C75  1  0.87236594  0.54474148  0.84795210  1  1.64053  0.003603  0.179412  0.596662  0.002293  4.263562  0.003
C  C76  1  0.87708027  0.35325470  0.64002085  1  0.43232  -2.5e-05  0.026103  0.07011  -2.5e-05  3.946748  0.0
C  C77  1  0.12290619  0.64674844  0.35997004  1  0.432201  -2.5e-05  0.026144  0.070327  -2.5e-05  3.94672  0.0
C  C78  1  0.93133032  0.20283102  0.58040260  1  0.483515  6.1e-05  0.038776  0.079524  4e-06  3.907571  0.0
C  C79  1  0.06867566  0.79717174  0.41958879  1  0.482721  6e-05  0.038703  0.079388  4e-06  3.907403  0.0
C  C80  1  0.93020294  0.30858585  0.71641803  1  -0.090185  8e-05  -0.086777  -0.168235  3.8e-05  3.930711  0.0
C  C81  1  0.06978713  0.69141421  0.28357806  1  -0.090384  7.9e-05  -0.086836  -0.168374  3.8e-05  3.930921  0.0
C  C82  1  0.98579564  0.15275717  0.65525862  1  -0.12464  0.000159  -0.078667  -0.160297  9.6e-05  3.894201  0.0
C  C83  1  0.01421818  0.84724575  0.34473244  1  -0.123067  0.000159  -0.078607  -0.160245  9.6e-05  3.894232  0.0
C  C84  1  0.98734166  0.20555211  0.72596241  1  -0.017761  -7.5e-05  0.007593  0.097357  -9.5e-05  3.957983  0.0
C  C85  1  0.01266026  0.79445211  0.27403271  1  -0.018308  -7.5e-05  0.007636  0.097333  -9.5e-05  3.958241  0.0
C  C86  1  0.04841985  0.15674950  0.80602381  1  -0.009102  5.9e-05  0.006207  0.092664  2e-05  3.981994  0.0
C  C87  1  0.95157681  0.84325539  0.19397269  1  -0.009337  5.8e-05  0.006263  0.092773  1.9e-05  3.982107  0.0
C  C88  1  0.07009167  0.21321282  0.87312409  1  -0.022745  2.1e-05  -0.081915  -0.175485  5e-06  3.923931  0.0
C  C89  1  0.92990757  0.78679291  0.12687345  1  -0.022976  2.1e-05  -0.082013  -0.175598  5e-06  3.923838  0.0
C  C90  1  0.08956867  0.05093882  0.81846891  1  0.01597  -0.000116  -0.084647  -0.172478  -0.000108  3.933042  0.0
C  C91  1  0.91043580  0.94906624  0.18152788  1  0.01569  -0.000116  -0.084677  -0.172476  -0.000108  3.93294  0.0
C  C92  1  0.13770037  0.16453909  0.94490121  1  0.429987  3.5e-05  0.03825  0.083828  -2e-06  3.927446  0.0
C  C93  1  0.86229484  0.83545951  0.05509609  1  0.429989  3.5e-05  0.038299  0.083862  -1e-06  3.927295  0.0
C  C94  1  0.15818053  0.00812287  0.89149066  1  0.430065  4.7e-05  0.038976  0.084429  2.8e-05  3.938492  0.0
C  C95  1  0.84181614  0.99187968  0.10850487  1  0.429909  4.7e-05  0.038942  0.084327  2.8e-05  3.938333  0.0
C  C96  1  0.65184072  0.55991762  0.42270307  1  0.429004  0.000198  0.035039  0.078023  0.000143  3.947692  0.0
C  C97  1  0.34816750  0.44008985  0.57729825  1  0.428997  0.000198  0.035016  0.078047  0.000143  3.947421  0.0
C  C98  1  0.75392849  0.48434965  0.30566182  1  0.425127  -0.0001  0.046894  0.099653  -0.000107  3.882716  0.0
C  C99  1  0.24607315  0.51565455  0.69433954  1  0.424999  -0.0001  0.046863  0.099609  -0.000107  3.88262  0.0
C  C100  1  0.57564053  0.63830552  0.37246822  1  -0.048303  8.4e-05  -0.085211  -0.174698  4.4e-05  3.962036  0.0
C  C101  1  0.42436492  0.36169640  0.62753450  1  -0.048209  8.4e-05  -0.085192  -0.174794  4.4e-05  3.961975  0.0
C  C102  1  0.68164071  0.56122438  0.25153965  1  -0.010847  0.00014  -0.075421  -0.158378  9.8e-05  3.920305  0.0
C  C103  1  0.31834781  0.43877876  0.74846299  1  -0.010817  0.00014  -0.075327  -0.158228  9.8e-05  3.920079  0.0
C  C104  1  0.58980481  0.64115180  0.28429500  1  0.015654  5.4e-05  0.00722  0.09227  2.9e-05  3.9846  0.0
C  C105  1  0.41018760  0.35884750  0.71570669  1  0.016148  5.4e-05  0.007231  0.092395  2.9e-05  3.984455  0.0
C  C106  1  0.51281577  0.72543019  0.23005007  1  -0.052678  -9.3e-05  0.010079  0.098557  -0.000115  3.988922  0.0
C  C107  1  0.48716742  0.27457049  0.76995432  1  -0.053184  -9.3e-05  0.010022  0.098322  -0.000115  3.989112  0.0
C  C108  1  0.49564363  0.82589130  0.25270020  1  0.04582  6.6e-05  -0.078646  -0.164086  3.9e-05  3.934202  0.0
C  C109  1  0.50434069  0.17410548  0.74730648  1  0.045825  6.6e-05  -0.07866  -0.163965  3.9e-05  3.934171  0.0
C  C110  1  0.45069725  0.70887504  0.15396999  1  0.015018  0.000463  -0.079983  -0.162507  0.000299  3.942461  0.0
C  C111  1  0.54929374  0.29112423  0.84603425  1  0.014748  0.000464  -0.079892  -0.162377  0.0003  3.942305  0.0
C  C112  1  0.42431777  0.90378503  0.19943620  1  0.446625  -7.3e-05  0.046605  0.098828  -8.9e-05  3.909954  0.0
C  C113  1  0.57566944  0.09621418  0.80056508  1  0.446415  -7.3e-05  0.046589  0.098792  -8.9e-05  3.909881  0.0
C  C114  1  0.37764022  0.78959367  0.10470023  1  0.463841  0.000251  0.046327  0.100569  0.000169  3.926233  0.0
C  C115  1  0.62235215  0.21040407  0.89530164  1  0.464045  0.000251  0.046287  0.100496  0.00017  3.92618  0.0
N  N116  1  0.34651011  0.32378663  0.20387756  1  -1.028795  0.102882  -0.328916  -0.086057  0.067734  3.636297  0.089
N  N117  1  0.65350040  0.67620131  0.79612287  1  -1.028708  0.102868  -0.328801  -0.08586  0.067724  3.636278  0.088
N  N118  1  0.87744127  0.30256139  0.57190929  1  -1.234817  0.000233  -0.382571  -0.225554  0.00014  3.726553  0.0
N  N119  1  0.12255540  0.69743881  0.42808527  1  -1.234598  0.000233  -0.382593  -0.225747  0.00014  3.72649  0.0
N  N120  1  0.18641913  0.06374783  0.95433159  1  -1.213449  4.6e-05  -0.380757  -0.220344  1e-06  3.737557  0.0
N  N121  1  0.81356942  0.93624905  0.04566805  1  -1.213376  4.6e-05  -0.380759  -0.220412  1e-06  3.737409  0.0
N  N122  1  0.74034804  0.48297921  0.39057993  1  -1.223478  0.000255  -0.37732  -0.213141  0.000162  3.707245  0.0
N  N123  1  0.25965764  0.51702900  0.60942017  1  -1.22349  0.000255  -0.377391  -0.213215  0.000162  3.707268  0.0
N  N124  1  0.36747826  0.88715570  0.12548628  1  -1.209283  9e-06  -0.376047  -0.211121  -2.1e-05  3.716615  0.0
N  N125  1  0.63250890  0.11284115  0.87451529  1  -1.209246  9e-06  -0.376043  -0.211114  -2.1e-05  3.716556  0.0
O  O126  1  0.88232274  0.08923264  0.40347434  1  -1.154404  0.024482  -0.320231  -0.528381  0.015092  2.082925  0.02
O  O127  1  0.11769430  0.91078203  0.59653636  1  -1.154492  0.024486  -0.320126  -0.528245  0.015095  2.082666  0.02
O  O128  1  0.90114114  0.14545119  0.26172624  1  -1.143162  0.0644  -0.362557  -0.590479  0.040254  2.393238  0.054
O  O129  1  0.09886114  0.85454437  0.73828608  1  -1.142918  0.064407  -0.362538  -0.590369  0.040262  2.393197  0.054
O  O130  1  0.48129097  0.13086250  0.07367479  1  -1.167162  0.014289  -0.313587  -0.532488  0.008993  2.296892  0.012
O  O131  1  0.51871351  0.86913083  0.92631716  1  -1.167642  0.014282  -0.313522  -0.53244  0.008989  2.297167  0.012
O  O132  1  0.23448348  0.14038168  0.15920200  1  -1.122915  0.074171  -0.326276  -0.556086  0.047308  2.352  0.068
O  O133  1  0.76552962  0.85960866  0.84079992  1  -1.122951  0.07418  -0.32634  -0.556131  0.047315  2.351847  0.068
O  O134  1  0.03804832  0.37531677  0.14050870  1  -1.178669  0.001759  -0.364398  -0.605131  0.000985  2.177821  0.002
O  O135  1  0.96196516  0.62465719  0.85947834  1  -1.178174  0.001758  -0.364378  -0.605135  0.000984  2.178469  0.002
O  O136  1  0.09347472  0.55031456  0.13688496  1  -1.193949  0.006515  -0.35156  -0.575191  0.003968  2.119932  0.005
O  O137  1  0.90651333  0.44965881  0.86311625  1  -1.193824  0.006512  -0.351686  -0.575312  0.003966  2.11938  0.005
O  O138  1  0.04851270  0.31581480  0.32434568  1  -1.130886  0.071221  -0.311653  -0.536481  0.045911  2.401364  0.065
O  O139  1  0.95150086  0.68419045  0.67565196  1  -1.131144  0.071229  -0.31172  -0.536625  0.045916  2.401165  0.065
O  O140  1  0.13481781  0.39315656  0.42953907  1  -1.15249  0.011371  -0.317583  -0.52045  0.00711  2.317597  0.01
O  O141  1  0.86518394  0.60684765  0.57045979  1  -1.152429  0.011369  -0.317591  -0.520494  0.007109  2.317505  0.01
