# generated using pymatgen
data_CoH25C26N5O8
_symmetry_space_group_name_H-M   'P 1'
_cell_length_a   9.27786295
_cell_length_b   10.20313538
_cell_length_c   14.33583879
_cell_angle_alpha   86.20389485
_cell_angle_beta   90.16722189
_cell_angle_gamma   74.42445568
_symmetry_Int_Tables_number   1
_chemical_formula_structural   CoH25C26N5O8
_chemical_formula_sum   'Co2 H50 C52 N10 O16'
_cell_volume   1304.07155657
_cell_formula_units_Z   2
loop_
 _symmetry_equiv_pos_site_id
 _symmetry_equiv_pos_as_xyz
  1  'x, y, z'
loop_
 _atom_site_type_symbol
 _atom_site_label
 _atom_site_symmetry_multiplicity
 _atom_site_fract_x
 _atom_site_fract_y
 _atom_site_fract_z
 _atom_site_occupancy
 _atom_site_hle17_ddec_charge
 _atom_site_hle17_ddec_spin_density
 _atom_site_hle17_ddec_sum_bond_order
 _atom_site_hle17_magmom
 _atom_site_hse06_10hf_ddec_charge
 _atom_site_hse06_10hf_ddec_spin_density
 _atom_site_hse06_10hf_ddec_sum_bond_order
 _atom_site_hse06_10hf_magmom
 _atom_site_hse06_ddec_charge
 _atom_site_hse06_ddec_spin_density
 _atom_site_hse06_ddec_sum_bond_order
 _atom_site_hse06_magmom
 _atom_site_pbe_cm5_charge
 _atom_site_pbe_ddec_charge
 _atom_site_pbe_ddec_spin_density
 _atom_site_pbe_ddec_sum_bond_order
 _atom_site_pbe_magmom
Co  Co0  1  0.14548904  0.12046507  0.96513527  1  0.981892  3.020185  2.037857  2.592  0.945028  2.922471  2.448204  2.65  1.01841  2.948587  2.378284  2.722  0.683754  0.881652  2.897677  2.511709  2.582
Co  Co1  1  0.85451195  0.87952806  0.03487227  1  0.981951  -3.02018  2.037933  -2.592  0.945148  -2.922466  2.448276  -2.65  1.01852  -2.948582  2.378361  -2.722  0.683827  0.881796  -2.897696  2.511774  -2.582
H  H2  1  0.42530497  0.96194357  0.06488508  1  0.105166  0.000556  0.948886  0.002  0.111055  0.000248  1.014603  0.001  0.115405  0.000172  1.00955  0.001  0.122907  0.10734  0.000332  1.01901  0.001
H  H3  1  0.57469953  0.03804856  0.93512109  1  0.105189  -0.000554  0.948842  -0.002  0.111047  -0.000248  1.01459  -0.001  0.115401  -0.000172  1.009528  -0.001  0.122852  0.107328  -0.000333  1.018994  -0.001
H  H4  1  0.54000061  0.92117085  0.22359500  1  0.108699  0.00019  0.953117  0.0  0.117918  0.000333  1.012778  0.0  0.121347  0.000257  1.012282  0.0  0.109074  0.11575  0.000403  1.012785  0.0
H  H5  1  0.46000770  0.07883045  0.77640942  1  0.10881  -0.000191  0.953111  0.0  0.117983  -0.000334  1.012781  0.0  0.121414  -0.000257  1.012281  0.0  0.109103  0.115816  -0.000402  1.012787  0.0
H  H6  1  0.08048152  0.39361070  0.25683777  1  0.288582  1e-06  0.899594  0.0  0.273423  5e-06  0.961047  0.0  0.281101  8e-06  0.954754  0.0  0.313569  0.267923  -2e-06  0.965647  0.0
H  H7  1  0.91951583  0.60639088  0.74315831  1  0.288569  -0.0  0.89972  0.0  0.273485  -5e-06  0.961084  0.0  0.281167  -8e-06  0.954783  0.0  0.313586  0.267986  1e-06  0.965685  0.0
H  H8  1  0.39319775  0.04287240  0.35672356  1  0.101571  0.000312  0.93603  0.001  0.114427  -5.4e-05  0.993857  0.0  0.117427  -3.2e-05  0.991387  0.0  0.112494  0.112237  -8.4e-05  0.995687  0.0
H  H9  1  0.60680582  0.95714132  0.64327344  1  0.101575  -0.000317  0.936006  -0.001  0.114394  5.4e-05  0.993878  0.0  0.117395  3.2e-05  0.991408  0.0  0.112532  0.112208  8.4e-05  0.995702  0.0
H  H10  1  0.19644840  0.01414085  0.49484510  1  0.292663  -6e-06  0.963458  0.0  0.271133  -0.0  1.037522  0.0  0.279266  -1e-06  1.031169  0.0  0.296656  0.265395  -1e-06  1.042007  0.0
H  H11  1  0.80355007  0.98586067  0.50515307  1  0.292765  6e-06  0.963283  0.0  0.271207  0.0  1.037384  0.0  0.279345  1e-06  1.031021  0.0  0.296687  0.265455  -1e-06  1.041889  0.0
H  H12  1  0.03630719  0.22377665  0.15588899  1  0.084549  0.000621  0.938375  0.002  0.091798  0.000394  1.005922  0.001  0.094425  0.000291  1.003613  0.001  0.120468  0.089639  0.000516  1.007921  0.001
H  H13  1  0.96369139  0.77622077  0.84411002  1  0.084499  -0.000626  0.938425  -0.002  0.09176  -0.000394  1.00596  -0.001  0.094387  -0.000291  1.003652  -0.001  0.120448  0.089601  -0.000516  1.007963  -0.001
H  H14  1  0.96863559  0.38014393  0.45016717  1  0.064436  -7e-06  0.940851  0.0  0.080401  2e-06  1.005882  0.0  0.081364  0.0  1.005115  0.0  0.108697  0.079627  4e-06  1.00656  0.0
H  H15  1  0.03136472  0.61986984  0.54982844  1  0.064461  5e-06  0.940823  0.0  0.080391  -1e-06  1.005898  0.0  0.081354  -0.0  1.005131  0.0  0.108692  0.079604  -4e-06  1.006573  0.0
H  H16  1  0.02652176  0.51984000  0.39880954  1  0.043744  -4.2e-05  0.948243  0.0  0.060306  -1.8e-05  1.017349  0.0  0.059549  -1.6e-05  1.01829  0.0  0.098297  0.060766  -2e-05  1.016922  0.0
H  H17  1  0.97346872  0.48017397  0.60118051  1  0.043773  3.9e-05  0.948134  0.0  0.060287  1.8e-05  1.017298  0.0  0.059528  1.6e-05  1.018239  0.0  0.098259  0.060737  1.9e-05  1.016865  0.0
H  H18  1  0.74627489  0.43654475  0.34155418  1  0.089606  8e-06  0.940614  0.0  0.106124  4e-06  1.001402  0.0  0.107586  2e-06  1.001318  0.0  0.091954  0.104907  5e-06  1.001695  0.0
H  H19  1  0.25371936  0.56345272  0.65844415  1  0.08973  -7e-06  0.940541  0.0  0.10624  -4e-06  1.001342  0.0  0.107703  -2e-06  1.00126  0.0  0.092024  0.105022  -5e-06  1.001634  0.0
H  H20  1  0.80342666  0.57545527  0.28771527  1  0.064779  6.9e-05  0.934803  0.0  0.08533  6.6e-05  0.991115  0.0  0.085574  4.8e-05  0.992757  0.0  0.085005  0.084873  9e-05  0.990275  0.0
H  H21  1  0.19656444  0.42454541  0.71227736  1  0.064848  -6.3e-05  0.934826  0.0  0.08543  -6.6e-05  0.991104  0.0  0.085675  -4.8e-05  0.992747  0.0  0.085042  0.084976  -8.8e-05  0.990257  0.0
H  H22  1  0.74329054  0.54675957  0.49784243  1  0.050053  5e-06  0.936816  0.0  0.070576  5e-06  0.997276  0.0  0.071071  3e-06  0.997678  0.0  0.083637  0.070214  8e-06  0.997051  0.0
H  H23  1  0.25670156  0.45324516  0.50215075  1  0.050056  -0.0  0.936912  0.0  0.070556  -5e-06  0.997393  0.0  0.07105  -2e-06  0.997795  0.0  0.083624  0.070189  -8e-06  0.997173  0.0
H  H24  1  0.78479860  0.68753046  0.43765524  1  0.060342  5.1e-05  0.944873  0.0  0.078748  2.6e-05  1.007212  0.0  0.078786  1.7e-05  1.009078  0.0  0.08382  0.078595  3.8e-05  1.006168  0.0
H  H25  1  0.21519989  0.31246709  0.56233889  1  0.06026  -4.9e-05  0.944902  0.0  0.078697  -2.6e-05  1.007208  0.0  0.078732  -1.7e-05  1.009078  0.0  0.08378  0.078544  -3.8e-05  1.006165  0.0
H  H26  1  0.50407467  0.58803113  0.41221351  1  0.062993  -4e-06  0.927757  0.0  0.084412  -1e-06  0.982958  0.0  0.08495  -0.0  0.983736  0.0  0.088005  0.083974  0.0  0.982457  0.0
H  H27  1  0.49591721  0.41197452  0.58778382  1  0.063009  -2e-06  0.927766  0.0  0.084414  2e-06  0.983009  0.0  0.084954  0.0  0.983788  0.0  0.088003  0.083975  -0.0  0.982506  0.0
H  H28  1  0.54230819  0.72000258  0.34013004  1  0.054214  2.1e-05  0.939119  0.0  0.076002  1.9e-05  0.99774  0.0  0.076194  1.3e-05  0.998776  0.0  0.08417  0.075634  2.5e-05  0.997182  0.0
H  H29  1  0.45768477  0.28000306  0.65986729  1  0.054172  -2.5e-05  0.939146  0.0  0.076009  -1.9e-05  0.997726  0.0  0.076206  -1.3e-05  0.99876  0.0  0.084143  0.075638  -2.6e-05  0.997167  0.0
H  H30  1  0.52766661  0.72972607  0.55407613  1  0.076533  1.1e-05  0.929545  0.0  0.09429  1e-05  0.98729  0.0  0.095699  7e-06  0.987021  0.0  0.090181  0.093293  1.8e-05  0.987493  0.0
H  H31  1  0.47233014  0.27027756  0.44591917  1  0.076561  -1.4e-05  0.929366  0.0  0.094308  -1e-05  0.987186  0.0  0.095717  -6e-06  0.986916  0.0  0.090186  0.093308  -1.9e-05  0.98739  0.0
H  H32  1  0.53170937  0.86469694  0.47100653  1  0.058061  3e-06  0.940237  0.0  0.075212  1e-06  1.005542  0.0  0.075951  1e-06  1.005853  0.0  0.08299  0.074626  2e-06  1.005341  0.0
H  H33  1  0.46828766  0.13530964  0.52899285  1  0.05804  -3e-06  0.940299  0.0  0.075237  -1e-06  1.005587  0.0  0.075975  -0.0  1.005898  0.0  0.083009  0.074653  -2e-06  1.005384  0.0
H  H34  1  0.28455628  0.84128522  0.40254907  1  0.050199  -7.8e-05  0.948364  0.0  0.06855  -3.7e-05  1.014096  0.0  0.067868  -2.8e-05  1.015603  0.0  0.101139  0.068978  -5e-05  1.013063  0.0
H  H35  1  0.71544027  0.15871931  0.59745109  1  0.050192  7.8e-05  0.948307  0.0  0.06857  3.7e-05  1.014017  0.0  0.067887  2.8e-05  1.015523  0.0  0.101156  0.068997  5e-05  1.012988  0.0
H  H36  1  0.28298141  0.72009189  0.49714454  1  0.059047  7e-06  0.917492  0.0  0.079963  -6e-06  0.97593  0.0  0.079843  -3e-06  0.976272  0.0  0.105352  0.079926  -1.1e-05  0.975806  0.0
H  H37  1  0.71701654  0.27991157  0.50285704  1  0.059084  -9e-06  0.917409  0.0  0.079983  6e-06  0.975855  0.0  0.079864  3e-06  0.976194  0.0  0.105349  0.079948  1.1e-05  0.975731  0.0
H  H38  1  0.26036222  0.94564430  0.80256536  1  0.086398  0.000456  0.979051  0.002  0.091171  0.000237  1.050479  0.001  0.094441  0.000144  1.047325  0.001  0.117378  0.088765  0.000329  1.052665  0.001
H  H39  1  0.73962945  0.05434712  0.19743180  1  0.08641  -0.000451  0.979076  -0.002  0.091128  -0.000237  1.050582  -0.001  0.094389  -0.000144  1.047431  -0.001  0.117357  0.088722  -0.000329  1.052767  -0.001
H  H40  1  0.99960763  0.13380372  0.55671073  1  0.110887  0.000283  0.967712  0.001  0.118538  -4e-05  1.033566  0.0  0.122418  -2.4e-05  1.02945  0.0  0.111667  0.115625  -6.3e-05  1.036794  0.0
H  H41  1  0.00038484  0.86620384  0.44329141  1  0.11089  -0.000283  0.967836  -0.001  0.118537  4e-05  1.033668  0.0  0.122417  2.5e-05  1.029553  0.0  0.111683  0.115626  6.2e-05  1.036889  0.0
H  H42  1  0.85432894  0.31367063  0.65758074  1  0.102629  0.000109  0.968927  0.0  0.109656  0.000265  1.034514  0.0  0.113657  0.000184  1.032219  0.0  0.105185  0.10681  0.000339  1.036476  0.0
H  H43  1  0.14567548  0.68633677  0.34242486  1  0.10263  -0.000105  0.96903  0.0  0.109656  -0.000265  1.034603  0.0  0.113655  -0.000185  1.03231  0.0  0.105216  0.106813  -0.00034  1.036561  0.0
H  H44  1  0.92310378  0.30110293  0.82661273  1  0.087989  0.000496  0.942696  0.001  0.092642  0.000242  1.009994  0.001  0.096298  0.000152  1.006035  0.001  0.116317  0.089638  0.000352  1.013396  0.001
H  H45  1  0.07689770  0.69889226  0.17339403  1  0.087898  -0.000501  0.942739  -0.001  0.09254  -0.000242  1.01006  -0.001  0.096193  -0.000152  1.006108  -0.001  0.116273  0.089536  -0.000352  1.013463  -0.001
H  H46  1  0.11598128  0.58375668  0.97987317  1  0.137006  0.000217  0.949018  0.0  0.141616  0.000224  1.018052  0.0  0.147139  0.000206  1.012819  0.0  0.114079  0.137275  0.000242  1.022121  0.0
H  H47  1  0.88402601  0.41624060  0.02012931  1  0.136961  -0.000213  0.949117  0.0  0.141587  -0.000224  1.018122  0.0  0.147111  -0.000205  1.012891  0.0  0.114057  0.137247  -0.000242  1.022209  0.0
H  H48  1  0.46652098  0.76250238  0.88383610  1  0.128929  0.00013  0.93712  0.0  0.132516  9.2e-05  1.006735  0.0  0.136603  5e-05  1.00316  0.0  0.118944  0.12924  0.000155  1.009774  0.0
H  H49  1  0.53348608  0.23749584  0.11616984  1  0.128987  -0.000133  0.937055  0.0  0.132585  -9.2e-05  1.006646  0.0  0.136655  -5.1e-05  1.00309  0.0  0.118946  0.129305  -0.000154  1.009684  0.0
H  H50  1  0.50413370  0.33734807  0.84955801  1  0.125019  0.000287  0.936954  0.0  0.130048  0.00022  1.003298  0.0  0.134608  0.000135  0.999052  0.0  0.117942  0.126493  0.000322  1.006536  0.0
H  H51  1  0.49586430  0.66264413  0.15044678  1  0.124992  -0.000283  0.936994  0.0  0.129976  -0.00022  1.003385  0.0  0.134533  -0.000134  0.999145  0.0  0.117928  0.126428  -0.000323  1.00661  0.0
C  C52  1  0.36435970  0.01187817  0.12317229  1  0.145997  -0.012098  3.641671  -0.016  0.117039  -0.003554  3.891781  -0.005  0.127839  -0.003244  3.903802  -0.005  0.054583  0.108661  -0.00416  3.885394  -0.006
C  C53  1  0.63564912  0.98811393  0.87683386  1  0.145799  0.01209  3.641763  0.016  0.116872  0.003553  3.891815  0.005  0.127671  0.003245  3.903838  0.005  0.054486  0.108502  0.004161  3.88542  0.006
C  C54  1  0.42777871  0.98913738  0.21293320  1  -0.118973  0.01024  3.727988  0.014  -0.128565  0.002673  3.978359  0.004  -0.136896  0.00264  3.997731  0.004  -0.081857  -0.123531  0.002734  3.966129  0.004
C  C55  1  0.57222800  0.01086588  0.78707464  1  -0.119172  -0.010241  3.728041  -0.014  -0.128695  -0.002673  3.978357  -0.004  -0.137022  -0.002639  3.997721  -0.004  -0.081898  -0.123661  -0.002732  3.966123  -0.004
C  C56  1  0.34668958  0.05523189  0.28575193  1  -0.016795  -0.013319  3.69659  -0.016  -0.046841  -0.004673  3.943406  -0.006  -0.040027  -0.00355  3.959302  -0.004  -0.062096  -0.051422  -0.006196  3.93271  -0.007
C  C57  1  0.65331239  0.94477257  0.71424960  1  -0.016633  0.01333  3.696533  0.016  -0.046724  0.004674  3.943321  0.006  -0.039881  0.00355  3.959237  0.004  -0.062088  -0.051303  0.006192  3.932624  0.007
C  C58  1  0.20430246  0.14292720  0.26583393  1  -0.107615  0.009459  3.782534  0.013  -0.08501  0.002583  4.023432  0.004  -0.09672  0.002557  4.046254  0.004  -0.010713  -0.077281  0.002614  4.008057  0.004
C  C59  1  0.79569894  0.85707534  0.73416349  1  -0.10777  -0.009454  3.782684  -0.013  -0.085028  -0.002583  4.023446  -0.004  -0.096822  -0.002556  4.046378  -0.004  -0.010789  -0.077298  -0.002613  4.008071  -0.004
C  C60  1  0.14774440  0.15817596  0.17417371  1  0.126993  -0.012303  3.662095  -0.017  0.088748  -0.003434  3.916946  -0.005  0.098815  -0.003046  3.931726  -0.005  0.055925  0.081884  -0.003997  3.906676  -0.006
C  C61  1  0.85225645  0.84181736  0.82582615  1  0.127034  0.012313  3.661962  0.017  0.088727  0.003433  3.916814  0.005  0.09882  0.003045  3.931619  0.005  0.055928  0.081861  0.00399  3.906547  0.006
C  C62  1  0.11729111  0.22005820  0.34140096  1  0.550544  6.1e-05  3.86089  0.0  0.501031  0.000337  4.149435  0.0  0.531019  0.000219  4.149193  0.0  0.244923  0.48081  0.000469  4.148854  0.0
C  C63  1  0.88271281  0.77994322  0.65859998  1  0.550522  -6.3e-05  3.861172  0.0  0.50094  -0.000337  4.149747  0.0  0.530949  -0.00022  4.149514  0.0  0.244912  0.480715  -0.000467  4.149165  0.0
C  C64  1  0.96652163  0.44335062  0.38491018  1  0.06712  -1.6e-05  3.672297  0.0  0.004241  -9e-06  3.943632  0.0  0.010124  -9e-06  3.95535  0.0  -0.061663  0.000388  -6e-06  3.935396  0.0
C  C65  1  0.03347304  0.55666019  0.61508347  1  0.067166  2.6e-05  3.672215  0.0  0.004366  9e-06  3.943452  0.0  0.010252  1e-05  3.955171  0.0  -0.061594  0.000565  7e-06  3.935145  0.0
C  C66  1  0.80535051  0.51421371  0.35428029  1  -0.146686  4.9e-05  3.686348  0.0  -0.185425  4.4e-05  3.947152  0.0  -0.188189  3e-05  3.962241  0.0  -0.170123  -0.183167  6.3e-05  3.936648  0.0
C  C67  1  0.19464198  0.48578593  0.64571307  1  -0.146954  -5.9e-05  3.686397  0.0  -0.185762  -4.5e-05  3.947285  0.0  -0.188521  -3e-05  3.962354  0.0  -0.170264  -0.183517  -6.5e-05  3.936774  0.0
C  C68  1  0.72851544  0.60632177  0.42961559  1  -0.100486  0.0  3.708598  0.0  -0.138788  1.9e-05  3.970948  0.0  -0.13991  1.3e-05  3.987134  0.0  -0.167034  -0.137878  2.6e-05  3.959529  0.0
C  C69  1  0.27147406  0.39368088  0.57038046  1  -0.100358  -1.6e-05  3.708755  0.0  -0.138647  -1.9e-05  3.971112  0.0  -0.139763  -1.4e-05  3.987303  0.0  -0.166951  -0.137745  -2.6e-05  3.9597  0.0
C  C70  1  0.56160768  0.66971971  0.41130636  1  -0.098691  4e-05  3.702801  0.0  -0.137076  1.4e-05  3.962669  0.0  -0.13816  1e-05  3.978376  0.0  -0.165713  -0.135971  1.9e-05  3.95156  0.0
C  C71  1  0.43838587  0.33028389  0.58869104  1  -0.098746  -1.6e-05  3.702732  0.0  -0.137147  -1.4e-05  3.962675  0.0  -0.138244  -9e-06  3.978398  0.0  -0.165704  -0.136034  -1.9e-05  3.951553  0.0
C  C72  1  0.49202757  0.77231763  0.48254200  1  -0.139982  4e-05  3.698193  0.0  -0.180331  2.2e-05  3.964564  0.0  -0.182394  1.3e-05  3.97881  0.0  -0.168758  -0.178904  2.7e-05  3.954542  0.0
C  C73  1  0.50797382  0.22768492  0.51745472  1  -0.139986  -3.7e-05  3.698091  0.0  -0.18044  -2.2e-05  3.964644  0.0  -0.182496  -1.5e-05  3.97889  0.0  -0.168825  -0.17901  -2.5e-05  3.954617  0.0
C  C74  1  0.32130094  0.81063328  0.47553961  1  0.063475  -1.6e-05  3.684412  0.0  6.8e-05  -0.0  3.957105  0.0  0.006209  -2e-06  3.968664  0.0  -0.063224  -0.003817  3e-06  3.948758  0.0
C  C75  1  0.67869478  0.18937030  0.52445779  1  0.063534  1.7e-05  3.684342  0.0  0.000164  0.0  3.957061  0.0  0.006306  2e-06  3.968614  0.0  -0.063189  -0.003722  -2e-06  3.948715  0.0
C  C76  1  0.23319507  0.90396595  0.62436619  1  0.534147  -3.7e-05  3.882535  -0.001  0.487879  0.000239  4.168474  0.0  0.517015  0.000148  4.16958  0.0  0.230114  0.468431  0.000344  4.166907  0.0
C  C77  1  0.76679721  0.09603460  0.37563133  1  0.534218  4.1e-05  3.88255  0.001  0.48795  -0.00024  4.168518  0.0  0.517078  -0.00015  4.169617  0.0  0.230084  0.468514  -0.000345  4.166955  0.0
C  C78  1  0.17169750  0.02653155  0.76815576  1  0.112974  -0.010545  3.677412  -0.014  0.076747  -0.002398  3.924318  -0.004  0.086148  -0.002084  3.939742  -0.003  0.049246  0.070196  -0.002946  3.914263  -0.004
C  C79  1  0.82829962  0.97347096  0.23184377  1  0.112914  0.010522  3.677483  0.014  0.076743  0.002398  3.924385  0.004  0.086141  0.002082  3.939794  0.003  0.04927  0.070203  0.002945  3.914352  0.004
C  C80  1  0.14245063  0.02445393  0.67279883  1  -0.100782  0.008992  3.748983  0.012  -0.073296  0.002556  3.979941  0.004  -0.08528  0.002359  4.003139  0.004  -0.010878  -0.066146  0.002775  3.965329  0.004
C  C81  1  0.85754356  0.97554756  0.32720144  1  -0.100652  -0.008999  3.748787  -0.012  -0.073214  -0.002556  3.979787  -0.004  -0.085159  -0.002359  4.002934  -0.004  -0.010814  -0.066107  -0.002774  3.965229  -0.004
C  C82  1  0.02722848  0.13004091  0.63086341  1  -0.024133  -0.012255  3.686238  -0.015  -0.055345  -0.00406  3.937427  -0.005  -0.047186  -0.002955  3.951344  -0.004  -0.066464  -0.061406  -0.00577  3.929645  -0.007
C  C83  1  0.97277410  0.86996149  0.36913890  1  -0.024241  0.012263  3.686418  0.015  -0.055428  0.00406  3.937608  0.005  -0.04728  0.002955  3.951515  0.004  -0.066509  -0.061474  0.005775  3.929837  0.007
C  C84  1  0.94679916  0.23080051  0.68631256  1  -0.129441  0.009318  3.750647  0.012  -0.139585  0.002302  4.004129  0.003  -0.1481  0.002168  4.02376  0.003  -0.088094  -0.134593  0.002474  3.992474  0.004
C  C85  1  0.05320002  0.76919881  0.31369196  1  -0.129416  -0.009333  3.750776  -0.012  -0.139542  -0.002302  4.004223  -0.003  -0.148058  -0.002168  4.023861  -0.003  -0.088117  -0.134549  -0.002471  3.992565  -0.004
C  C86  1  0.98317942  0.22455039  0.78096481  1  0.138079  -0.011673  3.679574  -0.015  0.109015  -0.003402  3.931521  -0.004  0.119094  -0.002962  3.945616  -0.004  0.047541  0.101599  -0.004166  3.923115  -0.005
C  C87  1  0.01682103  0.77545200  0.21903889  1  0.138136  0.011691  3.679354  0.015  0.109078  0.003403  3.931319  0.004  0.119156  0.002964  3.945418  0.004  0.047567  0.101662  0.004166  3.922917  0.005
C  C88  1  0.30510250  0.44768494  0.91757926  1  -0.045415  0.003386  3.749481  0.005  -0.017524  0.001594  3.984735  0.002  -0.027044  0.001125  4.005492  0.002  -0.010608  -0.012815  0.00191  3.972835  0.003
C  C89  1  0.69491009  0.55230912  0.08242891  1  -0.0454  -0.003393  3.749344  -0.005  -0.017617  -0.001594  3.984755  -0.002  -0.027139  -0.001124  4.005513  -0.001  -0.01066  -0.012906  -0.001911  3.972857  -0.003
C  C90  1  0.22376729  0.57447405  0.94676511  1  -0.041139  -0.000666  3.607737  -0.001  -0.085493  0.00084  3.858219  0.001  -0.07969  0.000388  3.873229  0.0  -0.063093  -0.091651  -0.00074  3.852087  -0.001
C  C91  1  0.77623724  0.42552136  0.05323186  1  -0.040976  0.00066  3.607554  0.001  -0.08531  -0.00084  3.858073  -0.001  -0.079508  -0.00039  3.873081  0.0  -0.062967  -0.091484  0.000741  3.85195  0.001
C  C92  1  0.28136148  0.68815157  0.93501278  1  -0.063967  0.002039  3.731523  0.003  -0.037406  0.000803  3.967452  0.001  -0.050055  0.000715  3.989589  0.001  -0.011226  -0.030161  0.000713  3.95602  0.001
C  C93  1  0.71864379  0.31184161  0.06499195  1  -0.06418  -0.00204  3.731731  -0.003  -0.037616  -0.000804  3.967666  -0.001  -0.050264  -0.000713  3.989795  -0.001  -0.011382  -0.030366  -0.000711  3.95623  -0.001
C  C94  1  0.41989893  0.67555785  0.89277014  1  -0.057274  -0.001785  3.648307  -0.002  -0.100743  -0.001275  3.90968  -0.002  -0.093044  -0.001031  3.922492  -0.001  -0.058249  -0.104657  0.000308  3.900515  0.0
C  C95  1  0.58010504  0.32444349  0.10723360  1  -0.057266  0.001796  3.648331  0.002  -0.100708  0.001275  3.909682  0.002  -0.09299  0.001032  3.922502  0.001  -0.058183  -0.104617  -0.000306  3.900509  0.0
C  C96  1  0.49483384  0.54993242  0.86083819  1  0.072974  0.001122  3.725765  0.002  0.060823  0.000177  3.978959  0.0  0.058948  0.000264  4.00417  0.0  0.081633  0.064936  1e-06  3.962782  0.0
C  C97  1  0.50516773  0.45007320  0.13915772  1  0.073064  -0.001116  3.725656  -0.002  0.060787  -0.000177  3.978914  0.0  0.058895  -0.000265  4.004115  0.0  0.081646  0.064905  -7e-06  3.962737  0.0
C  C98  1  0.44093827  0.43519460  0.87288857  1  -0.084814  -0.004131  3.681329  -0.005  -0.124964  -0.001073  3.937575  -0.001  -0.118739  -0.000686  3.951686  -0.001  -0.064048  -0.126984  -0.000222  3.926395  0.0
C  C99  1  0.55907430  0.56480674  0.12711304  1  -0.084728  0.004114  3.681234  0.005  -0.124753  0.001072  3.937507  0.001  -0.118528  0.000685  3.951623  0.001  -0.064026  -0.126777  0.000224  3.926331  0.0
C  C100  1  0.24768433  0.32487327  0.93371683  1  0.609641  -0.00749  3.935963  -0.012  0.563706  -0.002206  4.240646  -0.005  0.599912  -0.001484  4.23801  -0.003  0.193225  0.538475  -0.002734  4.238435  -0.007
C  C101  1  0.75231873  0.67512392  0.06629055  1  0.60974  0.007497  3.935917  0.012  0.56382  0.002209  4.240625  0.005  0.600026  0.001488  4.237996  0.003  0.193378  0.538587  0.002736  4.238422  0.007
C  C102  1  0.19483302  0.82449857  0.96540046  1  0.653977  -9.1e-05  3.878521  -0.003  0.611702  -0.000839  4.172756  -0.003  0.653206  -0.001355  4.162496  -0.004  0.219834  0.580323  0.00032  4.178631  -0.002
C  C103  1  0.80517450  0.17549447  0.03460916  1  0.653752  9.5e-05  3.878538  0.003  0.611476  0.000839  4.172778  0.003  0.652976  0.001351  4.162528  0.004  0.219843  0.580096  -0.000315  4.178649  0.002
N  N104  1  0.22575811  0.09409706  0.10404301  1  -0.304216  0.041489  3.311653  0.071  -0.256726  0.026385  3.594549  0.044  -0.277904  0.022915  3.6056  0.038  -0.321996  -0.241261  0.029234  3.587249  0.048
N  N105  1  0.77425519  0.90589812  0.89596093  1  -0.303966  -0.04149  3.31141  -0.071  -0.256487  -0.026385  3.59431  -0.044  -0.277662  -0.022915  3.605353  -0.038  -0.321829  -0.241027  -0.02923  3.587015  -0.048
N  N106  1  0.09474742  0.12377253  0.82173474  1  -0.311145  0.04059  3.315717  0.068  -0.260746  0.026328  3.594012  0.041  -0.281653  0.022773  3.604753  0.035  -0.325686  -0.246032  0.029409  3.587746  0.046
N  N107  1  0.90524870  0.87622988  0.17826897  1  -0.311124  -0.040588  3.315694  -0.068  -0.260743  -0.02633  3.593988  -0.041  -0.281649  -0.022775  3.60473  -0.035  -0.325714  -0.246033  -0.02941  3.587729  -0.046
N  N108  1  0.05055862  0.35280445  0.31820763  1  -0.411305  0.000437  3.310355  0.001  -0.353453  0.000125  3.559175  0.0  -0.374711  0.000119  3.567371  0.0  -0.411733  -0.338881  0.000152  3.55315  0.0
N  N109  1  0.94943797  0.64719608  0.68178987  1  -0.411311  -0.000441  3.310686  -0.001  -0.353526  -0.000125  3.559411  0.0  -0.374785  -0.00012  3.567599  0.0  -0.411766  -0.338967  -0.000152  3.553375  0.0
N  N110  1  0.24569033  0.92225096  0.53082482  1  -0.452538  0.000584  3.332019  0.001  -0.395382  0.000239  3.589773  0.0  -0.418434  0.00018  3.598915  0.0  -0.430518  -0.379444  0.000311  3.582714  0.0
N  N111  1  0.75430597  0.07775059  0.46917265  1  -0.452719  -0.000585  3.331933  -0.001  -0.395546  -0.000239  3.58973  0.0  -0.418605  -0.000177  3.598875  0.0  -0.430561  -0.379594  -0.000309  3.582692  0.0
N  N112  1  0.63610683  0.53612231  0.81296086  1  0.47647  -0.000292  3.940442  -0.001  0.540482  -1.9e-05  4.186627  0.0  0.545393  -1.7e-05  4.22073  0.0  0.060198  0.52551  0.00013  4.182117  0.0
N  N113  1  0.36388982  0.46387025  0.18702997  1  0.476037  0.000288  3.940477  0.001  0.540266  1.7e-05  4.186443  0.0  0.545222  2.2e-05  4.220484  0.0  0.060047  0.525292  -0.000118  4.181936  0.0
O  O114  1  0.33678657  0.20571220  0.93045516  1  -0.600722  0.045632  1.947525  0.074  -0.574147  0.033268  2.202784  0.054  -0.613098  0.023584  2.199797  0.038  -0.307772  -0.541111  0.043252  2.20212  0.069
O  O115  1  0.66322277  0.79428916  0.06954647  1  -0.600762  -0.045635  1.947545  -0.074  -0.574197  -0.033271  2.202812  -0.054  -0.613143  -0.023589  2.199834  -0.038  -0.307819  -0.541161  -0.043257  2.202154  -0.069
O  O116  1  0.10954648  0.34069938  0.95028388  1  -0.594694  0.045271  1.995052  0.075  -0.566448  0.032789  2.251007  0.054  -0.603646  0.023793  2.244665  0.039  -0.306536  -0.534181  0.043043  2.250992  0.07
O  O117  1  0.89046305  0.65928327  0.04973449  1  -0.594806  -0.045264  1.99512  -0.075  -0.566569  -0.032787  2.251082  -0.054  -0.603759  -0.023792  2.24474  -0.039  -0.306627  -0.534303  -0.043036  2.251073  -0.07
O  O118  1  0.67231072  0.44659001  0.75610433  1  -0.35793  0.000245  1.759122  0.0  -0.354649  0.000124  1.952914  0.0  -0.361382  9e-05  1.956693  0.0  -0.126577  -0.346964  0.000164  1.95656  0.0
O  O119  1  0.32767820  0.55339225  0.24389387  1  -0.35768  -0.000248  1.75918  0.0  -0.354542  -0.000123  1.95292  0.0  -0.361281  -9.4e-05  1.956666  0.0  -0.126471  -0.346859  -0.000162  1.956566  0.0
O  O120  1  0.71363377  0.61358100  0.83198059  1  -0.353581  -5.2e-05  1.785276  0.0  -0.344562  0.000118  1.977034  0.0  -0.35175  0.000132  1.983012  0.0  -0.119087  -0.336898  0.000195  1.979246  0.0
O  O121  1  0.28636540  0.38641375  0.16800317  1  -0.353496  5.7e-05  1.785234  0.0  -0.344501  -0.000117  1.976896  0.0  -0.351704  -0.000135  1.982849  0.0  -0.119077  -0.336841  -0.000195  1.979108  0.0
O  O122  1  0.06463998  0.83728881  0.99663573  1  -0.624436  -0.047528  2.205904  -0.074  -0.598333  -0.037709  2.510462  -0.055  -0.635235  -0.027985  2.493584  -0.038  -0.310193  -0.564674  -0.049242  2.518781  -0.074
O  O123  1  0.93535773  0.16271166  0.00336387  1  -0.624328  0.047525  2.205886  0.074  -0.598215  0.037708  2.510416  0.055  -0.635112  0.027986  2.493546  0.038  -0.310216  -0.564548  0.04924  2.51873  0.074
O  O124  1  0.25841272  0.92089029  0.95676244  1  -0.605346  0.045688  2.136895  0.07  -0.567752  0.036739  2.411162  0.054  -0.605225  0.028449  2.400704  0.041  -0.299417  -0.536581  0.043482  2.417082  0.064
O  O125  1  0.74160175  0.07909688  0.04323620  1  -0.605233  -0.045696  2.13695  -0.07  -0.56762  -0.036744  2.411202  -0.054  -0.605094  -0.028452  2.400748  -0.041  -0.299399  -0.536447  -0.043488  2.417116  -0.064
O  O126  1  0.10937851  0.16389858  0.42082019  1  -0.573162  0.000727  1.97981  0.001  -0.528433  0.000302  2.210314  0.001  -0.550486  0.000243  2.203615  0.0  -0.300292  -0.512728  0.000383  2.214247  0.001
O  O127  1  0.89062300  0.83610382  0.57918282  1  -0.573138  -0.000724  1.979891  -0.001  -0.528359  -0.000302  2.210367  -0.001  -0.550423  -0.000242  2.203693  0.0  -0.300254  -0.51266  -0.000383  2.214326  -0.001
O  O128  1  0.29216124  0.79419534  0.67013117  1  -0.563125  0.000614  1.874702  0.001  -0.525363  0.000132  2.088327  0.0  -0.545775  0.000151  2.083579  0.0  -0.317265  -0.511299  0.000136  2.091114  0.0
O  O129  1  0.70782649  0.20580223  0.32986508  1  -0.563171  -0.000612  1.874779  -0.001  -0.525384  -0.000132  2.088394  0.0  -0.545799  -0.000149  2.083648  0.0  -0.317223  -0.511319  -0.000134  2.091177  0.0
