# generated using pymatgen
data_ZnPH12C5NO5
_symmetry_space_group_name_H-M   'P 1'
_cell_length_a   9.24724471
_cell_length_b   10.38290733
_cell_length_c   10.89651280
_cell_angle_alpha   119.07371548
_cell_angle_beta   90.00019097
_cell_angle_gamma   89.99971992
_symmetry_Int_Tables_number   1
_chemical_formula_structural   ZnPH12C5NO5
_chemical_formula_sum   'Zn4 P4 H48 C20 N4 O20'
_cell_volume   914.38254665
_cell_formula_units_Z   4
loop_
 _symmetry_equiv_pos_site_id
 _symmetry_equiv_pos_as_xyz
  1  'x, y, z'
loop_
 _atom_site_type_symbol
 _atom_site_label
 _atom_site_symmetry_multiplicity
 _atom_site_fract_x
 _atom_site_fract_y
 _atom_site_fract_z
 _atom_site_occupancy
 _atom_site_hle17_bader_spin_density
 _atom_site_hle17_ddec_charge
 _atom_site_hle17_ddec_spin_density
 _atom_site_hle17_ddec_sum_bond_order
 _atom_site_hle17_magmom
 _atom_site_hse06_10hf_bader_spin_density
 _atom_site_hse06_10hf_ddec_charge
 _atom_site_hse06_10hf_ddec_spin_density
 _atom_site_hse06_10hf_ddec_sum_bond_order
 _atom_site_hse06_10hf_magmom
 _atom_site_hse06_bader_spin_density
 _atom_site_hse06_ddec_charge
 _atom_site_hse06_ddec_spin_density
 _atom_site_hse06_ddec_sum_bond_order
 _atom_site_hse06_magmom
 _atom_site_pbe_bader_spin_density
 _atom_site_pbe_cm5_charge
 _atom_site_pbe_ddec_charge
 _atom_site_pbe_ddec_spin_density
 _atom_site_pbe_ddec_sum_bond_order
 _atom_site_pbe_magmom
Zn  Zn0  1  0.40740332  0.77251856  0.41761651  1  0  1.215236  0  1.79313  0  0  1.044973  0  2.285364  0  0  1.090981  0  2.219713  0  0  0.697742  1.012143  0  2.331001  0
Zn  Zn1  1  0.90740577  0.72747975  0.08237877  1  0  1.215289  0  1.792896  0  0  1.045042  0  2.285112  0  0  1.091054  0  2.219468  0  0  0.697813  1.012229  0  2.330764  0
Zn  Zn2  1  0.59259434  0.22748680  0.58237968  1  0  1.215271  0  1.792906  0  0  1.045017  0  2.285131  0  0  1.091026  0  2.219479  0  0  0.697767  1.012189  0  2.330777  0
Zn  Zn3  1  0.09259622  0.27251899  0.91762261  1  0  1.2153  0  1.792829  0  0  1.04506  0  2.285058  0  0  1.091073  0  2.219399  0  0  0.697801  1.012238  0  2.3307  0
P  P4  1  0.14865385  0.58934338  0.18516034  1  0  1.450218  0  4.997122  0  0  1.266912  0  5.49805  0  0  1.318127  0  5.460575  0  0  0.278431  1.231149  0  5.523498  0
P  P5  1  0.64867029  0.91066696  0.31484803  1  0  1.450203  0  4.997561  0  0  1.266835  0  5.498497  0  0  1.318051  0  5.461038  0  0  0.278374  1.231063  0  5.523958  0
P  P6  1  0.85134814  0.41065537  0.81483829  1  0  1.450464  0  4.997029  0  0  1.267173  0  5.497952  0  0  1.31839  0  5.460482  0  0  0.278501  1.231406  0  5.523407  0
P  P7  1  0.35133062  0.08933510  0.68515121  1  0  1.450221  0  4.997483  0  0  1.266864  0  5.498423  0  0  1.318084  0  5.460951  0  0  0.278356  1.231096  0  5.523883  0
H  H8  1  0.04861784  0.53488892  0.24755832  1  0  -0.175698  0  0.894249  0  0  -0.138304  0  0.976105  0  0  -0.142667  0  0.9722  0  0  0.073261  -0.135642  0  0.97872  0
H  H9  1  0.54863157  0.96512401  0.25245648  1  0  -0.175735  0  0.894374  0  0  -0.138278  0  0.976176  0  0  -0.142643  0  0.972271  0  0  0.073265  -0.135616  0  0.978792  0
H  H10  1  0.95138631  0.46510652  0.75244061  1  0  -0.175754  0  0.894284  0  0  -0.138362  0  0.97616  0  0  -0.142727  0  0.972255  0  0  0.073263  -0.135698  0  0.978775  0
H  H11  1  0.45136934  0.03487364  0.74753797  1  0  -0.175726  0  0.89439  0  0  -0.138274  0  0.976191  0  0  -0.142639  0  0.972286  0  0  0.073276  -0.13561  0  0.978804  0
H  H12  1  0.50758783  0.52935937  0.66993720  1  0  0.131913  0  0.935748  0  0  0.143174  0  0.995329  0  0  0.146166  0  0.993991  0  0  0.124297  0.140935  0  0.996511  0
H  H13  1  0.00759586  0.97063901  0.83006498  1  0  0.131922  0  0.935754  0  0  0.14318  0  0.995331  0  0  0.146177  0  0.993984  0  0  0.124282  0.140946  0  0.996516  0
H  H14  1  0.49240334  0.47063938  0.33005684  1  0  0.131971  0  0.935692  0  0  0.143219  0  0.995281  0  0  0.146214  0  0.99394  0  0  0.124308  0.140984  0  0.996468  0
H  H15  1  0.99241154  0.02936194  0.16994017  1  0  0.131928  0  0.935754  0  0  0.143197  0  0.995328  0  0  0.146188  0  0.993991  0  0  0.124295  0.140959  0  0.996511  0
H  H16  1  0.56828885  0.71403786  0.76736596  1  0  0.129303  0  0.960498  0  0  0.138647  0  1.022814  0  0  0.141982  0  1.020808  0  0  0.121242  0.136121  0  1.024742  0
H  H17  1  0.06829749  0.78596359  0.73263231  1  0  0.129298  0  0.960459  0  0  0.138672  0  1.022736  0  0  0.141991  0  1.020746  0  0  0.121253  0.136147  0  1.024663  0
H  H18  1  0.43170125  0.28596309  0.23262359  1  0  0.12933  0  0.960418  0  0  0.138689  0  1.022722  0  0  0.142014  0  1.020722  0  0  0.121234  0.136163  0  1.024652  0
H  H19  1  0.93170991  0.21403626  0.26736867  1  0  0.129304  0  0.960493  0  0  0.138655  0  1.022815  0  0  0.141984  0  1.020812  0  0  0.121238  0.136129  0  1.024741  0
H  H20  1  0.43147613  0.89172340  0.97350684  1  0  0.111621  0  0.929522  0  0  0.131673  0  0.988903  0  0  0.132648  0  0.988751  0  0  0.112468  0.130751  0  0.989286  0
H  H21  1  0.93147576  0.60827774  0.52649139  1  0  0.111575  0  0.929582  0  0  0.131669  0  0.988916  0  0  0.132646  0  0.98876  0  0  0.112461  0.130746  0  0.989298  0
H  H22  1  0.56852586  0.10827645  0.02648863  1  0  0.111551  0  0.929604  0  0  0.13164  0  0.988929  0  0  0.132617  0  0.988774  0  0  0.112455  0.130719  0  0.989311  0
H  H23  1  0.06852298  0.39172211  0.47351050  1  0  0.111558  0  0.929566  0  0  0.13164  0  0.988909  0  0  0.132617  0  0.988752  0  0  0.112458  0.130716  0  0.989293  0
H  H24  1  0.27068599  0.83006724  0.02284510  1  0  0.124442  0  0.940085  0  0  0.142484  0  1.001532  0  0  0.143738  0  1.001657  0  0  0.116286  0.141409  0  1.001728  0
H  H25  1  0.77069031  0.66994483  0.47715616  1  0  0.124423  0  0.940173  0  0  0.142476  0  1.001614  0  0  0.143727  0  1.00175  0  0  0.116311  0.141397  0  1.001809  0
H  H26  1  0.72931384  0.16994033  0.97715577  1  0  0.124431  0  0.94022  0  0  0.142461  0  1.001682  0  0  0.143716  0  1.001811  0  0  0.116285  0.141388  0  1.001878  0
H  H27  1  0.22931060  0.33006163  0.52284971  1  0  0.124398  0  0.940217  0  0  0.142436  0  1.00167  0  0  0.143687  0  1.001806  0  0  0.116272  0.14136  0  1.001867  0
H  H28  1  0.27003335  0.84955597  0.86884817  1  0  0.129455  0  0.941585  0  0  0.146005  0  1.000791  0  0  0.147635  0  1.000535  0  0  0.116452  0.144713  0  1.001086  0
H  H29  1  0.77003209  0.65044469  0.63114846  1  0  0.129508  0  0.941583  0  0  0.146064  0  1.000777  0  0  0.147693  0  1.000523  0  0  0.116444  0.14477  0  1.001073  0
H  H30  1  0.72996756  0.15044608  0.13115015  1  0  0.129482  0  0.94155  0  0  0.146  0  1.000786  0  0  0.147627  0  1.000537  0  0  0.116439  0.144708  0  1.001079  0
H  H31  1  0.22996774  0.34955626  0.36885486  1  0  0.12947  0  0.9416  0  0  0.146013  0  1.00081  0  0  0.147644  0  1.000549  0  0  0.11643  0.14472  0  1.001104  0
H  H32  1  0.52202069  0.51787218  0.88146175  1  0  0.13745  0  0.945531  0  0  0.152901  0  1.003653  0  0  0.154587  0  1.003703  0  0  0.116322  0.151522  0  1.003879  0
H  H33  1  0.02202565  0.98213054  0.61854524  1  0  0.137385  0  0.945483  0  0  0.152871  0  1.003619  0  0  0.154554  0  1.003675  0  0  0.116315  0.151492  0  1.003846  0
H  H34  1  0.47797806  0.48212877  0.11853607  1  0  0.137438  0  0.945569  0  0  0.152886  0  1.003683  0  0  0.154572  0  1.003733  0  0  0.116316  0.151504  0  1.003909  0
H  H35  1  0.97797634  0.01787041  0.38146175  1  0  0.137366  0  0.945545  0  0  0.152827  0  1.003673  0  0  0.15451  0  1.003732  0  0  0.1163  0.151448  0  1.0039  0
H  H36  1  0.42493353  0.64860711  0.03549119  1  0  0.125371  0  0.930591  0  0  0.141976  0  0.989272  0  0  0.143513  0  0.988898  0  0  0.114761  0.140622  0  0.989904  0
H  H37  1  0.92493898  0.85139334  0.46451246  1  0  0.125396  0  0.930517  0  0  0.142021  0  0.989219  0  0  0.143553  0  0.988844  0  0  0.114789  0.140668  0  0.989847  0
H  H38  1  0.57506738  0.35139494  0.96450713  1  0  0.125387  0  0.930555  0  0  0.141986  0  0.989233  0  0  0.143525  0  0.988861  0  0  0.11477  0.140632  0  0.989862  0
H  H39  1  0.07506301  0.14860872  0.53549412  1  0  0.125336  0  0.930615  0  0  0.141928  0  0.989333  0  0  0.143461  0  0.98896  0  0  0.11474  0.140575  0  0.989964  0
H  H40  1  0.57884377  0.70556376  0.97126907  1  0  0.127718  0  0.947204  0  0  0.140153  0  1.013976  0  0  0.142343  0  1.012543  0  0  0.112659  0.138441  0  1.015221  0
H  H41  1  0.07884832  0.79443544  0.52873736  1  0  0.127635  0  0.947172  0  0  0.140133  0  1.013925  0  0  0.142322  0  1.012492  0  0  0.112625  0.138414  0  1.015184  0
H  H42  1  0.42115390  0.29443609  0.02872640  1  0  0.127747  0  0.9472  0  0  0.140175  0  1.013982  0  0  0.142367  0  1.012544  0  0  0.112663  0.138459  0  1.015239  0
H  H43  1  0.92115367  0.20556551  0.47126779  1  0  0.127692  0  0.947183  0  0  0.140147  0  1.013951  0  0  0.142336  0  1.012519  0  0  0.112652  0.138427  0  1.015213  0
H  H44  1  0.19017220  0.58266768  0.74156747  1  0  0.116437  0  0.972316  0  0  0.130188  0  1.037964  0  0  0.132238  0  1.036985  0  0  0.105476  0.128665  0  1.038671  0
H  H45  1  0.69017431  0.91732998  0.75843214  1  0  0.116438  0  0.97231  0  0  0.1302  0  1.037951  0  0  0.132247  0  1.036969  0  0  0.105471  0.128666  0  1.038669  0
H  H46  1  0.80982438  0.41732886  0.25843197  1  0  0.116418  0  0.972305  0  0  0.130176  0  1.037963  0  0  0.132226  0  1.036981  0  0  0.10546  0.12864  0  1.03868  0
H  H47  1  0.30982659  0.08266987  0.24156975  1  0  0.116422  0  0.972306  0  0  0.130162  0  1.037984  0  0  0.13221  0  1.037004  0  0  0.105472  0.128627  0  1.038704  0
H  H48  1  0.20480933  0.57699062  0.90428887  1  0  0.130059  0  0.965303  0  0  0.144293  0  1.028717  0  0  0.146314  0  1.02795  0  0  0.110939  0.142688  0  1.029735  0
H  H49  1  0.70481402  0.92300589  0.59570933  1  0  0.130099  0  0.965289  0  0  0.144341  0  1.028689  0  0  0.146361  0  1.027923  0  0  0.110941  0.142732  0  1.029705  0
H  H50  1  0.79518833  0.42300702  0.09571201  1  0  0.130061  0  0.96534  0  0  0.144303  0  1.028761  0  0  0.146323  0  1.027992  0  0  0.110949  0.142699  0  1.029775  0
H  H51  1  0.29519014  0.07699066  0.40429194  1  0  0.130027  0  0.965301  0  0  0.144258  0  1.028722  0  0  0.146277  0  1.027959  0  0  0.110928  0.142652  0  1.029738  0
H  H52  1  0.30406598  0.44766648  0.75478850  1  0  0.130913  0  0.947497  0  0  0.147912  0  1.006292  0  0  0.149917  0  1.005441  0  0  0.110823  0.146633  0  1.00667  0
H  H53  1  0.80406570  0.05233408  0.74521472  1  0  0.131005  0  0.947463  0  0  0.147974  0  1.006273  0  0  0.149977  0  1.005427  0  0  0.110856  0.146696  0  1.006653  0
H  H54  1  0.69593493  0.55233337  0.24521248  1  0  0.130949  0  0.947433  0  0  0.147941  0  1.006256  0  0  0.149944  0  1.005407  0  0  0.110827  0.146662  0  1.006631  0
H  H55  1  0.19593413  0.94766577  0.25478901  1  0  0.130883  0  0.94754  0  0  0.147899  0  1.006319  0  0  0.149901  0  1.005474  0  0  0.110812  0.146619  0  1.006702  0
C  C56  1  0.39472452  0.67915481  0.62116779  1  0  0.684406  0  3.879501  0  0  0.635804  0  4.180913  0  0  0.668906  0  4.174417  0  0  0.210004  0.61333  0  4.184214  0
C  C57  1  0.89474061  0.82083876  0.87883234  1  0  0.684418  0  3.879463  0  0  0.635719  0  4.181028  0  0  0.668825  0  4.174535  0  0  0.209991  0.61325  0  4.18432  0
C  C58  1  0.60525259  0.32084173  0.37882799  1  0  0.68424  0  3.879925  0  0  0.635588  0  4.181403  0  0  0.668692  0  4.174913  0  0  0.209942  0.613112  0  4.184702  0
C  C59  1  0.10527219  0.17915889  0.12116853  1  0  0.684368  0  3.879506  0  0  0.635708  0  4.181023  0  0  0.668811  0  4.174533  0  0  0.209986  0.613236  0  4.184315  0
C  C60  1  0.47186023  0.64469542  0.72607026  1  0  -0.21422  0  3.491309  0  0  -0.260801  0  3.716795  0  0  -0.264804  0  3.724214  0  0  -0.06616  -0.258065  0  3.712  0
C  C61  1  0.97187031  0.85530336  0.77393341  1  0  -0.214313  0  3.491366  0  0  -0.260897  0  3.71692  0  0  -0.264893  0  3.724359  0  0  -0.06618  -0.258167  0  3.712128  0
C  C62  1  0.52812986  0.35530443  0.27392520  1  0  -0.214378  0  3.491375  0  0  -0.26098  0  3.716941  0  0  -0.264974  0  3.724372  0  0  -0.066203  -0.25825  0  3.712157  0
C  C63  1  0.02813708  0.14469649  0.22607123  1  0  -0.214233  0  3.491224  0  0  -0.260827  0  3.716719  0  0  -0.264823  0  3.724145  0  0  -0.066172  -0.258086  0  3.711918  0
C  C64  1  0.33572989  0.82101990  0.93531696  1  0  -0.204742  0  3.50703  0  0  -0.300186  0  3.744073  0  0  -0.29883  0  3.752157  0  0  -0.133274  -0.30061  0  3.73866  0
C  C65  1  0.83573037  0.67898161  0.56468300  1  0  -0.204771  0  3.507052  0  0  -0.300257  0  3.744085  0  0  -0.298902  0  3.752165  0  0  -0.133295  -0.300682  0  3.738672  0
C  C66  1  0.66426886  0.17897995  0.06467942  1  0  -0.20469  0  3.506996  0  0  -0.30012  0  3.744012  0  0  -0.298765  0  3.752096  0  0  -0.133242  -0.300554  0  3.738618  0
C  C67  1  0.16427054  0.32102044  0.43532174  1  0  -0.204648  0  3.507085  0  0  -0.300099  0  3.744099  0  0  -0.298741  0  3.752178  0  0  -0.133223  -0.300526  0  3.738687  0
C  C68  1  0.48532633  0.63192206  0.94249550  1  0  -0.214989  0  3.472419  0  0  -0.299754  0  3.697284  0  0  -0.299082  0  3.705209  0  0  -0.134687  -0.29984  0  3.692103  0
C  C69  1  0.98533008  0.86807887  0.55751013  1  0  -0.214856  0  3.472171  0  0  -0.299791  0  3.697248  0  0  -0.299125  0  3.705192  0  0  -0.134712  -0.29988  0  3.692063  0
C  C70  1  0.51467134  0.36807889  0.05750232  1  0  -0.215078  0  3.472537  0  0  -0.299806  0  3.697328  0  0  -0.299152  0  3.705283  0  0  -0.134683  -0.299887  0  3.692141  0
C  C71  1  0.01467299  0.13192318  0.44249737  1  0  -0.214851  0  3.472443  0  0  -0.299651  0  3.697358  0  0  -0.298983  0  3.705298  0  0  -0.134649  -0.299741  0  3.692176  0
C  C72  1  0.26052200  0.56008894  0.80917320  1  0  -0.227253  0  3.492287  0  0  -0.318153  0  3.723698  0  0  -0.317766  0  3.731026  0  0  -0.147525  -0.318102  0  3.718651  0
C  C73  1  0.76052156  0.93991397  0.69082904  1  0  -0.227399  0  3.49215  0  0  -0.318312  0  3.723626  0  0  -0.31792  0  3.730956  0  0  -0.147577  -0.318252  0  3.71859  0
C  C74  1  0.73947458  0.43990871  0.19082676  1  0  -0.227254  0  3.492286  0  0  -0.318185  0  3.723733  0  0  -0.317794  0  3.731061  0  0  -0.147517  -0.318121  0  3.71869  0
C  C75  1  0.23947718  0.06008808  0.30917387  1  0  -0.22716  0  3.492275  0  0  -0.318076  0  3.723694  0  0  -0.31769  0  3.731033  0  0  -0.147502  -0.318015  0  3.718658  0
N  N76  1  0.38607271  0.66465423  0.85176404  1  0  0.195489  0  3.376394  0  0  0.294479  0  3.595718  0  0  0.286969  0  3.618442  0  0  -0.226271  0.299428  0  3.580172  0
N  N77  1  0.88607916  0.83534929  0.64823975  1  0  0.195595  0  3.376212  0  0  0.294609  0  3.595558  0  0  0.287107  0  3.618259  0  0  -0.226217  0.299557  0  3.580011  0
N  N78  1  0.61392171  0.33534892  0.14823571  1  0  0.195554  0  3.376374  0  0  0.29455  0  3.595688  0  0  0.287044  0  3.618399  0  0  -0.226316  0.299494  0  3.58014  0
N  N79  1  0.11392391  0.16465166  0.35176632  1  0  0.195438  0  3.37646  0  0  0.294455  0  3.595744  0  0  0.286946  0  3.618463  0  0  -0.226303  0.299403  0  3.580196  0
O  O80  1  0.28705407  0.62473196  0.27193952  1  0  -0.866902  0  2.081663  0  0  -0.768953  0  2.398558  0  0  -0.797521  0  2.369788  0  0  -0.391466  -0.748442  0  2.41769  0
O  O81  1  0.78705846  0.87526682  0.22807215  1  0  -0.866883  0  2.081871  0  0  -0.768962  0  2.398819  0  0  -0.797532  0  2.370044  0  0  -0.391503  -0.748446  0  2.417938  0
O  O82  1  0.71294900  0.37526568  0.72805860  1  0  -0.866976  0  2.081647  0  0  -0.769036  0  2.398571  0  0  -0.797597  0  2.369768  0  0  -0.391475  -0.748514  0  2.41768  0
O  O83  1  0.21294137  0.12473523  0.77192985  1  0  -0.866932  0  2.081863  0  0  -0.768992  0  2.398788  0  0  -0.797572  0  2.370026  0  0  -0.391496  -0.748474  0  2.417906  0
O  O84  1  0.08010334  0.72671764  0.18954901  1  0  -0.866516  0  2.020678  0  0  -0.769263  0  2.319407  0  0  -0.797826  0  2.293857  0  0  -0.38935  -0.749159  0  2.336639  0
O  O85  1  0.58010861  0.77329848  0.31047102  1  0  -0.866459  0  2.020634  0  0  -0.76923  0  2.319464  0  0  -0.797799  0  2.293915  0  0  -0.389285  -0.749126  0  2.336694  0
O  O86  1  0.91989649  0.27328001  0.81045278  1  0  -0.866576  0  2.02055  0  0  -0.769327  0  2.319258  0  0  -0.79789  0  2.293701  0  0  -0.389345  -0.749219  0  2.336488  0
O  O87  1  0.41989014  0.22670358  0.68953006  1  0  -0.866393  0  2.020617  0  0  -0.769206  0  2.319456  0  0  -0.797774  0  2.293902  0  0  -0.38927  -0.749104  0  2.33669  0
O  O88  1  0.17501201  0.46578615  0.03420232  1  0  -0.875452  0  2.089495  0  0  -0.773546  0  2.39811  0  0  -0.802637  0  2.371399  0  0  -0.38745  -0.752987  0  2.4161  0
O  O89  1  0.67503217  0.03422852  0.46580641  1  0  -0.875435  0  2.089423  0  0  -0.773511  0  2.398096  0  0  -0.802578  0  2.371326  0  0  -0.387423  -0.752955  0  2.416084  0
O  O90  1  0.82499106  0.53421260  0.96579631  1  0  -0.875524  0  2.089472  0  0  -0.773635  0  2.398116  0  0  -0.802715  0  2.371378  0  0  -0.38752  -0.753101  0  2.416163  0
O  O91  1  0.32496442  0.96577463  0.53419151  1  0  -0.875454  0  2.089371  0  0  -0.773518  0  2.398044  0  0  -0.802568  0  2.37124  0  0  -0.387423  -0.752961  0  2.416034  0
O  O92  1  0.48674741  0.69531346  0.54037701  1  0  -0.678781  0  2.034427  0  0  -0.606958  0  2.312343  0  0  -0.63652  0  2.298533  0  0  -0.32961  -0.5859  0  2.321363  0
O  O93  1  0.98676823  0.80469849  0.95962730  1  0  -0.678735  0  2.034465  0  0  -0.606869  0  2.31244  0  0  -0.636431  0  2.298626  0  0  -0.329567  -0.585817  0  2.321479  0
O  O94  1  0.51323728  0.30469962  0.45962091  1  0  -0.67865  0  2.034771  0  0  -0.606779  0  2.312717  0  0  -0.636339  0  2.298903  0  0  -0.329512  -0.585719  0  2.321732  0
O  O95  1  0.01324566  0.19530356  0.04037745  1  0  -0.678733  0  2.034538  0  0  -0.606856  0  2.312419  0  0  -0.636415  0  2.298602  0  0  -0.329545  -0.58582  0  2.321499  0
O  O96  1  0.26056128  0.68669949  0.61516731  1  0  -0.615508  0  1.949254  0  0  -0.565662  0  2.171655  0  0  -0.588442  0  2.163572  0  0  -0.315399  -0.549798  0  2.17724  0
O  O97  1  0.76057095  0.81327586  0.88482767  1  0  -0.615564  0  1.949064  0  0  -0.5657  0  2.171542  0  0  -0.588452  0  2.163386  0  0  -0.315401  -0.549827  0  2.177119  0
O  O98  1  0.73943205  0.31327611  0.38481876  1  0  -0.615474  0  1.949039  0  0  -0.565631  0  2.171496  0  0  -0.588397  0  2.163365  0  0  -0.315406  -0.54976  0  2.177073  0
O  O99  1  0.23943861  0.18671737  0.11517666  1  0  -0.615533  0  1.9492  0  0  -0.565689  0  2.171683  0  0  -0.588448  0  2.163547  0  0  -0.315396  -0.549817  0  2.177263  0
