# generated using pymatgen
data_ZnGeP3H15C6(NO6)2
_symmetry_space_group_name_H-M   'P 1'
_cell_length_a   9.28920997
_cell_length_b   10.44009425
_cell_length_c   9.74251894
_cell_angle_alpha   105.56368555
_cell_angle_beta   96.23316606
_cell_angle_gamma   120.35107547
_symmetry_Int_Tables_number   1
_chemical_formula_structural   ZnGeP3H15C6(NO6)2
_chemical_formula_sum   'Zn2 Ge2 P6 H30 C12 N4 O24'
_cell_volume   750.80314342
_cell_formula_units_Z   2
loop_
 _symmetry_equiv_pos_site_id
 _symmetry_equiv_pos_as_xyz
  1  'x, y, z'
loop_
 _atom_site_type_symbol
 _atom_site_label
 _atom_site_symmetry_multiplicity
 _atom_site_fract_x
 _atom_site_fract_y
 _atom_site_fract_z
 _atom_site_occupancy
 _atom_site_pbe_bader_spin_density
 _atom_site_pbe_cm5_charge
 _atom_site_pbe_ddec_charge
 _atom_site_pbe_ddec_spin_density
 _atom_site_pbe_ddec_sum_bond_order
 _atom_site_pbe_magmom
Zn  Zn0  1  0.20898722  0.73938651  0.32771575  1  0  0.74361  1.094445  0  2.141559  0
Zn  Zn1  1  0.79101392  0.26061641  0.67228715  1  0  0.743601  1.094403  0  2.141631  0
Ge  Ge2  1  0.86622866  0.04675778  0.12811373  1  0  0.750028  1.715605  0  3.524538  0
Ge  Ge3  1  0.13376420  0.95324361  0.87187850  1  0  0.750028  1.715571  0  3.524662  0
P  P4  1  0.20060516  0.38986594  0.22940937  1  0  0.433955  1.51186  0  5.473343  0
P  P5  1  0.79939369  0.61013462  0.77058743  1  0  0.433966  1.511842  0  5.473641  0
P  P6  1  0.34345645  0.01020195  0.64010115  1  0  0.448901  1.551852  0  5.429495  0
P  P7  1  0.65654112  0.98979625  0.35989377  1  0  0.448833  1.551727  0  5.429583  0
P  P8  1  0.17236287  0.99266287  0.19684396  1  0  0.468817  1.541482  0  5.432256  0
P  P9  1  0.82763947  0.00734601  0.80315469  1  0  0.468784  1.541569  0  5.432389  0
H  H10  1  0.26778664  0.10496293  0.48976024  1  0  0.312791  0.401902  0  0.933464  0
H  H11  1  0.73221369  0.89503433  0.51023370  1  0  0.312834  0.401995  0  0.933346  0
H  H12  1  0.29161389  0.29665249  0.36740213  1  0  0.30908  0.387437  0  0.958892  0
H  H13  1  0.70837332  0.70334267  0.63259171  1  0  0.309059  0.387415  0  0.958924  0
H  H14  1  0.44922522  0.34339195  0.15133861  1  0  0.314735  0.269445  0  0.962714  0
H  H15  1  0.55077240  0.65660263  0.84866347  1  0  0.31478  0.269502  0  0.96268  0
H  H16  1  0.11499523  0.45892310  0.53326372  1  0  0.110777  0.09993  0  1.006481  0
H  H17  1  0.88500382  0.54108195  0.46674059  1  0  0.110764  0.099848  0  1.006599  0
H  H18  1  0.08310090  0.59533303  0.65829608  1  0  0.108479  0.100598  0  1.037338  0
H  H19  1  0.91690600  0.40468054  0.34171577  1  0  0.108459  0.100579  0  1.037347  0
H  H20  1  0.41354027  0.66569438  0.63052563  1  0  0.119415  0.121058  0  0.979234  0
H  H21  1  0.58646211  0.33430288  0.36947574  1  0  0.11939  0.121019  0  0.979254  0
H  H22  1  0.38300581  0.77286809  0.78664974  1  0  0.116033  0.102745  0  0.97084  0
H  H23  1  0.61700263  0.22713422  0.21335178  1  0  0.116045  0.102814  0  0.970765  0
H  H24  1  0.41392756  0.73105993  0.01860975  1  0  0.117478  0.113884  0  0.980966  0
H  H25  1  0.58607371  0.26893726  0.98139044  1  0  0.117506  0.113974  0  0.980866  0
H  H26  1  0.38464383  0.54581965  0.00941698  1  0  0.113633  0.102668  0  1.005412  0
H  H27  1  0.61536087  0.45418216  0.99059627  1  0  0.113626  0.102696  0  1.005486  0
H  H28  1  0.08773677  0.43506662  0.95038690  1  0  0.111026  0.101329  0  1.018533  0
H  H29  1  0.91226549  0.56493054  0.04961854  1  0  0.111025  0.101317  0  1.018481  0
H  H30  1  0.10992842  0.60133800  0.91344323  1  0  0.110086  0.099366  0  1.007106  0
H  H31  1  0.89007149  0.39865893  0.08656495  1  0  0.11009  0.09937  0  1.007169  0
H  H32  1  0.08717126  0.23870353  0.57858065  1  0  0.109924  0.099757  0  0.986654  0
H  H33  1  0.91282858  0.76130066  0.42141221  1  0  0.109956  0.099814  0  0.986669  0
H  H34  1  0.11618942  0.24748482  0.76454233  1  0  0.111291  0.106864  0  1.028708  0
H  H35  1  0.88380480  0.75251316  0.23545111  1  0  0.111301  0.10687  0  1.028727  0
H  H36  1  0.41529753  0.39015005  0.79788583  1  0  0.116176  0.100529  0  0.991911  0
H  H37  1  0.58470241  0.60984691  0.20212133  1  0  0.116211  0.100544  0  0.991989  0
H  H38  1  0.39302235  0.42201430  0.62888330  1  0  0.117978  0.111208  0  0.997667  0
H  H39  1  0.60698310  0.57797861  0.37111509  1  0  0.117989  0.111226  0  0.997697  0
C  C40  1  0.14766980  0.53192279  0.65015775  1  0  -0.074954  -0.098561  0  3.817406  0
C  C41  1  0.85233018  0.46807637  0.34985520  1  0  -0.074948  -0.098416  0  3.817686  0
C  C42  1  0.34682458  0.65359390  0.71658634  1  0  -0.05838  -0.07015  0  3.717449  0
C  C43  1  0.65319170  0.34641108  0.28342511  1  0  -0.058387  -0.070172  0  3.717189  0
C  C44  1  0.34842312  0.60433901  0.94829102  1  0  -0.058219  -0.074536  0  3.719361  0
C  C45  1  0.65158015  0.39566180  0.05170945  1  0  -0.058236  -0.074688  0  3.719394  0
C  C46  1  0.14885450  0.51660200  0.89310576  1  0  -0.072574  -0.095556  0  3.816836  0
C  C47  1  0.85114174  0.48338797  0.10689069  1  0  -0.072628  -0.09558  0  3.816898  0
C  C48  1  0.15093748  0.31928848  0.69595119  1  0  -0.077788  -0.097969  0  3.846001  0
C  C49  1  0.84905841  0.68071069  0.30404690  1  0  -0.077894  -0.098084  0  3.845873  0
C  C50  1  0.34977105  0.42351677  0.72886641  1  0  -0.063578  -0.084384  0  3.755805  0
C  C51  1  0.65023369  0.57648871  0.27113664  1  0  -0.063634  -0.084395  0  3.756098  0
N  N52  1  0.41313499  0.59409210  0.81423932  1  0  -0.353038  -0.016742  0  3.552225  0
N  N53  1  0.58687381  0.40592283  0.18576905  1  0  -0.353005  -0.016725  0  3.551881  0
N  N54  1  0.08138080  0.42089339  0.73027260  1  0  -0.332029  -0.13668  0  3.456511  0
N  N55  1  0.91863526  0.57910708  0.26973236  1  0  -0.33191  -0.13666  0  3.455946  0
O  O56  1  0.21728643  0.54587342  0.25747832  1  0  -0.366696  -0.768569  0  2.312268  0
O  O57  1  0.78271406  0.45412613  0.74251735  1  0  -0.366692  -0.768548  0  2.312287  0
O  O58  1  0.28908080  0.39595807  0.38254726  1  0  -0.38833  -0.696527  0  2.259574  0
O  O59  1  0.71091005  0.60404186  0.61745252  1  0  -0.388326  -0.696481  0  2.25974  0
O  O60  1  0.99141496  0.25734937  0.19626248  1  0  -0.279585  -0.757873  0  2.3394  0
O  O61  1  0.00857835  0.74265454  0.80372131  1  0  -0.279572  -0.757859  0  2.339528  0
O  O62  1  0.26124423  0.33175141  0.10482975  1  0  -0.371824  -0.792848  0  2.180052  0
O  O63  1  0.73875604  0.66824580  0.89516623  1  0  -0.371832  -0.792851  0  2.180189  0
O  O64  1  0.24421224  0.83190265  0.54559572  1  0  -0.371073  -0.806453  0  2.28325  0
O  O65  1  0.75579545  0.16809840  0.45440842  1  0  -0.37109  -0.806431  0  2.283149  0
O  O66  1  0.31455809  0.02576707  0.80352318  1  0  -0.276748  -0.71964  0  2.277798  0
O  O67  1  0.68543916  0.97423453  0.19647375  1  0  -0.27668  -0.719649  0  2.277855  0
O  O68  1  0.53668372  0.11032897  0.66840976  1  0  -0.369126  -0.793841  0  2.309378  0
O  O69  1  0.46332023  0.88967887  0.33158877  1  0  -0.369116  -0.793811  0  2.309446  0
O  O70  1  0.24851143  0.08577394  0.58484263  1  0  -0.386259  -0.702214  0  2.245464  0
O  O71  1  0.75148616  0.91422428  0.41515128  1  0  -0.386266  -0.702208  0  2.245413  0
O  O72  1  0.14980671  0.83877609  0.19185720  1  0  -0.35187  -0.770944  0  2.320788  0
O  O73  1  0.85018559  0.16121469  0.80814210  1  0  -0.351797  -0.770904  0  2.321115  0
O  O74  1  0.28667063  0.13880944  0.34022772  1  0  -0.34473  -0.751466  0  2.191546  0
O  O75  1  0.71333024  0.86119258  0.65976154  1  0  -0.344818  -0.751605  0  2.191489  0
O  O76  1  0.24802161  0.03745143  0.06460183  1  0  -0.272  -0.728472  0  2.323654  0
O  O77  1  0.75197252  0.96253850  0.93538922  1  0  -0.271964  -0.728484  0  2.323572  0
O  O78  1  0.98086173  0.95876761  0.15677956  1  0  -0.275434  -0.770531  0  2.420991  0
O  O79  1  0.01913734  0.04123747  0.84322374  1  0  -0.275426  -0.770551  0  2.421019  0
