# generated using pymatgen
data_CuH7CN2ClO6
_symmetry_space_group_name_H-M   'P 1'
_cell_length_a   7.43826511
_cell_length_b   7.74375677
_cell_length_c   12.33496489
_cell_angle_alpha   90.00000517
_cell_angle_beta   90.00519493
_cell_angle_gamma   89.99998997
_symmetry_Int_Tables_number   1
_chemical_formula_structural   CuH7CN2ClO6
_chemical_formula_sum   'Cu4 H28 C4 N8 Cl4 O24'
_cell_volume   710.49540382
_cell_formula_units_Z   4
loop_
 _symmetry_equiv_pos_site_id
 _symmetry_equiv_pos_as_xyz
  1  'x, y, z'
loop_
 _atom_site_type_symbol
 _atom_site_label
 _atom_site_symmetry_multiplicity
 _atom_site_fract_x
 _atom_site_fract_y
 _atom_site_fract_z
 _atom_site_occupancy
 _atom_site_hle17_ddec_charge
 _atom_site_hle17_ddec_spin_density
 _atom_site_hle17_ddec_sum_bond_order
 _atom_site_hle17_magmom
 _atom_site_hse06_10hf_ddec_charge
 _atom_site_hse06_10hf_ddec_spin_density
 _atom_site_hse06_10hf_ddec_sum_bond_order
 _atom_site_hse06_10hf_magmom
 _atom_site_hse06_ddec_charge
 _atom_site_hse06_ddec_spin_density
 _atom_site_hse06_ddec_sum_bond_order
 _atom_site_hse06_magmom
 _atom_site_pbe_cm5_charge
 _atom_site_pbe_ddec_charge
 _atom_site_pbe_ddec_spin_density
 _atom_site_pbe_ddec_sum_bond_order
 _atom_site_pbe_magmom
Cu  Cu0  1  0.17219330  0.24999882  0.35760039  1  0.926439  0.714031  1.695138  0.513  0.920089  0.798841  2.074199  0.629  1.008476  0.867433  2.006737  0.71  0.713814  0.864831  0.746185  2.120655  0.575
Cu  Cu1  1  0.32788132  0.74999906  0.85776499  1  0.926729  -0.714094  1.694726  -0.513  0.920688  -0.798971  2.073461  -0.629  1.008876  -0.867631  2.00633  -0.71  0.714004  0.865471  -0.746248  2.119878  -0.575
Cu  Cu2  1  0.67214049  0.25000006  0.14219718  1  0.92606  0.714219  1.69543  0.513  0.919969  0.799077  2.074484  0.629  1.008269  0.867686  2.007035  0.71  0.713959  0.864864  0.746368  2.120679  0.575
Cu  Cu3  1  0.82783255  0.75000029  0.64232530  1  0.926161  -0.714098  1.695275  -0.513  0.919954  -0.79891  2.074174  -0.629  1.008225  -0.867511  2.006907  -0.71  0.713689  0.864774  -0.746278  2.120517  -0.575
H  H4  1  0.07698137  0.55947653  0.31936988  1  0.346304  -0.000852  0.888417  -0.002  0.33301  4.6e-05  0.952504  0.0  0.340579  -8.6e-05  0.947246  -0.001  0.289804  0.327689  0.000149  0.956411  0.0
H  H5  1  0.42313592  0.44054589  0.81961994  1  0.346097  0.00086  0.888932  0.002  0.332945  -4.4e-05  0.952783  0.0  0.340491  8.7e-05  0.947552  0.001  0.289789  0.32763  -0.000147  0.956682  0.0
H  H6  1  0.57679580  0.94058736  0.18043223  1  0.34596  -0.000861  0.889133  -0.002  0.332805  4.5e-05  0.952959  0.0  0.340366  -8.6e-05  0.9477  -0.001  0.289717  0.327486  0.000149  0.95687  0.0
H  H7  1  0.92304049  0.05944270  0.68065876  1  0.346085  0.00086  0.888557  0.002  0.332844  -4.7e-05  0.9526  0.0  0.340394  8.5e-05  0.947362  0.001  0.289744  0.32753  -0.00015  0.956491  0.0
H  H8  1  0.92304045  0.44055746  0.68065877  1  0.346107  0.000856  0.888539  0.002  0.332859  -4.7e-05  0.952594  0.0  0.340408  8.5e-05  0.947357  0.001  0.289741  0.327544  -0.00015  0.956482  0.0
H  H9  1  0.57679583  0.55941320  0.18043222  1  0.345965  -0.000857  0.889151  -0.002  0.332807  4.6e-05  0.952984  0.0  0.340368  -8.6e-05  0.947726  -0.001  0.289712  0.327486  0.000149  0.956895  0.0
H  H10  1  0.42313595  0.05945437  0.81961992  1  0.346146  0.000858  0.888907  0.002  0.333  -4.4e-05  0.952741  0.0  0.340545  8.7e-05  0.947509  0.001  0.289809  0.327679  -0.000147  0.956644  0.0
H  H11  1  0.07698134  0.94052413  0.31936989  1  0.346289  -0.000855  0.888422  -0.002  0.332996  4.6e-05  0.952512  0.0  0.340566  -8.6e-05  0.947253  -0.001  0.289796  0.327677  0.000149  0.956417  0.0
H  H12  1  0.29542372  0.55583099  0.34097381  1  0.347358  -0.000304  0.889747  -0.001  0.334807  0.000462  0.950388  0.0  0.341771  0.00024  0.946045  0.0  0.288761  0.329871  0.000618  0.95371  0.0
H  H13  1  0.20466858  0.44417851  0.84113327  1  0.34698  0.000307  0.88966  0.001  0.334541  -0.000462  0.950383  0.0  0.341488  -0.00024  0.946072  0.0  0.288618  0.329601  -0.000617  0.953689  0.0
H  H14  1  0.79527121  0.94416958  0.15896673  1  0.346658  -0.000309  0.890123  -0.001  0.334282  0.000462  0.950744  0.0  0.341249  0.00024  0.946413  0.0  0.288509  0.329343  0.000617  0.954059  0.0
H  H15  1  0.70460083  0.05579074  0.65903131  1  0.347221  0.000309  0.889891  0.001  0.334751  -0.000462  0.950499  0.0  0.341685  -0.00024  0.946194  0.0  0.28872  0.329811  -0.000617  0.95382  0.0
H  H16  1  0.70459945  0.44420945  0.65903132  1  0.34724  0.000308  0.889858  0.001  0.334772  -0.000462  0.950462  0.0  0.341706  -0.00024  0.946157  0.0  0.288718  0.329829  -0.000617  0.953784  0.0
H  H17  1  0.79527124  0.55583223  0.15896672  1  0.346652  -0.000312  0.890132  -0.001  0.334277  0.000462  0.950757  0.0  0.341243  0.00024  0.946426  0.0  0.2885  0.329337  0.000617  0.954071  0.0
H  H18  1  0.20466727  0.05582179  0.84113245  1  0.346982  0.000307  0.889642  0.001  0.334547  -0.000462  0.950362  0.0  0.341494  -0.00024  0.946051  0.0  0.288618  0.329611  -0.000617  0.953667  0.0
H  H19  1  0.29542368  0.94416834  0.34097463  1  0.347338  -0.000305  0.889797  -0.001  0.334819  0.000462  0.950395  0.0  0.341783  0.00024  0.946051  0.0  0.288763  0.329879  0.000618  0.953719  0.0
H  H20  1  0.15389040  0.54698388  0.44425195  1  0.348873  -0.000157  0.889015  0.0  0.336789  0.000534  0.950458  0.0  0.34468  0.000363  0.945372  0.0  0.290725  0.331196  0.000648  0.954359  0.001
H  H21  1  0.34611926  0.45304759  0.94446131  1  0.348509  0.000159  0.889271  0.0  0.33648  -0.000534  0.950688  0.0  0.344378  -0.000364  0.945586  0.0  0.290608  0.330881  -0.000648  0.954596  -0.001
H  H22  1  0.65388909  0.95288370  0.05559896  1  0.348688  -0.000159  0.889122  0.0  0.336614  0.000534  0.950612  0.0  0.344503  0.000364  0.945532  0.0  0.290611  0.33102  0.000648  0.954508  0.001
H  H23  1  0.84617314  0.04708694  0.55576290  1  0.348962  0.000165  0.888774  0.0  0.336877  -0.000533  0.950278  0.0  0.34477  -0.000363  0.945186  0.0  0.290736  0.331284  -0.000647  0.954181  -0.001
H  H24  1  0.84617310  0.45291192  0.55576211  1  0.349023  0.00016  0.888688  0.0  0.336927  -0.000534  0.950185  0.0  0.344819  -0.000363  0.945095  0.0  0.290778  0.331336  -0.000647  0.954088  -0.001
H  H25  1  0.65388912  0.54711812  0.05559895  1  0.348685  -0.00016  0.889126  0.0  0.336624  0.000534  0.950608  0.0  0.344513  0.000364  0.945527  0.0  0.290597  0.331029  0.000648  0.954504  0.001
H  H26  1  0.34611929  0.04695270  0.94446130  1  0.348524  0.000158  0.889247  0.0  0.336499  -0.000534  0.950661  0.0  0.344398  -0.000364  0.945558  0.0  0.290617  0.330903  -0.000648  0.954568  -0.001
H  H27  1  0.15389036  0.95301678  0.44425196  1  0.348862  -0.00016  0.889022  0.0  0.336783  0.000534  0.950458  0.0  0.344674  0.000363  0.945373  0.0  0.290719  0.33119  0.000648  0.95436  0.001
H  H28  1  0.16923532  0.25000010  0.12070381  1  0.046361  0.006819  0.931564  0.009  0.049357  0.004614  1.006572  0.006  0.046551  0.002959  1.003124  0.004  0.121712  0.050994  0.005869  1.009227  0.008
H  H29  1  0.33079165  0.75000033  0.62092208  1  0.046235  -0.006827  0.930963  -0.009  0.049229  -0.004622  1.006028  -0.006  0.046418  -0.002962  1.002526  -0.004  0.121781  0.050843  -0.005878  1.008736  -0.008
H  H30  1  0.66925974  0.25000137  0.37906198  1  0.046183  0.00683  0.931027  0.009  0.049155  0.00462  1.006161  0.006  0.04636  0.002962  1.002645  0.004  0.121678  0.050773  0.005876  1.008874  0.008
H  H31  1  0.83088060  0.75000031  0.87916189  1  0.046721  -0.006814  0.93108  -0.009  0.049707  -0.004616  1.006113  -0.006  0.046891  -0.002959  1.00269  -0.004  0.121786  0.051343  -0.005869  1.00875  -0.008
C  C32  1  0.31328523  0.24999880  0.14119342  1  0.581065  -0.010682  3.84013  -0.017  0.511103  -0.00164  4.166933  -0.006  0.550692  -0.002386  4.161863  -0.006  0.140943  0.484049  -0.000802  4.169831  -0.006
C  C33  1  0.18670448  0.75000034  0.64133894  1  0.581777  0.010696  3.84034  0.017  0.511716  0.001647  4.167512  0.006  0.551358  0.002388  4.162413  0.006  0.14089  0.484676  0.000808  4.170353  0.006
C  C34  1  0.81332944  0.25000006  0.35861431  1  0.58172  -0.010703  3.839928  -0.017  0.511614  -0.001645  4.167042  -0.006  0.551236  -0.002388  4.161982  -0.006  0.140896  0.484574  -0.000804  4.16989  -0.006
C  C35  1  0.68679170  0.75000032  0.85874604  1  0.580487  0.010679  3.839781  0.017  0.510259  0.001647  4.16696  0.006  0.549848  0.002385  4.161903  0.006  0.140478  0.483245  0.000804  4.169796  0.006
N  N36  1  0.17537747  0.50501200  0.36641040  1  -0.85548  0.083485  2.950381  0.099  -0.854903  0.053147  3.201812  0.064  -0.888307  0.04329  3.186854  0.055  -0.797315  -0.834005  0.057595  3.213585  0.067
N  N37  1  0.32468503  0.49500913  0.86661291  1  -0.854723  -0.083448  2.950993  -0.099  -0.854563  -0.053117  3.202219  -0.064  -0.887941  -0.043268  3.18733  -0.055  -0.797172  -0.8337  -0.057554  3.213989  -0.067
N  N38  1  0.67528028  0.99497051  0.13342790  1  -0.85419  0.083505  2.951021  0.099  -0.854061  0.053158  3.202088  0.064  -0.887444  0.043303  3.187112  0.055  -0.796975  -0.833195  0.057605  3.213831  0.067
N  N39  1  0.82466187  0.00501821  0.63358175  1  -0.855118  -0.083515  2.950554  -0.099  -0.854663  -0.053145  3.201587  -0.064  -0.88806  -0.043289  3.186714  -0.055  -0.797142  -0.833788  -0.057593  3.213337  -0.067
N  N40  1  0.82466182  0.49498195  0.63358176  1  -0.855213  -0.083496  2.950443  -0.099  -0.854739  -0.053144  3.201531  -0.064  -0.888135  -0.043289  3.186656  -0.055  -0.797176  -0.83386  -0.057592  3.21328  -0.067
N  N41  1  0.67528033  0.50503131  0.13342789  1  -0.854189  0.083499  2.951027  0.099  -0.854081  0.053155  3.202073  0.064  -0.887465  0.043302  3.187097  0.055  -0.796952  -0.833213  0.057603  3.213816  0.067
N  N42  1  0.32468642  0.00499115  0.86661209  1  -0.854795  -0.083446  2.950935  -0.099  -0.854634  -0.053118  3.202135  -0.064  -0.888011  -0.043269  3.187244  -0.055  -0.797201  -0.833769  -0.057553  3.213909  -0.067
N  N43  1  0.17537877  0.99498865  0.36641041  1  -0.855455  0.083501  2.95048  0.099  -0.854913  0.053148  3.201876  0.064  -0.888317  0.043292  3.186916  0.055  -0.797321  -0.834018  0.057598  3.213651  0.067
Cl  Cl44  1  0.35191375  0.24999883  0.60553711  1  1.381151  -0.000148  6.203993  0.0  1.312145  -3e-05  6.77487  0.0  1.364115  -7e-05  6.753251  0.0  0.730528  1.276555  3.4e-05  6.788281  0.0
Cl  Cl45  1  0.14796305  0.75000160  0.10556011  1  1.379621  0.000148  6.205544  0.0  1.310915  2.9e-05  6.776087  0.0  1.363155  7.2e-05  6.754082  0.0  0.730049  1.275195  -3.6e-05  6.789643  0.0
Cl  Cl46  1  0.85196601  0.24999881  0.89446043  1  1.379958  -0.00015  6.205149  0.0  1.311123  -2.9e-05  6.775868  0.0  1.363139  -7.2e-05  6.754236  0.0  0.730037  1.275529  3.4e-05  6.789267  0.0
Cl  Cl47  1  0.64805295  0.75000158  0.39443560  1  1.380598  0.00015  6.203946  0.0  1.311257  3e-05  6.77543  0.0  1.363396  7.2e-05  6.753598  0.0  0.730216  1.27566  -3.4e-05  6.788838  0.0
O  O48  1  0.36351673  0.24999880  0.24001794  1  -0.581978  0.074793  2.094207  0.103  -0.554539  0.051333  2.390747  0.077  -0.599537  0.038753  2.3818  0.061  -0.323857  -0.52384  0.060403  2.396795  0.087
O  O49  1  0.13645152  0.75000165  0.74017125  1  -0.582297  -0.074953  2.094145  -0.103  -0.554958  -0.051426  2.390644  -0.077  -0.599954  -0.038806  2.381735  -0.062  -0.323745  -0.52426  -0.060512  2.396678  -0.087
O  O50  1  0.86353669  0.24999876  0.25977551  1  -0.582168  0.074873  2.09453  0.103  -0.554826  0.051369  2.391173  0.077  -0.599834  0.038774  2.382223  0.061  -0.323806  -0.524097  0.060443  2.397111  0.087
O  O51  1  0.63647282  0.75000161  0.75993206  1  -0.581542  -0.074843  2.093805  -0.103  -0.554154  -0.051365  2.390419  -0.077  -0.599131  -0.038764  2.381509  -0.061  -0.323366  -0.523416  -0.060442  2.396332  -0.087
O  O52  1  0.42546548  0.24999620  0.06308602  1  -0.544815  0.097963  2.032187  0.13  -0.505501  0.067271  2.294509  0.097  -0.547776  0.051486  2.288076  0.079  -0.309256  -0.477366  0.075906  2.299067  0.106
O  O53  1  0.07454209  0.75000164  0.56323107  1  -0.545059  -0.098051  2.032264  -0.13  -0.505942  -0.067315  2.294768  -0.097  -0.548237  -0.051502  2.288375  -0.079  -0.309366  -0.477791  -0.075961  2.299309  -0.106
O  O54  1  0.92551065  0.24999877  0.43671164  1  -0.545065  0.098037  2.031749  0.13  -0.505636  0.067305  2.294009  0.097  -0.547958  0.051501  2.287626  0.079  -0.309188  -0.477476  0.075949  2.298556  0.106
O  O55  1  0.57466389  0.75000163  0.93688020  1  -0.545341  -0.097969  2.032195  -0.13  -0.505619  -0.067295  2.294146  -0.097  -0.547887  -0.051492  2.287778  -0.079  -0.309312  -0.477498  -0.075928  2.298698  -0.106
O  O56  1  0.50054981  0.25000011  0.68515551  1  -0.572726  -0.000342  1.875137  0.0  -0.529855  -0.000316  2.108854  0.0  -0.545228  -0.000184  2.094727  0.0  -0.308435  -0.518889  -0.000399  2.118215  0.0
O  O57  1  0.99942429  0.75000154  0.18520912  1  -0.572519  0.000349  1.876634  0.0  -0.5291  0.000315  2.109695  0.0  -0.544786  0.000185  2.095721  0.0  -0.308025  -0.51811  0.0004  2.119102  0.0
O  O58  1  0.00059350  0.24999887  0.81486574  1  -0.572236  -0.000355  1.875898  0.0  -0.529122  -0.000317  2.109423  0.0  -0.544591  -0.000186  2.095322  0.0  -0.308006  -0.51819  -0.000401  2.118843  0.0
O  O59  1  0.49938193  0.75000159  0.31484556  1  -0.57257  0.000349  1.875462  0.0  -0.529341  0.000318  2.108849  0.0  -0.54495  0.000186  2.094819  0.0  -0.308223  -0.518385  0.000402  2.118233  0.0
O  O60  1  0.24287744  0.09621560  0.62150255  1  -0.532755  -1e-06  1.892642  0.0  -0.492285  -3e-05  2.138362  0.0  -0.509759  -1.1e-05  2.127157  0.0  -0.299998  -0.480224  -5.4e-05  2.14575  0.0
O  O61  1  0.25702192  0.90378612  0.12149910  1  -0.532135  -1e-06  1.892368  0.0  -0.492084  3e-05  2.138382  0.0  -0.509616  1e-05  2.12711  0.0  -0.299886  -0.479947  5.3e-05  2.14577  0.0
O  O62  1  0.74292862  0.40378335  0.87848658  1  -0.532391  2e-06  1.892793  0.0  -0.492047  -3e-05  2.138616  0.0  -0.509513  -9e-06  2.127384  0.0  -0.299827  -0.480001  -5.3e-05  2.14601  0.0
O  O63  1  0.75707853  0.59620929  0.37844988  1  -0.532667  3e-06  1.892504  0.0  -0.492198  3.1e-05  2.13839  0.0  -0.509681  1e-05  2.127115  0.0  -0.299935  -0.480138  5.4e-05  2.145781  0.0
O  O64  1  0.75707850  0.90379127  0.37844989  1  -0.532597  2e-06  1.892614  0.0  -0.492133  3.1e-05  2.138512  0.0  -0.509624  1.1e-05  2.127244  0.0  -0.299885  -0.480066  5.4e-05  2.145895  0.0
O  O65  1  0.74292865  0.09621687  0.87848657  1  -0.532413  9e-06  1.892844  0.0  -0.492073  -3e-05  2.138666  0.0  -0.509539  -9e-06  2.127434  0.0  -0.299839  -0.480027  -5.3e-05  2.146062  0.0
O  O66  1  0.25702598  0.59621577  0.12149909  1  -0.532119  -2e-06  1.892319  0.0  -0.492076  3e-05  2.138326  0.0  -0.509602  1e-05  2.127049  0.0  -0.299869  -0.479948  5.3e-05  2.145721  0.0
O  O67  1  0.24287607  0.40378466  0.62150256  1  -0.532854  -5e-06  1.892605  0.0  -0.492275  -3e-05  2.13823  0.0  -0.509741  -1.1e-05  2.127017  0.0  -0.299994  -0.480223  -5.4e-05  2.145623  0.0
O  O68  1  0.42813030  0.24999881  0.49610151  1  -0.544001  0.002222  1.869701  0.003  -0.517563  0.002328  2.12437  0.003  -0.534996  0.001494  2.107199  0.002  -0.309636  -0.505342  0.003154  2.135787  0.004
O  O69  1  0.07165185  0.75000167  0.99614507  1  -0.543734  -0.002223  1.870421  -0.003  -0.517271  -0.002331  2.124856  -0.003  -0.534657  -0.001498  2.107573  -0.002  -0.309409  -0.505071  -0.003156  2.136322  -0.004
O  O70  1  0.92818445  0.24999874  0.00390140  1  -0.543616  0.002214  1.870247  0.003  -0.517341  0.002324  2.124994  0.003  -0.534758  0.001492  2.107802  0.002  -0.309428  -0.50514  0.003151  2.136394  0.004
O  O71  1  0.57189824  0.75000159  0.50388417  1  -0.544014  -0.002227  1.870027  -0.003  -0.517436  -0.002329  2.124705  -0.003  -0.534841  -0.001495  2.107445  -0.002  -0.309625  -0.505225  -0.003156  2.136128  -0.004
