# generated using pymatgen
data_ZnH12C15N4O5
_symmetry_space_group_name_H-M   'P 1'
_cell_length_a   8.94178817
_cell_length_b   9.94803620
_cell_length_c   11.46307157
_cell_angle_alpha   80.32384824
_cell_angle_beta   73.63585141
_cell_angle_gamma   65.24120944
_symmetry_Int_Tables_number   1
_chemical_formula_structural   ZnH12C15N4O5
_chemical_formula_sum   'Zn2 H24 C30 N8 O10'
_cell_volume   886.96859389
_cell_formula_units_Z   2
loop_
 _symmetry_equiv_pos_site_id
 _symmetry_equiv_pos_as_xyz
  1  'x, y, z'
loop_
 _atom_site_type_symbol
 _atom_site_label
 _atom_site_symmetry_multiplicity
 _atom_site_fract_x
 _atom_site_fract_y
 _atom_site_fract_z
 _atom_site_occupancy
 _atom_site_hle17_bader_spin_density
 _atom_site_hle17_ddec_charge
 _atom_site_hle17_ddec_spin_density
 _atom_site_hle17_ddec_sum_bond_order
 _atom_site_hle17_magmom
 _atom_site_hse06_10hf_bader_spin_density
 _atom_site_hse06_10hf_ddec_charge
 _atom_site_hse06_10hf_ddec_spin_density
 _atom_site_hse06_10hf_ddec_sum_bond_order
 _atom_site_hse06_10hf_magmom
 _atom_site_hse06_bader_spin_density
 _atom_site_hse06_ddec_charge
 _atom_site_hse06_ddec_spin_density
 _atom_site_hse06_ddec_sum_bond_order
 _atom_site_hse06_magmom
 _atom_site_pbe_bader_spin_density
 _atom_site_pbe_cm5_charge
 _atom_site_pbe_ddec_charge
 _atom_site_pbe_ddec_spin_density
 _atom_site_pbe_ddec_sum_bond_order
 _atom_site_pbe_magmom
Zn  Zn0  1  0.07338393  0.09041218  0.31577898  1  0  1.011082  0  1.848933  0  0  0.821804  0  2.317099  0  0  0.868216  0  2.26408  0  0  0.699905  0.789596  0  2.353314  0
Zn  Zn1  1  0.92660872  0.90958751  0.68422310  1  0  1.011048  0  1.848886  0  0  0.821817  0  2.317043  0  0  0.868238  0  2.264027  0  0  0.699898  0.789612  0  2.353263  0
H  H2  1  0.80971203  0.70993456  0.63906654  1  0  0.378148  0  0.891103  0  0  0.35414  0  0.966486  0  0  0.364071  0  0.954693  0  0  0.301016  0.34712  0  0.974747  0
H  H3  1  0.19028466  0.29007169  0.36093646  1  0  0.378135  0  0.891137  0  0  0.354118  0  0.966529  0  0  0.364048  0  0.954736  0  0  0.301021  0.347097  0  0.974791  0
H  H4  1  0.42428266  0.88874099  0.55495115  1  0  0.123702  0  0.950171  0  0  0.131137  0  1.014568  0  0  0.134988  0  1.012479  0  0  0.107851  0.128595  0  1.0157  0
H  H5  1  0.57571837  0.11126867  0.44504700  1  0  0.123637  0  0.950321  0  0  0.13109  0  1.014687  0  0  0.134937  0  1.012605  0  0  0.107804  0.128548  0  1.01582  0
H  H6  1  0.53803477  0.09823662  0.14924859  1  0  0.09888  0  0.904925  0  0  0.109342  0  0.967924  0  0  0.110164  0  0.967442  0  0  0.138128  0.108615  0  0.968473  0
H  H7  1  0.46196488  0.90176303  0.85075286  1  0  0.098813  0  0.905  0  0  0.109298  0  0.967954  0  0  0.110123  0  0.967472  0  0  0.138114  0.108575  0  0.968506  0
H  H8  1  0.51860830  0.93279792  0.22418399  1  0  0.097558  0  0.944406  0  0  0.107401  0  1.009923  0  0  0.107891  0  1.00977  0  0  0.134541  0.106884  0  1.010215  0
H  H9  1  0.48139201  0.06720294  0.77581368  1  0  0.097545  0  0.9444  0  0  0.107371  0  1.009921  0  0  0.107862  0  1.009769  0  0  0.134525  0.106857  0  1.010215  0
H  H10  1  0.76108472  0.17106615  0.18988497  1  0  0.120586  0  0.93035  0  0  0.131534  0  0.987353  0  0  0.13478  0  0.983194  0  0  0.144151  0.129086  0  0.990425  0
H  H11  1  0.23891874  0.82893027  0.81011258  1  0  0.12066  0  0.9303  0  0  0.131608  0  0.987298  0  0  0.134855  0  0.983137  0  0  0.144161  0.129161  0  0.990371  0
H  H12  1  0.55851516  0.56567734  0.29671089  1  0  0.113364  0  0.951252  0  0  0.11983  0  1.017524  0  0  0.124873  0  1.012794  0  0  0.103267  0.116068  0  1.021235  0
H  H13  1  0.44147985  0.43432212  0.70329856  1  0  0.113322  0  0.951194  0  0  0.119812  0  1.017449  0  0  0.124865  0  1.01272  0  0  0.103257  0.116045  0  1.021158  0
H  H14  1  0.71158356  0.08541030  0.92386868  1  0  0.118296  0  0.931644  0  0  0.12837  0  0.991398  0  0  0.131555  0  0.98734  0  0  0.143427  0.126006  0  0.994341  0
H  H15  1  0.28841276  0.91459162  0.07613145  1  0  0.118342  0  0.931642  0  0  0.128414  0  0.991394  0  0  0.131598  0  0.987336  0  0  0.14344  0.126052  0  0.994337  0
H  H16  1  0.87678632  0.48831176  0.54213718  1  0  0.112272  0  0.960092  0  0  0.121732  0  1.024352  0  0  0.125601  0  1.021565  0  0  0.104693  0.118941  0  1.026497  0
H  H17  1  0.12320680  0.51168696  0.45786055  1  0  0.112357  0  0.960056  0  0  0.121835  0  1.0243  0  0  0.125707  0  1.021505  0  0  0.104703  0.119038  0  1.026443  0
H  H18  1  0.02190178  0.78637722  0.38724755  1  0  0.12062  0  0.952595  0  0  0.127798  0  1.013394  0  0  0.130293  0  1.012339  0  0  0.122453  0.125898  0  1.014334  0
H  H19  1  0.97809934  0.21361921  0.61275050  1  0  0.120634  0  0.952575  0  0  0.127816  0  1.01337  0  0  0.130307  0  1.012324  0  0  0.122452  0.125912  0  1.014309  0
H  H20  1  0.69122324  0.68474411  0.11269748  1  0  0.132327  0  0.945827  0  0  0.142455  0  1.004679  0  0  0.1455  0  1.002743  0  0  0.130751  0.140183  0  1.006258  0
H  H21  1  0.30877661  0.31525764  0.88730716  1  0  0.132305  0  0.945924  0  0  0.142418  0  1.004784  0  0  0.145464  0  1.002848  0  0  0.130749  0.140145  0  1.006357  0
H  H22  1  0.85097903  0.63663831  0.86760418  1  0  0.112851  0  0.935978  0  0  0.125692  0  0.986324  0  0  0.128122  0  0.985537  0  0  0.126293  0.123891  0  0.987062  0
H  H23  1  0.14902678  0.36335795  0.13239811  1  0  0.11283  0  0.936063  0  0  0.125644  0  0.986439  0  0  0.128072  0  0.985655  0  0  0.126296  0.123848  0  0.987178  0
H  H24  1  0.78814460  0.73394592  0.30363782  1  0  0.101414  0  1.017289  0  0  0.108235  0  1.085308  0  0  0.109189  0  1.087784  0  0  0.114114  0.107977  0  1.083202  0
H  H25  1  0.21185604  0.26605149  0.69636457  1  0  0.101456  0  1.017252  0  0  0.108265  0  1.085284  0  0  0.109219  0  1.08776  0  0  0.114116  0.108005  0  1.083178  0
C  C26  1  0.33011387  0.83580578  0.36570588  1  0  0.620171  0  3.937525  0  0  0.574618  0  4.227308  0  0  0.607999  0  4.22034  0  0  0.1925  0.552063  0  4.231225  0
C  C27  1  0.66988860  0.16419288  0.63429073  1  0  0.619986  0  3.937835  0  0  0.574438  0  4.227608  0  0  0.607819  0  4.220641  0  0  0.19243  0.551884  0  4.231521  0
C  C28  1  0.84745535  0.37237017  0.35032851  1  0  0.632624  0  3.905515  0  0  0.584782  0  4.194508  0  0  0.61732  0  4.188922  0  0  0.200466  0.562962  0  4.197035  0
C  C29  1  0.15253514  0.62762364  0.64968698  1  0  0.632732  0  3.905509  0  0  0.584897  0  4.194487  0  0  0.617437  0  4.188893  0  0  0.200555  0.563076  0  4.197021  0
C  C30  1  0.50742787  0.78107823  0.51844307  1  0  -0.161412  0  3.656222  0  0  -0.197083  0  3.906852  0  0  -0.197996  0  3.923728  0  0  -0.090155  -0.195869  0  3.895241  0
C  C31  1  0.49257581  0.21892813  0.48155406  1  0  -0.161466  0  3.656177  0  0  -0.197156  0  3.906752  0  0  -0.198067  0  3.92362  0  0  -0.090153  -0.195946  0  3.895145  0
C  C32  1  0.60756316  0.97934304  0.16636825  1  0  0.100469  0  3.608111  0  0  0.024004  0  3.852571  0  0  0.033719  0  3.860731  0  0  0.066075  0.01749  0  3.847271  0
C  C33  1  0.39243950  0.02065768  0.83363329  1  0  0.100519  0  3.608135  0  0  0.024099  0  3.852519  0  0  0.033807  0  3.860687  0  0  0.066064  0.01756  0  3.847253  0
C  C34  1  0.80394052  0.05835225  0.22931435  1  0  0.163506  0  3.644327  0  0  0.097041  0  3.913824  0  0  0.111285  0  3.925467  0  0  0.14755  0.087795  0  3.905656  0
C  C35  1  0.19606159  0.94164191  0.77068551  1  0  0.163348  0  3.644133  0  0  0.096922  0  3.913636  0  0  0.111164  0  3.925282  0  0  0.147488  0.087678  0  3.905468  0
C  C36  1  0.58447271  0.60088510  0.37108276  1  0  -0.108622  0  3.739703  0  0  -0.150011  0  3.997378  0  0  -0.149527  0  4.016717  0  0  -0.093769  -0.150256  0  3.984298  0
C  C37  1  0.41553093  0.39911348  0.62891622  1  0  -0.10859  0  3.739882  0  0  -0.149985  0  3.997516  0  0  -0.149515  0  4.016872  0  0  -0.093821  -0.150223  0  3.984428  0
C  C38  1  0.73108062  0.96935649  0.94177904  1  0  0.164618  0  3.648528  0  0  0.096843  0  3.922077  0  0  0.111224  0  3.933591  0  0  0.145355  0.087624  0  3.913952  0
C  C39  1  0.26891871  0.03064659  0.05821856  1  0  0.164518  0  3.64862  0  0  0.09673  0  3.922183  0  0  0.111112  0  3.933695  0  0  0.145338  0.087512  0  3.914055  0
C  C40  1  0.73001162  0.51214627  0.41311124  1  0  -0.052307  0  3.803734  0  0  -0.025571  0  4.0384  0  0  -0.032625  0  4.061876  0  0  -0.025019  -0.020867  0  4.022023  0
C  C41  1  0.26999205  0.48785213  0.58689386  1  0  -0.052349  0  3.803643  0  0  -0.025589  0  4.038278  0  0  -0.032648  0  4.061762  0  0  -0.024932  -0.020887  0  4.021901  0
C  C42  1  0.47342660  0.73520499  0.42346423  1  0  -0.052524  0  3.785525  0  0  -0.027516  0  4.024395  0  0  -0.034686  0  4.047432  0  0  -0.022624  -0.023171  0  4.009004  0
C  C43  1  0.52657877  0.26480009  0.57653793  1  0  -0.052472  0  3.785758  0  0  -0.027505  0  4.024672  0  0  -0.034672  0  4.0477  0  0  -0.022652  -0.023161  0  4.009278  0
C  C44  1  0.76359199  0.55726085  0.50903964  1  0  -0.196822  0  3.696994  0  0  -0.229103  0  3.94203  0  0  -0.231076  0  3.959658  0  0  -0.098734  -0.227922  0  3.930469  0
C  C45  1  0.23640382  0.44274234  0.49095521  1  0  -0.196838  0  3.696824  0  0  -0.229178  0  3.941814  0  0  -0.231146  0  3.959437  0  0  -0.098735  -0.227984  0  3.930246  0
C  C46  1  0.65340710  0.69267544  0.56067629  1  0  0.326379  0  3.827095  0  0  0.328904  0  4.082527  0  0  0.337475  0  4.098928  0  0  0.080475  0.322569  0  4.071792  0
C  C47  1  0.34659554  0.30732546  0.43931912  1  0  0.326387  0  3.827048  0  0  0.328993  0  4.082362  0  0  0.337564  0  4.098762  0  0  0.080517  0.322659  0  4.071626  0
C  C48  1  0.93556299  0.85652006  0.33124554  1  0  0.036188  0  3.696217  0  0  0.002371  0  3.957193  0  0  0.004976  0  3.975994  0  0  0.007766  0.000571  0  3.944837  0
C  C49  1  0.06444096  0.14347527  0.66875117  1  0  0.036123  0  3.69618  0  0  0.002327  0  3.957166  0  0  0.004931  0  3.975966  0  0  0.007774  0.000531  0  3.944806  0
C  C50  1  0.72146102  0.75825369  0.03728944  1  0  -0.064564  0  3.651174  0  0  -0.103753  0  3.907036  0  0  -0.103043  0  3.926428  0  0  0.004724  -0.10418  0  3.89417  0
C  C51  1  0.27854716  0.24175042  0.96270788  1  0  -0.064545  0  3.650901  0  0  -0.103719  0  3.906765  0  0  -0.103007  0  3.926153  0  0  0.004734  -0.104141  0  3.893893  0
C  C52  1  0.79843271  0.73686197  0.91624773  1  0  0.014969  0  3.740036  0  0  -0.018638  0  4.000973  0  0  -0.016873  0  4.021286  0  0  0.005035  -0.01993  0  3.987622  0
C  C53  1  0.20156666  0.26314080  0.08376037  1  0  0.014959  0  3.739854  0  0  -0.018641  0  4.000803  0  0  -0.016874  0  4.021112  0  0  0.005004  -0.019941  0  3.98746  0
C  C54  1  0.82056317  0.82952266  0.29161308  1  0  -0.069409  0  3.680758  0  0  -0.108895  0  3.937913  0  0  -0.109169  0  3.96011  0  0  -0.003402  -0.109111  0  3.923174  0
C  C55  1  0.17943962  0.17047258  0.70838737  1  0  -0.069369  0  3.680683  0  0  -0.108841  0  3.937829  0  0  -0.109115  0  3.960026  0  0  -0.003377  -0.109055  0  3.923086  0
N  N56  1  0.92352012  0.99910146  0.29181301  1  0  -0.366824  0  3.330855  0  0  -0.284819  0  3.629536  0  0  -0.304883  0  3.642031  0  0  -0.352648  -0.2713  0  3.620791  0
N  N57  1  0.07648315  0.00089285  0.70818135  1  0  -0.366654  0  3.330565  0  0  -0.284728  0  3.629302  0  0  -0.304798  0  3.64181  0  0  -0.352623  -0.271212  0  3.620559  0
N  N58  1  0.80247872  0.86929578  0.85791580  1  0  -0.375134  0  3.30945  0  0  -0.296338  0  3.607272  0  0  -0.315929  0  3.620459  0  0  -0.35048  -0.283256  0  3.598292  0
N  N59  1  0.19752308  0.13070170  0.14208371  1  0  -0.375077  0  3.30941  0  0  -0.296248  0  3.607177  0  0  -0.315842  0  3.620375  0  0  -0.350477  -0.283165  0  3.598199  0
N  N60  1  0.73764688  0.95833745  0.22774869  1  0  -0.084761  0  3.577454  0  0  0.004011  0  3.805786  0  0  -0.011009  0  3.830778  0  0  -0.244985  0.013915  0  3.788961  0
N  N61  1  0.26235376  0.04166001  0.77225195  1  0  -0.084878  0  3.577406  0  0  0.003866  0  3.805735  0  0  -0.011152  0  3.830723  0  0  -0.244977  0.013778  0  3.788917  0
N  N62  1  0.67963635  0.90644263  0.05180962  1  0  -0.087359  0  3.580104  0  0  -0.000398  0  3.813126  0  0  -0.015756  0  3.83887  0  0  -0.245233  0.009804  0  3.795497  0
N  N63  1  0.32036564  0.09355698  0.94819220  1  0  -0.087256  0  3.579995  0  0  -0.000306  0  3.812994  0  0  -0.015661  0  3.838736  0  0  -0.245177  0.009904  0  3.795365  0
O  O64  1  0.97977087  0.28596387  0.39435411  1  0  -0.67432  0  2.030752  0  0  -0.592832  0  2.289197  0  0  -0.620964  0  2.274001  0  0  -0.33322  -0.572916  0  2.298586  0
O  O65  1  0.02022458  0.71403494  0.60563962  1  0  -0.674414  0  2.030467  0  0  -0.592957  0  2.28894  0  0  -0.621102  0  2.273751  0  0  -0.333257  -0.573038  0  2.298322  0
O  O66  1  0.32804750  0.80629496  0.26387939  1  0  -0.633606  0  1.911909  0  0  -0.592662  0  2.136537  0  0  -0.614714  0  2.127438  0  0  -0.336868  -0.577088  0  2.142197  0
O  O67  1  0.67196196  0.19370376  0.73611309  1  0  -0.633465  0  1.912072  0  0  -0.59252  0  2.1367  0  0  -0.614568  0  2.127599  0  0  -0.336793  -0.576947  0  2.142354  0
O  O68  1  0.22158545  0.95353848  0.42224111  1  0  -0.630173  0  2.022835  0  0  -0.558064  0  2.29276  0  0  -0.585659  0  2.278243  0  0  -0.330821  -0.538887  0  2.302077  0
O  O69  1  0.77840998  0.04646039  0.57775087  1  0  -0.630117  0  2.022782  0  0  -0.558012  0  2.292684  0  0  -0.585609  0  2.278172  0  0  -0.330807  -0.538837  0  2.302001  0
O  O70  1  0.81749455  0.34147174  0.26051841  1  0  -0.602843  0  1.922633  0  0  -0.559317  0  2.140793  0  0  -0.581625  0  2.133045  0  0  -0.320162  -0.543901  0  2.145566  0
O  O71  1  0.18249207  0.65852581  0.73948348  1  0  -0.602834  0  1.922951  0  0  -0.559337  0  2.141167  0  0  -0.581641  0  2.133413  0  0  -0.320217  -0.543924  0  2.145942  0
O  O72  1  0.68542400  0.74330745  0.65104573  1  0  -0.53935  0  2.091891  0  0  -0.497051  0  2.302242  0  0  -0.513709  0  2.292776  0  0  -0.372428  -0.485004  0  2.308594  0
O  O73  1  0.31457797  0.25669232  0.34895084  1  0  -0.539327  0  2.091989  0  0  -0.497048  0  2.302311  0  0  -0.513708  0  2.292852  0  0  -0.372429  -0.485005  0  2.308675  0
