# generated using pymatgen
data_ZnH4CSN
_symmetry_space_group_name_H-M   'P 1'
_cell_length_a   6.16700808
_cell_length_b   6.29553825
_cell_length_c   17.08428182
_cell_angle_alpha   90.00012388
_cell_angle_beta   90.00056609
_cell_angle_gamma   90.00019417
_symmetry_Int_Tables_number   1
_chemical_formula_structural   ZnH4CSN
_chemical_formula_sum   'Zn8 H32 C8 S8 N8'
_cell_volume   663.29101062
_cell_formula_units_Z   8
loop_
 _symmetry_equiv_pos_site_id
 _symmetry_equiv_pos_as_xyz
  1  'x, y, z'
loop_
 _atom_site_type_symbol
 _atom_site_label
 _atom_site_symmetry_multiplicity
 _atom_site_fract_x
 _atom_site_fract_y
 _atom_site_fract_z
 _atom_site_occupancy
 _atom_site_hle17_bader_spin_density
 _atom_site_hle17_ddec_charge
 _atom_site_hle17_ddec_spin_density
 _atom_site_hle17_ddec_sum_bond_order
 _atom_site_hle17_magmom
 _atom_site_hse06_10hf_bader_spin_density
 _atom_site_hse06_10hf_ddec_charge
 _atom_site_hse06_10hf_ddec_spin_density
 _atom_site_hse06_10hf_ddec_sum_bond_order
 _atom_site_hse06_10hf_magmom
 _atom_site_hse06_bader_spin_density
 _atom_site_hse06_ddec_charge
 _atom_site_hse06_ddec_spin_density
 _atom_site_hse06_ddec_sum_bond_order
 _atom_site_hse06_magmom
 _atom_site_pbe_bader_spin_density
 _atom_site_pbe_cm5_charge
 _atom_site_pbe_ddec_charge
 _atom_site_pbe_ddec_spin_density
 _atom_site_pbe_ddec_sum_bond_order
 _atom_site_pbe_magmom
Zn  Zn0  1  0.32164848  0.90257978  0.20392999  1  0  0.772225  0  2.2371  0  0  0.632471  0  2.697277  0  0  0.662915  0  2.665747  0  0  0.43371  0.611188  0  2.719141  0
Zn  Zn1  1  0.32164695  0.40258145  0.29606942  1  0  0.772236  0  2.237087  0  0  0.632499  0  2.697227  0  0  0.662935  0  2.665697  0  0  0.433718  0.61121  0  2.719085  0
Zn  Zn2  1  0.82164877  0.59742298  0.20393313  1  0  0.772288  0  2.237118  0  0  0.632549  0  2.697252  0  0  0.662984  0  2.665727  0  0  0.433749  0.611263  0  2.719116  0
Zn  Zn3  1  0.17834401  0.90258084  0.70393318  1  0  0.772267  0  2.237128  0  0  0.632493  0  2.697305  0  0  0.662933  0  2.66578  0  0  0.433726  0.611214  0  2.719162  0
Zn  Zn4  1  0.67834762  0.09741777  0.79606580  1  0  0.772248  0  2.237167  0  0  0.632491  0  2.697329  0  0  0.662931  0  2.665802  0  0  0.433712  0.61121  0  2.719184  0
Zn  Zn5  1  0.67834591  0.59741927  0.70393515  1  0  0.772274  0  2.237191  0  0  0.632513  0  2.69735  0  0  0.662943  0  2.665823  0  0  0.433716  0.611223  0  2.7192  0
Zn  Zn6  1  0.17834085  0.40257457  0.79606852  1  0  0.772261  0  2.237109  0  0  0.632495  0  2.697311  0  0  0.662931  0  2.665779  0  0  0.433724  0.611206  0  2.719164  0
Zn  Zn7  1  0.82165047  0.09742148  0.29606729  1  0  0.772246  0  2.237007  0  0  0.632507  0  2.697136  0  0  0.66296  0  2.665604  0  0  0.433718  0.611231  0  2.719002  0
H  H8  1  0.63708046  0.03388854  0.12281585  1  0  0.27136  0  0.965695  0  0  0.262422  0  1.023912  0  0  0.268043  0  1.020999  0  0  0.255093  0.258314  0  1.026173  0
H  H9  1  0.63709623  0.53389407  0.37718147  1  0  0.271313  0  0.965579  0  0  0.262401  0  1.023784  0  0  0.268024  0  1.020873  0  0  0.254994  0.258287  0  1.026061  0
H  H10  1  0.13709181  0.46611629  0.12282039  1  0  0.271356  0  0.965489  0  0  0.262414  0  1.023727  0  0  0.268036  0  1.020815  0  0  0.255006  0.258302  0  1.025996  0
H  H11  1  0.86289176  0.03388368  0.62281856  1  0  0.271201  0  0.965623  0  0  0.262279  0  1.023846  0  0  0.267906  0  1.020928  0  0  0.254926  0.258164  0  1.026123  0
H  H12  1  0.36288646  0.96610742  0.87717701  1  0  0.271224  0  0.965309  0  0  0.262295  0  1.023596  0  0  0.267927  0  1.020669  0  0  0.25486  0.258179  0  1.025874  0
H  H13  1  0.36289176  0.46610825  0.62282134  1  0  0.271267  0  0.965524  0  0  0.262347  0  1.02374  0  0  0.267973  0  1.020823  0  0  0.254937  0.258231  0  1.026018  0
H  H14  1  0.86289781  0.53387968  0.87718243  1  0  0.271348  0  0.965571  0  0  0.262428  0  1.023779  0  0  0.268052  0  1.020863  0  0  0.254995  0.258313  0  1.026057  0
H  H15  1  0.13708975  0.96610911  0.37718015  1  0  0.271396  0  0.965593  0  0  0.262464  0  1.023809  0  0  0.268087  0  1.020895  0  0  0.255059  0.258354  0  1.026078  0
H  H16  1  0.44759500  0.21766448  0.11155845  1  0  0.27497  0  0.938317  0  0  0.266054  0  0.996558  0  0  0.271789  0  0.993025  0  0  0.264223  0.261676  0  0.999573  0
H  H17  1  0.44759647  0.71766053  0.38843951  1  0  0.275235  0  0.938464  0  0  0.266194  0  0.996815  0  0  0.271928  0  0.993287  0  0  0.264341  0.261817  0  0.99983  0
H  H18  1  0.94759286  0.28235373  0.11156059  1  0  0.275022  0  0.938671  0  0  0.266132  0  0.996828  0  0  0.271863  0  0.993304  0  0  0.264296  0.261755  0  0.999843  0
H  H19  1  0.05240176  0.21766524  0.61156234  1  0  0.27515  0  0.938398  0  0  0.26617  0  0.996709  0  0  0.271908  0  0.993172  0  0  0.264251  0.261791  0  0.999726  0
H  H20  1  0.55240435  0.78234896  0.88843441  1  0  0.275244  0  0.938678  0  0  0.266161  0  0.99707  0  0  0.271891  0  0.993547  0  0  0.264354  0.261784  0  1.000083  0
H  H21  1  0.55240125  0.28233702  0.61156389  1  0  0.275195  0  0.938439  0  0  0.266149  0  0.996823  0  0  0.271887  0  0.993285  0  0  0.264274  0.261771  0  0.999839  0
H  H22  1  0.05239675  0.71765176  0.88843930  1  0  0.275048  0  0.938568  0  0  0.266168  0  0.996736  0  0  0.271902  0  0.993207  0  0  0.264312  0.26179  0  0.99975  0
H  H23  1  0.94759596  0.78235932  0.38843989  1  0  0.275193  0  0.938598  0  0  0.266224  0  0.996866  0  0  0.271955  0  0.993338  0  0  0.264387  0.261848  0  0.99988  0
H  H24  1  0.25525691  0.00012583  0.01790817  1  0  0.053293  0  0.930234  0  0  0.070196  0  0.997221  0  0  0.070784  0  0.99688  0  0  0.095591  0.069662  0  0.997638  0
H  H25  1  0.25525272  0.50013823  0.48208828  1  0  0.053365  0  0.930124  0  0  0.070219  0  0.997152  0  0  0.070806  0  0.996811  0  0  0.095589  0.069685  0  0.997567  0
H  H26  1  0.75524116  0.49988670  0.01791519  1  0  0.053212  0  0.93014  0  0  0.07011  0  0.997196  0  0  0.070699  0  0.996849  0  0  0.095562  0.069576  0  0.997613  0
H  H27  1  0.24477535  0.00013181  0.51791804  1  0  0.053217  0  0.930027  0  0  0.070173  0  0.997009  0  0  0.070762  0  0.996668  0  0  0.095569  0.069639  0  0.997426  0
H  H28  1  0.74477162  0.99986060  0.98208177  1  0  0.053122  0  0.93006  0  0  0.070102  0  0.99701  0  0  0.070687  0  0.996667  0  0  0.095559  0.069567  0  0.997428  0
H  H29  1  0.74476446  0.49986409  0.51791921  1  0  0.053263  0  0.930061  0  0  0.070146  0  0.99711  0  0  0.070733  0  0.996765  0  0  0.095575  0.069612  0  0.997527  0
H  H30  1  0.24475657  0.50012197  0.98208529  1  0  0.053189  0  0.93034  0  0  0.070139  0  0.997256  0  0  0.070726  0  0.996913  0  0  0.095554  0.069605  0  0.997672  0
H  H31  1  0.75526129  0.99988639  0.48208477  1  0  0.053221  0  0.930253  0  0  0.07011  0  0.997258  0  0  0.070698  0  0.996907  0  0  0.095567  0.069578  0  0.997673  0
H  H32  1  0.43525385  0.78889423  0.03905462  1  0  0.054004  0  0.948184  0  0  0.07073  0  1.01505  0  0  0.071169  0  1.015264  0  0  0.091238  0.070261  0  1.01511  0
H  H33  1  0.43524687  0.28891101  0.46094336  1  0  0.054035  0  0.948345  0  0  0.070755  0  1.01516  0  0  0.071195  0  1.015373  0  0  0.091258  0.070277  0  1.015229  0
H  H34  1  0.93526761  0.71110799  0.03905903  1  0  0.05407  0  0.94815  0  0  0.070797  0  1.015028  0  0  0.071239  0  1.015239  0  0  0.091278  0.070317  0  1.015097  0
H  H35  1  0.06474195  0.78889820  0.53906031  1  0  0.053991  0  0.948309  0  0  0.070704  0  1.015188  0  0  0.071169  0  1.015379  0  0  0.091221  0.070225  0  1.015256  0
H  H36  1  0.56475847  0.21109061  0.96093590  1  0  0.054067  0  0.948365  0  0  0.070765  0  1.015258  0  0  0.071204  0  1.015473  0  0  0.091246  0.0703  0  1.015312  0
H  H37  1  0.56475896  0.71109766  0.53906473  1  0  0.054047  0  0.948305  0  0  0.070754  0  1.015195  0  0  0.071194  0  1.015406  0  0  0.091237  0.070272  0  1.015269  0
H  H38  1  0.06473173  0.28889433  0.96094378  1  0  0.054085  0  0.948164  0  0  0.070752  0  1.015063  0  0  0.071207  0  1.015258  0  0  0.091246  0.070273  0  1.01513  0
H  H39  1  0.93527037  0.21110412  0.46094016  1  0  0.05405  0  0.948208  0  0  0.070731  0  1.015075  0  0  0.071168  0  1.015288  0  0  0.091276  0.070258  0  1.015137  0
C  C40  1  0.42478554  0.96270619  0.03269211  1  0  0.049869  0  3.654895  0  0  -0.007058  0  3.920084  0  0  -0.003454  0  3.932593  0  0  -0.082226  -0.009419  0  3.911388  0
C  C41  1  0.42478846  0.46270712  0.46730716  1  0  0.049631  0  3.655  0  0  -0.007216  0  3.920086  0  0  -0.003614  0  3.932592  0  0  -0.082286  -0.009569  0  3.911385  0
C  C42  1  0.92478556  0.53730709  0.03269929  1  0  0.049957  0  3.654557  0  0  -0.007066  0  3.919812  0  0  -0.00347  0  3.932334  0  0  -0.082255  -0.009419  0  3.911111  0
C  C43  1  0.07519952  0.96270542  0.53268789  1  0  0.049735  0  3.654599  0  0  -0.007265  0  3.919782  0  0  -0.003705  0  3.932344  0  0  -0.082297  -0.009616  0  3.911085  0
C  C44  1  0.57520083  0.03730566  0.96730485  1  0  0.05005  0  3.654433  0  0  -0.006897  0  3.919519  0  0  -0.00331  0  3.932073  0  0  -0.08211  -0.009259  0  3.910817  0
C  C45  1  0.57521413  0.53730314  0.53269331  1  0  0.049943  0  3.654577  0  0  -0.007002  0  3.919672  0  0  -0.003411  0  3.932214  0  0  -0.082178  -0.009354  0  3.910971  0
C  C46  1  0.07520568  0.46269840  0.96730528  1  0  0.049766  0  3.654716  0  0  -0.007077  0  3.919791  0  0  -0.003496  0  3.93233  0  0  -0.082174  -0.009428  0  3.91109  0
C  C47  1  0.92479334  0.03730802  0.46730029  1  0  0.050164  0  3.655061  0  0  -0.006646  0  3.920104  0  0  -0.003051  0  3.932656  0  0  -0.082068  -0.009004  0  3.911405  0
S  S48  1  0.95169773  0.94208622  0.18238390  1  0  -0.881935  0  2.187336  0  0  -0.767578  0  2.640078  0  0  -0.794891  0  2.611528  0  0  -0.42363  -0.747788  0  2.659975  0
S  S49  1  0.95169676  0.44208800  0.31761674  1  0  -0.882012  0  2.187389  0  0  -0.767634  0  2.64011  0  0  -0.794943  0  2.611555  0  0  -0.423648  -0.747839  0  2.660007  0
S  S50  1  0.45169753  0.55791515  0.18238571  1  0  -0.881989  0  2.187472  0  0  -0.767625  0  2.640224  0  0  -0.794936  0  2.611667  0  0  -0.423643  -0.747828  0  2.660119  0
S  S51  1  0.54829468  0.94208062  0.68238426  1  0  -0.882004  0  2.187469  0  0  -0.767598  0  2.640203  0  0  -0.794906  0  2.611644  0  0  -0.423597  -0.747802  0  2.660092  0
S  S52  1  0.04829512  0.05790974  0.81761658  1  0  -0.881969  0  2.187431  0  0  -0.767587  0  2.640194  0  0  -0.794901  0  2.611642  0  0  -0.423613  -0.747788  0  2.660079  0
S  S53  1  0.04829448  0.55791272  0.68238490  1  0  -0.882023  0  2.18745  0  0  -0.767627  0  2.640183  0  0  -0.794936  0  2.611628  0  0  -0.423627  -0.747825  0  2.660065  0
S  S54  1  0.54829371  0.44207923  0.81761535  1  0  -0.882031  0  2.187419  0  0  -0.767625  0  2.640134  0  0  -0.794926  0  2.611574  0  0  -0.42362  -0.747828  0  2.660024  0
S  S55  1  0.45169817  0.05791852  0.31761387  1  0  -0.882018  0  2.187467  0  0  -0.767621  0  2.640173  0  0  -0.794933  0  2.611622  0  0  -0.42363  -0.747825  0  2.660063  0
N  N56  1  0.47497579  0.05628513  0.10933123  1  0  -0.593778  0  3.169878  0  0  -0.527269  0  3.40435  0  0  -0.546376  0  3.405603  0  0  -0.634031  -0.513929  0  3.403621  0
N  N57  1  0.47495787  0.55631296  0.39066492  1  0  -0.593873  0  3.169802  0  0  -0.527282  0  3.404249  0  0  -0.54639  0  3.405499  0  0  -0.634009  -0.513936  0  3.403513  0
N  N58  1  0.97495168  0.44370136  0.10933820  1  0  -0.593844  0  3.169993  0  0  -0.527277  0  3.404331  0  0  -0.546386  0  3.405589  0  0  -0.634001  -0.513933  0  3.403594  0
N  N59  1  0.02504775  0.05629854  0.60934966  1  0  -0.593774  0  3.169416  0  0  -0.527172  0  3.403818  0  0  -0.546283  0  3.40508  0  0  -0.633884  -0.51383  0  3.403086  0
N  N60  1  0.52507058  0.94366635  0.89065226  1  0  -0.59395  0  3.169398  0  0  -0.527314  0  3.403895  0  0  -0.546425  0  3.405144  0  0  -0.633998  -0.513972  0  3.403167  0
N  N61  1  0.52505120  0.44369094  0.60934550  1  0  -0.5939  0  3.169493  0  0  -0.527239  0  3.40386  0  0  -0.54635  0  3.405106  0  0  -0.633928  -0.513892  0  3.403122  0
N  N62  1  0.02503956  0.55629301  0.89066110  1  0  -0.59376  0  3.1699  0  0  -0.527294  0  3.404253  0  0  -0.546404  0  3.405507  0  0  -0.634006  -0.513948  0  3.403517  0
N  N63  1  0.97496781  0.94369107  0.39066896  1  0  -0.594056  0  3.170206  0  0  -0.527537  0  3.404656  0  0  -0.546646  0  3.4059  0  0  -0.634187  -0.514197  0  3.40393  0
