# generated using pymatgen
data_CoH11C9S2N3O2
_symmetry_space_group_name_H-M   'P 1'
_cell_length_a   8.20409205
_cell_length_b   8.91179228
_cell_length_c   9.17322076
_cell_angle_alpha   110.14015781
_cell_angle_beta   103.28278841
_cell_angle_gamma   89.97333820
_symmetry_Int_Tables_number   1
_chemical_formula_structural   CoH11C9S2N3O2
_chemical_formula_sum   'Co2 H22 C18 S4 N6 O4'
_cell_volume   610.55389725
_cell_formula_units_Z   2
loop_
 _symmetry_equiv_pos_site_id
 _symmetry_equiv_pos_as_xyz
  1  'x, y, z'
loop_
 _atom_site_type_symbol
 _atom_site_label
 _atom_site_symmetry_multiplicity
 _atom_site_fract_x
 _atom_site_fract_y
 _atom_site_fract_z
 _atom_site_occupancy
 _atom_site_hle17_ddec_charge
 _atom_site_hle17_ddec_spin_density
 _atom_site_hle17_ddec_sum_bond_order
 _atom_site_hle17_magmom
 _atom_site_hse06_10hf_ddec_charge
 _atom_site_hse06_10hf_ddec_spin_density
 _atom_site_hse06_10hf_ddec_sum_bond_order
 _atom_site_hse06_10hf_magmom
 _atom_site_hse06_ddec_charge
 _atom_site_hse06_ddec_spin_density
 _atom_site_hse06_ddec_sum_bond_order
 _atom_site_hse06_magmom
 _atom_site_pbe_cm5_charge
 _atom_site_pbe_ddec_charge
 _atom_site_pbe_ddec_spin_density
 _atom_site_pbe_ddec_sum_bond_order
 _atom_site_pbe_magmom
Co  Co0  1  0.67929254  0.89263606  0.52374871  1  0.976743  2.793285  2.185805  2.518  0.974456  2.782978  2.593728  2.586  1.054662  2.862474  2.517279  2.688  0.64832  0.897617  2.678538  2.671531  2.467
Co  Co1  1  0.32070696  0.10736554  0.47624823  1  0.976849  -2.793286  2.185853  -2.518  0.974563  -2.782972  2.593774  -2.586  1.054764  -2.862464  2.517322  -2.688  0.648321  0.897726  -2.678538  2.671574  -2.467
H  H2  1  0.98012203  0.48395340  0.63161001  1  0.123028  -0.0  0.935542  0.0  0.133775  1e-05  0.991247  0.0  0.136295  9e-06  0.991651  0.0  0.114221  0.131807  1e-05  0.991784  0.0
H  H3  1  0.01987538  0.51605323  0.36837959  1  0.123176  -1e-06  0.93592  0.0  0.133904  -1e-05  0.991597  0.0  0.136424  -8e-06  0.992002  0.0  0.114309  0.131935  -1e-05  0.992137  0.0
H  H4  1  0.72475612  0.58166044  0.01296482  1  0.114831  3e-05  0.955557  0.0  0.11935  2.6e-05  1.024669  0.0  0.122652  -7e-06  1.024193  0.0  0.10547  0.117122  7.7e-05  1.024884  0.0
H  H5  1  0.27525487  0.41834196  0.98704004  1  0.114783  -3e-05  0.955554  0.0  0.119303  -2.6e-05  1.024678  0.0  0.122609  8e-06  1.024197  0.0  0.105441  0.117073  -7.7e-05  1.024889  0.0
H  H6  1  0.80494697  0.21883930  0.49603846  1  0.104256  4.2e-05  0.984378  0.0  0.106548  4e-06  1.059091  0.0  0.109174  -2.3e-05  1.056953  0.0  0.120803  0.104738  3.2e-05  1.060187  0.0
H  H7  1  0.19504582  0.78115890  0.50395383  1  0.104503  -4.2e-05  0.984521  0.0  0.106726  -4e-06  1.059309  0.0  0.109352  2.3e-05  1.057171  0.0  0.12089  0.104915  -3.2e-05  1.060415  0.0
H  H8  1  0.56371448  0.31124108  0.86383760  1  0.107925  0.0001  0.943263  0.0  0.115962  9.4e-05  1.008983  0.0  0.119081  7.7e-05  1.005769  0.0  0.126396  0.112831  0.00011  1.012701  0.0
H  H9  1  0.43629119  0.68875774  0.13617043  1  0.107898  -0.0001  0.943305  0.0  0.115904  -9.4e-05  1.009103  0.0  0.119017  -7.7e-05  1.005897  0.0  0.126421  0.112784  -0.00011  1.01279  0.0
H  H10  1  0.77788523  0.04957961  0.89334346  1  0.08716  1.3e-05  0.952844  0.0  0.108259  0.000148  1.013924  0.0  0.107387  7.4e-05  1.015416  0.0  0.099361  0.108539  0.000139  1.013342  0.001
H  H11  1  0.22211617  0.95041445  0.10666427  1  0.087128  -1.2e-05  0.952839  0.0  0.10825  -0.000148  1.013894  0.0  0.107379  -7.3e-05  1.015391  0.0  0.099352  0.108528  -0.000139  1.013313  -0.001
H  H12  1  0.68054236  0.92565613  0.97230487  1  0.065017  0.00111  0.987953  0.002  0.082403  0.000866  1.059369  0.002  0.082206  0.000518  1.060209  0.001  0.081507  0.082308  0.001978  1.058626  0.002
H  H13  1  0.31945382  0.07433696  0.02769716  1  0.065045  -0.001109  0.987976  -0.002  0.082428  -0.000866  1.059384  -0.002  0.082244  -0.000518  1.060212  -0.001  0.081531  0.08233  -0.001978  1.058642  -0.002
H  H14  1  0.55918729  0.05890824  0.89227340  1  0.062749  0.000424  0.984928  0.001  0.079497  0.000552  1.058362  0.001  0.080024  0.000339  1.057569  0.0  0.077079  0.078702  0.000739  1.059708  0.001
H  H15  1  0.44081181  0.94108838  0.10773043  1  0.06279  -0.000424  0.984935  -0.001  0.079546  -0.000552  1.058345  -0.001  0.080069  -0.000339  1.057562  0.0  0.077094  0.078747  -0.00074  1.059694  -0.001
H  H16  1  0.93143192  0.78334554  0.02840521  1  0.109393  0.000245  0.976627  0.0  0.128256  0.000263  1.040626  0.0  0.129712  0.000196  1.040624  0.0  0.084364  0.126959  0.000407  1.041136  0.0
H  H17  1  0.06856043  0.21665993  0.97158738  1  0.109343  -0.000245  0.976688  0.0  0.128231  -0.000263  1.040674  0.0  0.129689  -0.000196  1.040674  0.0  0.084337  0.126934  -0.000408  1.041183  0.0
H  H18  1  0.93318574  0.78991775  0.83609741  1  0.138431  -0.000143  0.937533  0.0  0.159817  -0.000154  0.993828  0.0  0.161229  -0.000149  0.993817  0.0  0.100403  0.159057  -0.000144  0.993666  0.0
H  H19  1  0.06681713  0.21008147  0.16389388  1  0.138415  0.000143  0.937655  0.0  0.159815  0.000154  0.993936  0.0  0.161226  0.000149  0.993926  0.0  0.100392  0.159056  0.000144  0.993769  0.0
H  H20  1  0.09679046  0.70465441  0.93351901  1  0.10207  5.2e-05  1.006261  0.0  0.116925  2.3e-05  1.0806  0.0  0.117984  2.2e-05  1.081938  0.0  0.080514  0.116853  2.3e-05  1.078181  0.0
H  H21  1  0.90320886  0.29534467  0.06648246  1  0.102072  -5.2e-05  1.006288  0.0  0.116928  -2.4e-05  1.080629  0.0  0.117988  -2.1e-05  1.081969  0.0  0.080515  0.116857  -2.3e-05  1.078213  0.0
H  H22  1  0.53238479  0.78181774  0.71382969  1  0.336065  0.000498  0.9342  0.001  0.313204  0.000678  1.01426  0.001  0.323412  0.000448  1.00386  0.001  0.271805  0.305499  0.000771  1.02153  0.002
H  H23  1  0.46761592  0.21818251  0.28617246  1  0.336064  -0.000499  0.934247  -0.001  0.313219  -0.000678  1.014282  -0.001  0.323428  -0.000448  1.003879  -0.001  0.271831  0.30551  -0.000772  1.02155  -0.002
C  C24  1  0.05813201  0.02108175  0.67817956  1  0.303982  -0.0033  3.968293  0.003  0.30557  -0.000228  4.270239  0.008  0.332361  0.000848  4.28306  0.008  0.155201  0.284122  -0.001519  4.261651  0.007
C  C25  1  0.94185051  0.97891294  0.32181717  1  0.30389  0.003294  3.967819  -0.003  0.305489  0.000223  4.26979  -0.008  0.332287  -0.000855  4.282619  -0.008  0.155055  0.284036  0.001513  4.261194  -0.007
C  C26  1  0.88871063  0.45161215  0.68742953  1  -0.136674  0.000474  3.665328  0.001  -0.15128  0.00014  3.909156  0.0  -0.159749  0.000128  3.930203  0.0  -0.071347  -0.14756  7.6e-05  3.895647  0.0
C  C27  1  0.11126639  0.54836831  0.31255785  1  -0.136768  -0.000474  3.664997  -0.001  -0.151345  -0.00014  3.908715  0.0  -0.159813  -0.000128  3.929761  0.0  -0.071399  -0.147622  -7.7e-05  3.895212  0.0
C  C28  1  0.67060695  0.52185015  0.34276972  1  0.293451  -0.009771  4.032379  -0.01  0.287195  0.000487  4.339448  0.004  0.312223  0.000357  4.353406  0.004  0.141684  0.268445  0.000119  4.327834  0.004
C  C29  1  0.32939272  0.47814177  0.65722602  1  0.293488  0.009765  4.032786  0.01  0.287235  -0.000486  4.339831  -0.004  0.312256  -0.000357  4.353783  -0.004  0.14171  0.268484  -0.000119  4.328223  -0.004
C  C30  1  0.74701875  0.50600189  0.89862386  1  -0.163888  0.00039  3.716808  0.001  -0.179438  0.000217  3.966232  0.0  -0.187759  0.000128  3.986323  0.0  -0.078988  -0.175135  0.0003  3.952459  0.0
C  C31  1  0.25297725  0.49399004  0.10137554  1  -0.163833  -0.000397  3.716749  -0.001  -0.179396  -0.000217  3.966145  0.0  -0.187717  -0.000129  3.986235  0.0  -0.078954  -0.175095  -0.0003  3.952373  0.0
C  C32  1  0.86496347  0.55769386  0.83330354  1  0.218513  -0.000763  3.690014  -0.001  0.233324  -0.000401  3.928911  -0.001  0.241132  -0.00028  3.94839  0.0  0.021302  0.228968  -0.000298  3.915657  0.0
C  C33  1  0.13504372  0.44231004  0.16669131  1  0.218498  0.000766  3.690633  0.001  0.233416  0.0004  3.929348  0.001  0.241212  0.000279  3.948837  0.0  0.021338  0.229061  0.000298  3.916093  0.0
C  C34  1  0.79618899  0.30477891  0.61074026  1  0.040115  -0.001389  3.609421  -0.002  -0.00282  -0.000775  3.870325  -0.001  0.004962  -0.000642  3.884308  -0.001  0.051375  -0.006068  -0.000696  3.858637  -0.001
C  C35  1  0.20381984  0.69524757  0.38927379  1  0.03985  0.001396  3.608881  0.002  -0.003105  0.000775  3.869848  0.001  0.004674  0.000642  3.883835  0.001  0.051318  -0.006366  0.000695  3.858199  0.001
C  C36  1  0.65671889  0.35789948  0.81956689  1  0.038347  0.000746  3.622553  0.001  -0.001955  0.000672  3.879421  0.001  0.006505  0.000545  3.89204  0.001  0.050861  -0.006867  0.00092  3.870827  0.001
C  C37  1  0.34329294  0.64210876  0.18044783  1  0.038428  -0.000736  3.622503  -0.001  -0.001912  -0.000672  3.879459  -0.001  0.00655  -0.000545  3.892067  -0.001  0.050922  -0.006817  -0.00092  3.870862  -0.001
C  C38  1  0.66192202  0.97990891  0.87943293  1  -0.027465  0.001686  3.639337  0.002  -0.122763  0.002561  3.903667  0.003  -0.114841  0.001719  3.908563  0.002  -0.161985  -0.128783  0.002741  3.900553  0.003
C  C39  1  0.33807680  0.02008531  0.12057000  1  -0.027456  -0.001687  3.639327  -0.002  -0.122761  -0.002561  3.903688  -0.003  -0.114851  -0.001719  3.908578  -0.002  -0.161987  -0.128783  -0.002741  3.90058  -0.003
C  C40  1  0.96134619  0.71828528  0.91392224  1  -0.352938  0.000147  3.693887  0.0  -0.429695  0.000123  3.925421  0.0  -0.43275  6.9e-05  3.932298  0.0  -0.244437  -0.427354  0.00028  3.920202  0.0
C  C41  1  0.03865209  0.28171633  0.08607556  1  -0.352934  -0.000146  3.694058  0.0  -0.429769  -0.000123  3.92557  0.0  -0.432821  -7.1e-05  3.932434  0.0  -0.244459  -0.427427  -0.00028  3.920349  0.0
S  S42  1  0.25602886  0.08512603  0.72512590  1  -0.316242  -0.038786  2.288997  -0.052  -0.331928  -0.028292  2.643746  -0.034  -0.357016  -0.021148  2.632377  -0.025  -0.106019  -0.309307  -0.033838  2.652883  -0.038
S  S43  1  0.74397336  0.91487661  0.27487629  1  -0.316034  0.038761  2.289374  0.052  -0.331725  0.028274  2.644133  0.034  -0.3568  0.021132  2.632754  0.025  -0.105937  -0.309121  0.033819  2.653279  0.038
S  S44  1  0.66087776  0.33447711  0.22978931  1  -0.344045  0.011059  2.100603  0.016  -0.321928  0.003897  2.402038  0.006  -0.340043  0.001838  2.398371  0.003  -0.127737  -0.308188  0.007575  2.403142  0.011
S  S45  1  0.33911903  0.66552208  0.77020953  1  -0.344183  -0.011052  2.100489  -0.016  -0.322038  -0.003895  2.401913  -0.006  -0.340154  -0.001836  2.398243  -0.003  -0.127807  -0.308301  -0.007571  2.403021  -0.011
N  N46  1  0.91432523  0.97453296  0.64429662  1  -0.531339  0.016789  3.039855  0.026  -0.516555  0.011378  3.337532  0.013  -0.545063  0.010873  3.337647  0.011  -0.388467  -0.492702  0.012339  3.340143  0.015
N  N47  1  0.08568946  0.02546939  0.35570675  1  -0.531508  -0.016779  3.039149  -0.026  -0.516739  -0.011367  3.336841  -0.013  -0.545257  -0.010861  3.336966  -0.011  -0.388444  -0.492874  -0.012327  3.339441  -0.015
N  N48  1  0.68134984  0.26114482  0.67724244  1  0.256428  -0.000167  3.626775  -0.001  0.311657  -0.000155  3.887906  -0.001  0.310178  -0.000189  3.910049  -0.001  -0.118302  0.311062  -0.000132  3.870722  -0.001
N  N49  1  0.31865236  0.73884836  0.32274877  1  0.256483  0.000158  3.627144  0.001  0.311761  0.000154  3.88822  0.001  0.310293  0.000186  3.91036  0.001  -0.118455  0.311158  0.000131  3.871053  0.001
N  N50  1  0.68119299  0.65910849  0.42443932  1  -0.548863  0.042035  3.080667  0.063  -0.53266  0.027238  3.384763  0.035  -0.561497  0.023154  3.385896  0.029  -0.405571  -0.507851  0.030669  3.384941  0.04
N  N51  1  0.31880675  0.34089419  0.57556350  1  -0.548814  -0.042022  3.081147  -0.063  -0.532617  -0.027238  3.385232  -0.035  -0.561443  -0.023153  3.386363  -0.029  -0.405565  -0.507813  -0.030664  3.385415  -0.04
O  O52  1  0.58671797  0.11990469  0.59898570  1  -0.552239  0.009192  2.034477  0.015  -0.536917  0.006351  2.336698  0.011  -0.575134  0.004144  2.332636  0.007  -0.23121  -0.499763  0.008675  2.33621  0.015
O  O53  1  0.41328174  0.88009803  0.40101495  1  -0.552315  -0.009184  2.034367  -0.015  -0.537044  -0.006348  2.336632  -0.011  -0.57526  -0.00414  2.332532  -0.007  -0.231199  -0.499879  -0.008665  2.336132  -0.015
O  O54  1  0.62658773  0.85792860  0.72337049  1  -0.50481  0.031432  2.329174  0.053  -0.448239  0.031209  2.586656  0.05  -0.477308  0.025296  2.576796  0.04  -0.396561  -0.425021  0.034487  2.593587  0.055
O  O55  1  0.37341393  0.14206925  0.27662990  1  -0.504859  -0.031431  2.329228  -0.053  -0.448289  -0.03121  2.586698  -0.05  -0.477366  -0.025297  2.576849  -0.04  -0.396613  -0.425067  -0.034486  2.593632  -0.055
