# generated using pymatgen
data_HgH9C8N(ClO)2
_symmetry_space_group_name_H-M   'P 1'
_cell_length_a   7.64288395
_cell_length_b   9.40663359
_cell_length_c   15.38704841
_cell_angle_alpha   90.00049296
_cell_angle_beta   98.55356034
_cell_angle_gamma   89.99918363
_symmetry_Int_Tables_number   1
_chemical_formula_structural   HgH9C8N(ClO)2
_chemical_formula_sum   'Hg4 H36 C32 N4 Cl8 O8'
_cell_volume   1093.92916794
_cell_formula_units_Z   4
loop_
 _symmetry_equiv_pos_site_id
 _symmetry_equiv_pos_as_xyz
  1  'x, y, z'
loop_
 _atom_site_type_symbol
 _atom_site_label
 _atom_site_symmetry_multiplicity
 _atom_site_fract_x
 _atom_site_fract_y
 _atom_site_fract_z
 _atom_site_occupancy
 _atom_site_pbe_bader_spin_density
 _atom_site_pbe_cm5_charge
 _atom_site_pbe_ddec_charge
 _atom_site_pbe_ddec_spin_density
 _atom_site_pbe_ddec_sum_bond_order
 _atom_site_pbe_magmom
Hg  Hg0  1  0.12456026  0.20061918  0.27315871  1  0  0.507673  0.596989  0  2.59425  0
Hg  Hg1  1  0.37543984  0.70062017  0.72684065  1  0  0.50765  0.596937  0  2.594283  0
Hg  Hg2  1  0.87543956  0.79938374  0.72684454  1  0  0.50769  0.596987  0  2.594236  0
Hg  Hg3  1  0.62455881  0.29938276  0.27315535  1  0  0.507645  0.596883  0  2.594243  0
H  H4  1  0.12528032  0.62973106  0.24642593  1  0  0.104056  0.120405  0  1.036771  0
H  H5  1  0.37471820  0.12973493  0.75357683  1  0  0.104048  0.120398  0  1.036814  0
H  H6  1  0.87472221  0.37026761  0.75357428  1  0  0.104052  0.120398  0  1.036791  0
H  H7  1  0.62528700  0.87026586  0.24642230  1  0  0.104056  0.120431  0  1.036757  0
H  H8  1  0.30707402  0.58389103  0.39280728  1  0  0.095111  0.110873  0  1.030408  0
H  H9  1  0.19292259  0.08389285  0.60719573  1  0  0.095108  0.110885  0  1.030402  0
H  H10  1  0.69292447  0.41610976  0.60719586  1  0  0.095158  0.110941  0  1.030466  0
H  H11  1  0.80707996  0.91610369  0.39280383  1  0  0.095114  0.110862  0  1.030462  0
H  H12  1  0.40820853  0.79283729  0.49012487  1  0  0.091839  0.11171  0  1.054556  0
H  H13  1  0.09179798  0.29283679  0.50987615  1  0  0.091872  0.111761  0  1.054551  0
H  H14  1  0.59178610  0.20716776  0.50987277  1  0  0.091828  0.111673  0  1.054558  0
H  H15  1  0.90820190  0.70716081  0.49012385  1  0  0.091876  0.111744  0  1.054519  0
H  H16  1  0.32447601  0.03983368  0.43425544  1  0  0.110077  0.091769  0  1.010543  0
H  H17  1  0.17552804  0.53983367  0.56574272  1  0  0.110013  0.09167  0  1.010434  0
H  H18  1  0.67552125  0.96016499  0.56574306  1  0  0.110063  0.091748  0  1.010512  0
H  H19  1  0.82446918  0.46016181  0.43425772  1  0  0.110025  0.09167  0  1.010438  0
H  H20  1  0.93211223  0.86995092  0.00519653  1  0  0.107095  0.079916  0  0.993582  0
H  H21  1  0.56788767  0.36995640  0.99480191  1  0  0.107084  0.079936  0  0.993614  0
H  H22  1  0.06789157  0.13005093  0.99480573  1  0  0.107084  0.079901  0  0.99358  0
H  H23  1  0.43210823  0.63004546  0.00519843  1  0  0.107098  0.079925  0  0.993618  0
H  H24  1  0.74314994  0.85975959  0.06023062  1  0  0.106594  0.079297  0  0.983386  0
H  H25  1  0.75685797  0.35976105  0.93977295  1  0  0.106648  0.079419  0  0.983317  0
H  H26  1  0.25685521  0.14024120  0.93977110  1  0  0.106607  0.079301  0  0.983372  0
H  H27  1  0.24313923  0.64024400  0.06022879  1  0  0.106623  0.079369  0  0.983358  0
H  H28  1  0.72217657  0.67243424  0.94414417  1  0  0.088505  0.141148  0  1.032666  0
H  H29  1  0.77781989  0.17243802  0.05585488  1  0  0.088509  0.141157  0  1.032665  0
H  H30  1  0.27782595  0.32756443  0.05585669  1  0  0.088516  0.141152  0  1.032644  0
H  H31  1  0.22217868  0.82756277  0.94414437  1  0  0.088498  0.141151  0  1.032677  0
H  H32  1  0.75771497  0.58841156  0.04936007  1  0  0.082294  0.120125  0  1.032967  0
H  H33  1  0.74228681  0.08841334  0.95063960  1  0  0.082305  0.120128  0  1.033038  0
H  H34  1  0.24229019  0.41158817  0.95064100  1  0  0.0823  0.120151  0  1.033032  0
H  H35  1  0.25770913  0.91159171  0.04935879  1  0  0.082283  0.120131  0  1.033032  0
H  H36  1  0.93447455  0.60729842  0.98663230  1  0  0.082717  0.124042  0  1.038503  0
H  H37  1  0.56552295  0.10730195  0.01336778  1  0  0.082712  0.124057  0  1.038446  0
H  H38  1  0.06552528  0.39270769  0.01337030  1  0  0.082704  0.124046  0  1.038465  0
H  H39  1  0.43447564  0.89270098  0.98663082  1  0  0.082707  0.124056  0  1.038459  0
C  C40  1  0.13458546  0.85752675  0.26372699  1  0  0.111984  0.085546  0  3.980752  0
C  C41  1  0.36542526  0.35752730  0.73627601  1  0  0.112028  0.085645  0  3.980568  0
C  C42  1  0.86541451  0.14247617  0.73626912  1  0  0.111967  0.085569  0  3.980665  0
C  C43  1  0.63457591  0.64247455  0.26372539  1  0  0.111987  0.085586  0  3.980662  0
C  C44  1  0.17389173  0.71745640  0.28970469  1  0  -0.072226  -0.122851  0  3.916455  0
C  C45  1  0.32610674  0.21745280  0.71029593  1  0  -0.072177  -0.122743  0  3.916267  0
C  C46  1  0.82610950  0.28254545  0.71029412  1  0  -0.072189  -0.122772  0  3.916314  0
C  C47  1  0.67389317  0.78254481  0.28970277  1  0  -0.0722  -0.122867  0  3.916403  0
C  C48  1  0.27364326  0.69280358  0.37188605  1  0  -0.065357  -0.019273  0  3.911347  0
C  C49  1  0.22635822  0.19280424  0.62811663  1  0  -0.065367  -0.019328  0  3.911383  0
C  C50  1  0.72635541  0.30719615  0.62810930  1  0  -0.065475  -0.019443  0  3.911534  0
C  C51  1  0.77364957  0.80719337  0.37188530  1  0  -0.065409  -0.019232  0  3.911291  0
C  C52  1  0.32989232  0.80821155  0.42562377  1  0  -0.074169  -0.094263  0  3.925989  0
C  C53  1  0.17011394  0.30821211  0.57437731  1  0  -0.074235  -0.094357  0  3.92597  0
C  C54  1  0.67010757  0.19178712  0.57437558  1  0  -0.074165  -0.094243  0  3.926097  0
C  C55  1  0.82988200  0.69178125  0.42562107  1  0  -0.074219  -0.094364  0  3.926236  0
C  C56  1  0.28440818  0.94503845  0.39543058  1  0  0.05298  0.096892  0  3.904087  0
C  C57  1  0.21560374  0.44503890  0.60457429  1  0  0.05308  0.096995  0  3.903937  0
C  C58  1  0.71559439  0.05495916  0.60456768  1  0  0.053006  0.096919  0  3.903976  0
C  C59  1  0.78439483  0.55495977  0.39542561  1  0  0.053075  0.097033  0  3.904025  0
C  C60  1  0.02732957  0.89318352  0.17678625  1  0  0.239404  0.479798  0  4.122235  0
C  C61  1  0.47266611  0.39317022  0.82321185  1  0  0.239248  0.479467  0  4.121659  0
C  C62  1  0.97267302  0.10681302  0.82321136  1  0  0.239363  0.479651  0  4.122413  0
C  C63  1  0.52733118  0.60681675  0.17678599  1  0  0.239257  0.479482  0  4.122245  0
C  C64  1  0.86028024  0.80182736  0.04585008  1  0  -0.064531  0.091033  0  3.819737  0
C  C65  1  0.63972079  0.30183037  0.95414743  1  0  -0.064588  0.090819  0  3.819851  0
C  C66  1  0.13971834  0.19817237  0.95414917  1  0  -0.064509  0.09109  0  3.8196  0
C  C67  1  0.36027643  0.69817149  0.04585301  1  0  -0.064564  0.090923  0  3.819797  0
C  C68  1  0.81635764  0.65877615  0.00466542  1  0  -0.259054  -0.415841  0  3.956724  0
C  C69  1  0.68364303  0.15877710  0.99533324  1  0  -0.259067  -0.415835  0  3.956702  0
C  C70  1  0.18364355  0.34122677  0.99533534  1  0  -0.25907  -0.415902  0  3.956625  0
C  C71  1  0.31635555  0.84122476  0.00466601  1  0  -0.25903  -0.415848  0  3.956712  0
N  N72  1  0.18968039  0.96822634  0.31633910  1  0  -0.294292  -0.182863  0  3.560018  0
N  N73  1  0.31032591  0.46822786  0.68366285  1  0  -0.294279  -0.182804  0  3.559797  0
N  N74  1  0.81032347  0.03177446  0.68366057  1  0  -0.294286  -0.182843  0  3.559938  0
N  N75  1  0.68966869  0.53176975  0.31633608  1  0  -0.294261  -0.182799  0  3.559646  0
Cl  Cl76  1  0.86628252  0.18229352  0.38947767  1  0  -0.283045  -0.461184  0  1.297043  0
Cl  Cl77  1  0.63371767  0.68229249  0.61052562  1  0  -0.283031  -0.461185  0  1.297087  0
Cl  Cl78  1  0.13371471  0.81771153  0.61052277  1  0  -0.283036  -0.46119  0  1.297065  0
Cl  Cl79  1  0.36628348  0.31770830  0.38947708  1  0  -0.28304  -0.461191  0  1.297079  0
Cl  Cl80  1  0.95707200  0.38229936  0.18476324  1  0  -0.252347  -0.373419  0  1.285434  0
Cl  Cl81  1  0.54292636  0.88230436  0.81523580  1  0  -0.252343  -0.373417  0  1.285402  0
Cl  Cl82  1  0.04292525  0.61769612  0.81523591  1  0  -0.252342  -0.373411  0  1.285393  0
Cl  Cl83  1  0.45706688  0.11769643  0.18476498  1  0  -0.252316  -0.373385  0  1.285401  0
O  O84  1  0.99100964  0.01513038  0.15145357  1  0  -0.260653  -0.441078  0  2.287286  0
O  O85  1  0.50898659  0.51514475  0.84855111  1  0  -0.260676  -0.441059  0  2.285992  0
O  O86  1  0.00898886  0.98486829  0.84854892  1  0  -0.260617  -0.440989  0  2.287293  0
O  O87  1  0.49101726  0.48485605  0.15144920  1  0  -0.260582  -0.440909  0  2.286848  0
O  O88  1  0.97464653  0.77723400  0.13028520  1  0  -0.154673  -0.218793  0  2.522659  0
O  O89  1  0.52536553  0.27723716  0.86971110  1  0  -0.154542  -0.218541  0  2.522932  0
O  O90  1  0.02534678  0.22276042  0.86971233  1  0  -0.154653  -0.218731  0  2.522699  0
O  O91  1  0.47463697  0.72276045  0.13029041  1  0  -0.154597  -0.218636  0  2.52277  0
