# generated using pymatgen
data_AgH2C2N2O3
_symmetry_space_group_name_H-M   'P 1'
_cell_length_a   5.22298140
_cell_length_b   5.81814733
_cell_length_c   16.90624277
_cell_angle_alpha   90.00247412
_cell_angle_beta   90.00235338
_cell_angle_gamma   113.82786685
_symmetry_Int_Tables_number   1
_chemical_formula_structural   AgH2C2N2O3
_chemical_formula_sum   'Ag4 H8 C8 N8 O12'
_cell_volume   469.95797122
_cell_formula_units_Z   4
loop_
 _symmetry_equiv_pos_site_id
 _symmetry_equiv_pos_as_xyz
  1  'x, y, z'
loop_
 _atom_site_type_symbol
 _atom_site_label
 _atom_site_symmetry_multiplicity
 _atom_site_fract_x
 _atom_site_fract_y
 _atom_site_fract_z
 _atom_site_occupancy
 _atom_site_hle17_bader_spin_density
 _atom_site_hle17_ddec_charge
 _atom_site_hle17_ddec_spin_density
 _atom_site_hle17_ddec_sum_bond_order
 _atom_site_hle17_magmom
 _atom_site_hse06_10hf_bader_spin_density
 _atom_site_hse06_10hf_ddec_charge
 _atom_site_hse06_10hf_ddec_spin_density
 _atom_site_hse06_10hf_ddec_sum_bond_order
 _atom_site_hse06_10hf_magmom
 _atom_site_hse06_bader_spin_density
 _atom_site_hse06_ddec_charge
 _atom_site_hse06_ddec_spin_density
 _atom_site_hse06_ddec_sum_bond_order
 _atom_site_hse06_magmom
 _atom_site_pbe_bader_spin_density
 _atom_site_pbe_cm5_charge
 _atom_site_pbe_ddec_charge
 _atom_site_pbe_ddec_spin_density
 _atom_site_pbe_ddec_sum_bond_order
 _atom_site_pbe_magmom
Ag  Ag0  1  0.36841142  0.78387127  0.17960911  1  0  0.594515  0  1.277193  0  0  0.45764  0  1.710289  0  0  0.488412  0  1.661196  0  0  0.450022  0.436129  0  1.744765  0
Ag  Ag1  1  0.29441551  0.68883797  0.82433554  1  0  0.595653  0  1.268549  0  0  0.458862  0  1.697668  0  0  0.490041  0  1.649346  0  0  0.451679  0.436982  0  1.731703  0
Ag  Ag2  1  0.79443587  0.18883874  0.67566362  1  0  0.595583  0  1.268657  0  0  0.458831  0  1.697816  0  0  0.490015  0  1.649488  0  0  0.451671  0.436955  0  1.731844  0
Ag  Ag3  1  0.86843297  0.28386675  0.32039417  1  0  0.594529  0  1.277263  0  0  0.457591  0  1.710422  0  0  0.488459  0  1.661269  0  0  0.45008  0.436202  0  1.744802  0
H  H4  1  0.34016137  0.63248342  0.00473638  1  0  0.077553  0  0.938167  0  0  0.085086  0  1.006678  0  0  0.087033  0  1.003654  0  0  0.130985  0.083593  0  1.008847  0
H  H5  1  0.84020323  0.13249321  0.49526089  1  0  0.077558  0  0.938219  0  0  0.085024  0  1.006817  0  0  0.087005  0  1.003743  0  0  0.130973  0.083549  0  1.008955  0
H  H6  1  0.93571000  0.98562416  0.87067296  1  0  0.093969  0  0.961494  0  0  0.102259  0  1.029219  0  0  0.105064  0  1.024685  0  0  0.120808  0.100069  0  1.0327  0
H  H7  1  0.99873166  0.06731964  0.12432947  1  0  0.09322  0  0.956108  0  0  0.102268  0  1.022711  0  0  0.104789  0  1.018598  0  0  0.120754  0.100222  0  1.025898  0
H  H8  1  0.49872804  0.56729707  0.37566821  1  0  0.093189  0  0.955807  0  0  0.102204  0  1.022482  0  0  0.104754  0  1.018308  0  0  0.120713  0.10016  0  1.025648  0
H  H9  1  0.43572540  0.48560945  0.62932363  1  0  0.093965  0  0.961525  0  0  0.102241  0  1.029252  0  0  0.105046  0  1.024718  0  0  0.120796  0.100048  0  1.032739  0
H  H10  1  0.82071558  0.16512219  0.99480214  1  0  0.132997  0  0.93571  0  0  0.13962  0  0.996168  0  0  0.143523  0  0.995413  0  0  0.116909  0.136782  0  0.997011  0
H  H11  1  0.32072796  0.66509930  0.50519741  1  0  0.133098  0  0.935691  0  0  0.13966  0  0.996187  0  0  0.143572  0  0.995412  0  0  0.116904  0.136831  0  0.997016  0
C  C12  1  0.22589453  0.75320943  0.00238046  1  0  0.290433  0  3.682414  0  0  0.238033  0  3.940782  0  0  0.253514  0  3.95638  0  0  0.183555  0.22787  0  3.930038  0
C  C13  1  0.72592545  0.25320750  0.49762335  1  0  0.290412  0  3.682284  0  0  0.238105  0  3.940647  0  0  0.253588  0  3.956224  0  0  0.183547  0.227954  0  3.929883  0
C  C14  1  0.99956920  0.94735926  0.92872296  1  0  0.18962  0  3.640178  0  0  0.149602  0  3.891256  0  0  0.162134  0  3.906743  0  0  0.068193  0.141247  0  3.881157  0
C  C15  1  0.03494159  0.99298698  0.06835838  1  0  0.190149  0  3.638258  0  0  0.150082  0  3.890365  0  0  0.16268  0  3.905875  0  0  0.068886  0.14167  0  3.880288  0
C  C16  1  0.53495074  0.49296460  0.43165001  1  0  0.1901  0  3.638479  0  0  0.15  0  3.890641  0  0  0.162648  0  3.90604  0  0  0.068821  0.141656  0  3.880465  0
C  C17  1  0.49959295  0.44734265  0.57128042  1  0  0.189837  0  3.639794  0  0  0.149854  0  3.890844  0  0  0.162393  0  3.906328  0  0  0.068342  0.141495  0  3.880755  0
C  C18  1  0.93750086  0.04664082  0.99722194  1  0  -0.1498  0  3.652331  0  0  -0.153102  0  3.895578  0  0  -0.16685  0  3.918051  0  0  -0.069664  -0.144451  0  3.881057  0
C  C19  1  0.43751313  0.54663082  0.50276989  1  0  -0.150033  0  3.652395  0  0  -0.153216  0  3.895493  0  0  -0.166963  0  3.917965  0  0  -0.069657  -0.144553  0  3.880945  0
N  N20  1  0.17892092  0.84552511  0.07077677  1  0  -0.339354  0  3.297924  0  0  -0.253937  0  3.586065  0  0  -0.278434  0  3.601743  0  0  -0.338572  -0.237629  0  3.575362  0
N  N21  1  0.14379200  0.80029886  0.93140416  1  0  -0.33904  0  3.307969  0  0  -0.251955  0  3.594847  0  0  -0.276514  0  3.610665  0  0  -0.339643  -0.235587  0  3.58403  0
N  N22  1  0.64382619  0.30028947  0.56859359  1  0  -0.339055  0  3.308339  0  0  -0.252116  0  3.595328  0  0  -0.276674  0  3.611145  0  0  -0.339722  -0.235742  0  3.584519  0
N  N23  1  0.67893315  0.34551396  0.42921990  1  0  -0.339287  0  3.297549  0  0  -0.253926  0  3.585778  0  0  -0.278389  0  3.601377  0  0  -0.338528  -0.237589  0  3.574993  0
N  N24  1  0.64941180  0.42168325  0.16674290  1  0  0.680842  0  4.141099  0  0  0.70603  0  4.433327  0  0  0.733557  0  4.441297  0  0  0.088452  0.685829  0  4.427597  0
N  N25  1  0.58821893  0.34208738  0.83168781  1  0  0.679927  0  4.140254  0  0  0.717883  0  4.414122  0  0  0.734419  0  4.439875  0  0  0.087817  0.697583  0  4.408905  0
N  N26  1  0.08823744  0.84209869  0.66830991  1  0  0.679988  0  4.140151  0  0  0.717791  0  4.414225  0  0  0.734439  0  4.439831  0  0  0.087696  0.697484  0  4.409021  0
N  N27  1  0.14941215  0.92166270  0.33326090  1  0  0.681396  0  4.140332  0  0  0.704229  0  4.433034  0  0  0.73398  0  4.440631  0  0  0.088633  0.686257  0  4.426954  0
O  O28  1  0.62826415  0.56182433  0.22250299  1  0  -0.469506  0  1.866651  0  0  -0.437094  0  2.1303  0  0  -0.457145  0  2.119516  0  0  -0.198148  -0.422372  0  2.137413  0
O  O29  1  0.52758405  0.45683997  0.77480691  1  0  -0.467116  0  1.873956  0  0  -0.438521  0  2.132657  0  0  -0.455543  0  2.1274  0  0  -0.199038  -0.423534  0  2.139752  0
O  O30  1  0.02758932  0.95683003  0.72519468  1  0  -0.467025  0  1.873996  0  0  -0.438392  0  2.132801  0  0  -0.455447  0  2.127505  0  0  -0.19895  -0.423401  0  2.139899  0
O  O31  1  0.12827912  0.06181228  0.27750573  1  0  -0.469766  0  1.866599  0  0  -0.436275  0  2.130199  0  0  -0.45737  0  2.11957  0  0  -0.198237  -0.422584  0  2.137458  0
O  O32  1  0.76416163  0.26916723  0.18272191  1  0  -0.497126  0  1.90588  0  0  -0.463441  0  2.184683  0  0  -0.48273  0  2.169521  0  0  -0.201868  -0.449097  0  2.194881  0
O  O33  1  0.70438074  0.19185493  0.81471092  1  0  -0.496769  0  1.900146  0  0  -0.469056  0  2.17341  0  0  -0.484474  0  2.163591  0  0  -0.19972  -0.455043  0  2.183691  0
O  O34  1  0.20441133  0.69187392  0.68528143  1  0  -0.496876  0  1.89996  0  0  -0.469052  0  2.17323  0  0  -0.48451  0  2.163369  0  0  -0.199719  -0.455037  0  2.183515  0
O  O35  1  0.26414893  0.76914702  0.31727952  1  0  -0.497343  0  1.905725  0  0  -0.462573  0  2.184446  0  0  -0.482851  0  2.169366  0  0  -0.20186  -0.449217  0  2.194731  0
O  O36  1  0.56305644  0.43168902  0.09848443  1  0  -0.427159  0  1.772713  0  0  -0.415203  0  1.992313  0  0  -0.428359  0  1.987312  0  0  -0.169559  -0.405161  0  1.995584  0
O  O37  1  0.53693485  0.37471727  0.90204117  1  0  -0.43303  0  1.77489  0  0  -0.425349  0  1.990871  0  0  -0.435142  0  1.991457  0  0  -0.171875  -0.415139  0  1.994191  0
O  O38  1  0.03694656  0.87473878  0.59795904  1  0  -0.433025  0  1.774849  0  0  -0.42538  0  1.990986  0  0  -0.435207  0  1.991515  0  0  -0.17184  -0.415163  0  1.994298  0
O  O39  1  0.06305295  0.93166897  0.40151532  1  0  -0.427224  0  1.772381  0  0  -0.414309  0  1.992092  0  0  -0.428459  0  1.987086  0  0  -0.169634  -0.405268  0  1.995365  0
