# generated using pymatgen
data_Zn3H24C30(NO6)2
_symmetry_space_group_name_H-M   'P 1'
_cell_length_a   9.79306826
_cell_length_b   11.29473528
_cell_length_c   19.15770040
_cell_angle_alpha   90.00037749
_cell_angle_beta   90.00048543
_cell_angle_gamma   115.34120653
_symmetry_Int_Tables_number   1
_chemical_formula_structural   Zn3H24C30(NO6)2
_chemical_formula_sum   'Zn6 H48 C60 N4 O24'
_cell_volume   1915.13115853
_cell_formula_units_Z   2
loop_
 _symmetry_equiv_pos_site_id
 _symmetry_equiv_pos_as_xyz
  1  'x, y, z'
loop_
 _atom_site_type_symbol
 _atom_site_label
 _atom_site_symmetry_multiplicity
 _atom_site_fract_x
 _atom_site_fract_y
 _atom_site_fract_z
 _atom_site_occupancy
 _atom_site_pbe_bader_charge
 _atom_site_pbe_bader_spin_density
 _atom_site_pbe_cm5_charge
 _atom_site_pbe_ddec_charge
 _atom_site_pbe_ddec_spin_density
 _atom_site_pbe_ddec_sum_bond_order
 _atom_site_pbe_magmom
Zn  Zn0  1  0.00000331  0.50000507  0.99999838  1  1.426238  0  0.693519  1.024602  0  2.307795  0
Zn  Zn1  1  0.50000494  0.99999847  0.50000369  1  1.426546  0  0.69361  1.024744  0  2.307588  0
Zn  Zn2  1  0.63149099  0.45067093  0.00902006  1  1.34173  0  0.677853  0.932723  0  2.276108  0
Zn  Zn3  1  0.86850264  0.04931900  0.50901873  1  1.341784  0  0.677891  0.932765  0  2.275893  0
Zn  Zn4  1  0.36850111  0.54932095  0.99097887  1  1.341523  0  0.677799  0.93268  0  2.276106  0
Zn  Zn5  1  0.13148538  0.95067952  0.49097551  1  1.341862  0  0.677903  0.932796  0  2.276132  0
H  H6  1  0.49597301  0.19889257  0.82265136  1  0.105019  0  0.104393  0.110507  0  0.994474  0
H  H7  1  0.00403561  0.30112421  0.32265624  1  0.105073  0  0.104339  0.110404  0  0.99426  0
H  H8  1  0.50403495  0.80110267  0.17736114  1  0.105174  0  0.104423  0.110423  0  0.994594  0
H  H9  1  0.99597860  0.69889344  0.67735157  1  0.104954  0  0.104392  0.110384  0  0.99465  0
H  H10  1  0.49038074  0.10516812  0.70285704  1  0.095108  0  0.105528  0.113398  0  1.003072  0
H  H11  1  0.00959260  0.39482977  0.20286492  1  0.094632  0  0.105623  0.113575  0  1.003628  0
H  H12  1  0.50961667  0.89482199  0.29715129  1  0.130383  0  0.105584  0.113457  0  1.003368  0
H  H13  1  0.99041744  0.60520320  0.79714184  1  0.131205  0  0.105595  0.113447  0  1.003457  0
H  H14  1  0.97309264  0.24916958  0.70724252  1  0.073732  0  0.103248  0.10841  0  1.002809  0
H  H15  1  0.52688418  0.25079872  0.20722798  1  0.07339  0  0.103149  0.108179  0  1.002796  0
H  H16  1  0.02690467  0.75080700  0.29275903  1  0.074025  0  0.103225  0.108306  0  1.002946  0
H  H17  1  0.47309258  0.74919754  0.79275738  1  0.07389  0  0.103244  0.108309  0  1.003101  0
H  H18  1  0.97815098  0.34182939  0.82759014  1  0.095871  0  0.106471  0.11377  0  0.999572  0
H  H19  1  0.52188015  0.15816802  0.32757417  1  0.096008  0  0.106394  0.113785  0  1.000117  0
H  H20  1  0.02189432  0.65817371  0.17241766  1  0.096221  0  0.10638  0.11373  0  0.999886  0
H  H21  1  0.47811772  0.84182306  0.67241745  1  0.096089  0  0.106416  0.113782  0  0.999959  0
H  H22  1  0.09542899  0.78695616  0.93376781  1  0.111733  0  0.113205  0.145116  0  1.000557  0
H  H23  1  0.40455125  0.71304395  0.43376574  1  0.111637  0  0.113231  0.145149  0  1.000459  0
H  H24  1  0.90458574  0.21305377  0.06623843  1  0.111779  0  0.113235  0.145203  0  1.000702  0
H  H25  1  0.59544620  0.28696837  0.56621962  1  0.111464  0  0.113226  0.145203  0  1.000425  0
H  H26  1  0.08584865  0.99514711  0.89323672  1  0.10386  0  0.125672  0.104707  0  0.984699  0
H  H27  1  0.41413149  0.50484542  0.39323126  1  0.103577  0  0.125734  0.104809  0  0.984506  0
H  H28  1  0.91414763  0.00486711  0.10676952  1  0.103662  0  0.125742  0.104782  0  0.984737  0
H  H29  1  0.58586617  0.49515628  0.60675933  1  0.103759  0  0.125644  0.104617  0  0.984595  0
H  H30  1  0.97187424  0.11202708  0.86907586  1  0.075612  0  0.114894  0.131425  0  0.981886  0
H  H31  1  0.52812023  0.38798457  0.36905248  1  0.076532  0  0.114852  0.131344  0  0.98194  0
H  H32  1  0.02810387  0.88797211  0.13093247  1  0.076423  0  0.114862  0.131388  0  0.981797  0
H  H33  1  0.47188555  0.61203476  0.63092975  1  0.075894  0  0.114877  0.131423  0  0.981779  0
H  H34  1  0.85228604  0.11900577  0.93685097  1  0.111433  0  0.105479  0.128371  0  1.034613  0
H  H35  1  0.64770243  0.38099258  0.43683227  1  0.110858  0  0.105515  0.128497  0  1.034576  0
H  H36  1  0.14769584  0.88098388  0.06315945  1  0.110895  0  0.105506  0.128447  0  1.034508  0
H  H37  1  0.35228267  0.61901068  0.56316093  1  0.111438  0  0.105445  0.128403  0  1.034587  0
H  H38  1  0.77242975  0.03443306  0.85749977  1  0.076789  0  0.109576  0.129493  0  0.990147  0
H  H39  1  0.72756274  0.46557251  0.35748279  1  0.076937  0  0.109516  0.129435  0  0.99006  0
H  H40  1  0.22756066  0.96556843  0.14251221  1  0.077157  0  0.109589  0.129553  0  0.989886  0
H  H41  1  0.27243194  0.53442718  0.64251249  1  0.077115  0  0.10955  0.129476  0  0.990002  0
H  H42  1  0.63819073  0.97698361  0.98155590  1  0.024769  0  0.097657  0.138607  0  0.993207  0
H  H43  1  0.86179943  0.52300149  0.48154350  1  0.024902  0  0.09764  0.13864  0  0.993122  0
H  H44  1  0.36179038  0.02300215  0.01844564  1  0.024663  0  0.09769  0.138754  0  0.993162  0
H  H45  1  0.13819273  0.47699716  0.51845700  1  0.024936  0  0.097643  0.1386  0  0.993069  0
H  H46  1  0.52246506  0.80960082  0.00045009  1  0.129416  0  0.098529  0.146434  0  1.036856  0
H  H47  1  0.97753296  0.69039033  0.50044144  1  0.129744  0  0.098464  0.14629  0  1.036962  0
H  H48  1  0.47751528  0.19038106  0.99955354  1  0.129745  0  0.098502  0.146445  0  1.036901  0
H  H49  1  0.02246225  0.30960165  0.49955645  1  0.129652  0  0.098455  0.146264  0  1.036869  0
H  H50  1  0.53686301  0.86746451  0.91357706  1  0.061833  0  0.097172  0.139797  0  1.000479  0
H  H51  1  0.96314829  0.63254012  0.41356031  1  0.06173  0  0.097122  0.139714  0  1.000191  0
H  H52  1  0.46311720  0.13251929  0.08641979  1  0.061812  0  0.097201  0.139886  0  1.000615  0
H  H53  1  0.03684918  0.36745674  0.58644176  1  0.061757  0  0.097165  0.139764  0  1.000123  0
C  C54  1  0.73981605  0.32432620  0.90474290  1  1.591071  0  0.214507  0.592069  0  4.184266  0
C  C55  1  0.76018232  0.17566600  0.40475257  1  1.590732  0  0.214512  0.592138  0  4.18343  0
C  C56  1  0.26019738  0.67564988  0.09524716  1  1.590359  0  0.214661  0.592371  0  4.183138  0
C  C57  1  0.23982107  0.82435036  0.59524897  1  1.590588  0  0.214745  0.592378  0  4.182286  0
C  C58  1  0.73720011  0.27371381  0.83216623  1  -0.101819  0  -0.014769  -0.026038  0  3.959974  0
C  C59  1  0.76277446  0.22626271  0.33216098  1  -0.101751  0  -0.014825  -0.025861  0  3.959208  0
C  C60  1  0.26281252  0.72627384  0.16784367  1  -0.11221  0  -0.014943  -0.02641  0  3.959729  0
C  C61  1  0.23719881  0.77372379  0.66786301  1  -0.111252  0  -0.01474  -0.026094  0  3.958952  0
C  C62  1  0.59954482  0.20854315  0.79696951  1  -0.060736  0  -0.087618  -0.103225  0  3.987377  0
C  C63  1  0.90044744  0.29148631  0.29695990  1  -0.060549  0  -0.087592  -0.10328  0  3.98671  0
C  C64  1  0.40047737  0.79145637  0.20303621  1  -0.050774  0  -0.087595  -0.102933  0  3.987646  0
C  C65  1  0.09951602  0.70852984  0.70304530  1  -0.050332  0  -0.087609  -0.102956  0  3.987657  0
C  C66  1  0.59645048  0.15701076  0.73074955  1  -0.043371  0  -0.086555  -0.099071  0  3.988475  0
C  C67  1  0.90358184  0.34301276  0.23074277  1  -0.041525  0  -0.086569  -0.099108  0  3.990015  0
C  C68  1  0.40357899  0.84297352  0.26925251  1  -0.077905  0  -0.086453  -0.099053  0  3.989351  0
C  C69  1  0.09643455  0.65701847  0.76925146  1  -0.078551  0  -0.086424  -0.098867  0  3.990069  0
C  C70  1  0.73121636  0.17110225  0.69838848  1  -0.048624  0  -0.021071  -0.040426  0  3.978225  0
C  C71  1  0.76881863  0.32889945  0.19840663  1  -0.050123  0  -0.021183  -0.040296  0  3.977786  0
C  C72  1  0.26878711  0.82886775  0.30158697  1  -0.048107  0  -0.021185  -0.040288  0  3.977513  0
C  C73  1  0.23121422  0.67111874  0.80158187  1  -0.048081  0  -0.021275  -0.040588  0  3.977391  0
C  C74  1  0.86924934  0.23860695  0.73304965  1  -0.060411  0  -0.088406  -0.107475  0  3.990375  0
C  C75  1  0.63074575  0.26137785  0.23305649  1  -0.059658  0  -0.088126  -0.107055  0  3.989738  0
C  C76  1  0.13072757  0.76137193  0.26693624  1  -0.061046  0  -0.088284  -0.107227  0  3.990535  0
C  C77  1  0.36929065  0.73864141  0.76693931  1  -0.060915  0  -0.088302  -0.10704  0  3.990566  0
C  C78  1  0.87222771  0.28958442  0.79956244  1  0.0337  0  -0.084452  -0.098312  0  3.981532  0
C  C79  1  0.62776164  0.21040541  0.29956645  1  0.032768  0  -0.084537  -0.098598  0  3.982647  0
C  C80  1  0.12778270  0.71042056  0.20043546  1  0.033305  0  -0.084539  -0.098398  0  3.982362  0
C  C81  1  0.37223713  0.78958763  0.70044083  1  0.031969  0  -0.084603  -0.098665  0  3.983228  0
C  C82  1  0.72421927  0.11484489  0.62670073  1  1.581153  0  0.217072  0.588266  0  4.191122  0
C  C83  1  0.77577858  0.38515428  0.12669095  1  1.581205  0  0.21715  0.58805  0  4.190519  0
C  C84  1  0.27578648  0.88515222  0.37330761  1  1.580833  0  0.217157  0.588085  0  4.190595  0
C  C85  1  0.22422587  0.61484665  0.87331216  1  1.580433  0  0.217229  0.588287  0  4.189319  0
C  C86  1  0.72584076  0.72089063  0.97099326  1  0.673491  0  0.067598  0.124945  0  4.1316  0
C  C87  1  0.77416354  0.77910336  0.47097626  1  0.673392  0  0.067633  0.124888  0  4.13186  0
C  C88  1  0.27416752  0.27910752  0.02900986  1  0.673199  0  0.067624  0.124764  0  4.131306  0
C  C89  1  0.22584155  0.22090339  0.52901067  1  0.673819  0  0.067606  0.124937  0  4.131982  0
C  C90  1  0.86178990  0.70047548  0.96668872  1  0.681588  0  0.093491  0.293421  0  4.119142  0
C  C91  1  0.63822069  0.79952344  0.46668165  1  0.68126  0  0.093504  0.293446  0  4.118775  0
C  C92  1  0.13820938  0.29952530  0.03332014  1  0.681635  0  0.093521  0.293596  0  4.118442  0
C  C93  1  0.36177367  0.20047334  0.53330998  1  0.681208  0  0.093589  0.293547  0  4.118797  0
C  C94  1  0.99306533  0.80130836  0.93905593  1  0.01102  0  -0.111858  -0.256684  0  4.039292  0
C  C95  1  0.50692904  0.69869629  0.43905206  1  0.011294  0  -0.111802  -0.256612  0  4.039191  0
C  C96  1  0.00692606  0.19868640  0.06095606  1  0.010869  0  -0.111843  -0.256759  0  4.039393  0
C  C97  1  0.49306460  0.30130336  0.56094270  1  0.011475  0  -0.111853  -0.256859  0  4.039032  0
C  C98  1  0.98896677  0.91567405  0.91686559  1  0.364064  0  0.028222  -0.006666  0  4.001188  0
C  C99  1  0.51102954  0.58433118  0.41686077  1  0.364199  0  0.028053  -0.006961  0  4.001054  0
C  C100  1  0.01102494  0.08432361  0.08314222  1  0.36413  0  0.028054  -0.006767  0  4.001609  0
C  C101  1  0.48896074  0.41567224  0.58312825  1  0.3639  0  0.028229  -0.006386  0  4.00083  0
C  C102  1  0.73115881  0.84248473  0.95195417  1  0.419722  0  0.093764  0.118913  0  3.883651  0
C  C103  1  0.76883901  0.65752028  0.45194136  1  0.419744  0  0.093803  0.118956  0  3.884275  0
C  C104  1  0.26882852  0.15750122  0.04805051  1  0.420059  0  0.093854  0.119177  0  3.883357  0
C  C105  1  0.23116239  0.34248733  0.54804922  1  0.419425  0  0.09373  0.11895  0  3.884466  0
C  C106  1  0.86402764  0.05713270  0.89540801  1  0.23484  0  -0.130289  -0.290286  0  3.889842  0
C  C107  1  0.63596456  0.44287748  0.39539106  1  0.233875  0  -0.130145  -0.29018  0  3.890029  0
C  C108  1  0.13595363  0.94287335  0.10459771  1  0.234161  0  -0.130257  -0.290328  0  3.889903  0
C  C109  1  0.36402946  0.55713184  0.60459952  1  0.234165  0  -0.130184  -0.290188  0  3.889747  0
C  C110  1  0.60065515  0.87640563  0.96212218  1  -0.087609  0  -0.238542  -0.423272  0  3.958199  0
C  C111  1  0.89931766  0.62358243  0.46211243  1  -0.087803  0  -0.238362  -0.423095  0  3.958154  0
C  C112  1  0.39933491  0.12357074  0.03788301  1  -0.087936  0  -0.238606  -0.423591  0  3.958271  0
C  C113  1  0.10067444  0.37640945  0.53789068  1  -0.087767  0  -0.238429  -0.423091  0  3.958012  0
N  N114  1  0.86257435  0.93560725  0.92307591  1  -1.251042  0  -0.237072  0.065335  0  3.785391  0
N  N115  1  0.63743500  0.56439945  0.42306112  1  -1.250698  0  -0.237175  0.065282  0  3.785629  0
N  N116  1  0.13741037  0.06438634  0.07692981  1  -1.251225  0  -0.237122  0.065174  0  3.785983  0
N  N117  1  0.36256465  0.43561100  0.57692476  1  -1.250676  0  -0.23713  0.065004  0  3.785742  0
O  O118  1  0.62979810  0.35157758  0.92121598  1  -1.168859  0  -0.320505  -0.557451  0  2.325297  0
O  O119  1  0.87021773  0.14841643  0.42121612  1  -1.168772  0  -0.320485  -0.557578  0  2.324918  0
O  O120  1  0.37024173  0.64840701  0.07879078  1  -1.16835  0  -0.320556  -0.557598  0  2.324845  0
O  O121  1  0.12976737  0.85158684  0.57878334  1  -1.16888  0  -0.32055  -0.55764  0  2.324676  0
O  O122  1  0.84738940  0.33376480  0.94459762  1  -1.195124  0  -0.320072  -0.578201  0  2.336793  0
O  O123  1  0.65260926  0.16626202  0.44460105  1  -1.194696  0  -0.320005  -0.57818  0  2.336558  0
O  O124  1  0.15261035  0.66625918  0.05540288  1  -1.19481  0  -0.320004  -0.578199  0  2.336445  0
O  O125  1  0.34739602  0.83374957  0.55538901  1  -1.194562  0  -0.320236  -0.578409  0  2.336401  0
O  O126  1  0.84673168  0.11530877  0.60252429  1  -1.169353  0  -0.321017  -0.558534  0  2.334705  0
O  O127  1  0.65324937  0.38468363  0.10251920  1  -1.169576  0  -0.320913  -0.558422  0  2.33491  0
O  O128  1  0.15325493  0.88468005  0.39748352  1  -1.169475  0  -0.320941  -0.558487  0  2.335016  0
O  O129  1  0.34676571  0.61531376  0.89747556  1  -1.169316  0  -0.320946  -0.558514  0  2.334635  0
O  O130  1  0.59773856  0.07254942  0.59623324  1  -1.185472  0  -0.306838  -0.560427  0  2.39523  0
O  O131  1  0.90228040  0.42747005  0.09622471  1  -1.185231  0  -0.306897  -0.560466  0  2.395261  0
O  O132  1  0.40227836  0.92747410  0.40377561  1  -1.18553  0  -0.306872  -0.560459  0  2.395518  0
O  O133  1  0.09772052  0.57255203  0.90378362  1  -1.185207  0  -0.306846  -0.560539  0  2.3948  0
O  O134  1  0.60370270  0.62165261  0.99489963  1  -1.175721  0  -0.336449  -0.51393  0  2.498021  0
O  O135  1  0.89629026  0.87834250  0.49488617  1  -1.175489  0  -0.336436  -0.513796  0  2.498103  0
O  O136  1  0.39630863  0.37833887  0.00509722  1  -1.175317  0  -0.33638  -0.513777  0  2.497871  0
O  O137  1  0.10371465  0.12165942  0.50511015  1  -1.175838  0  -0.336432  -0.513873  0  2.498222  0
O  O138  1  0.85311382  0.58855250  0.98881326  1  -1.16267  0  -0.315765  -0.518125  0  2.523689  0
O  O139  1  0.64688732  0.91144948  0.48880041  1  -1.162555  0  -0.315854  -0.518179  0  2.523555  0
O  O140  1  0.14689677  0.41145731  0.01118933  1  -1.162536  0  -0.315754  -0.518215  0  2.523602  0
O  O141  1  0.35311520  0.08854947  0.51119383  1  -1.162782  0  -0.315805  -0.518204  0  2.523531  0
