# generated using pymatgen
data_Zn3H42C54(NO6)2
_symmetry_space_group_name_H-M   'P 1'
_cell_length_a   10.29138298
_cell_length_b   10.91526188
_cell_length_c   12.96461060
_cell_angle_alpha   75.72995406
_cell_angle_beta   67.27502202
_cell_angle_gamma   63.91415413
_symmetry_Int_Tables_number   1
_chemical_formula_structural   Zn3H42C54(NO6)2
_chemical_formula_sum   'Zn3 H42 C54 N2 O12'
_cell_volume   1201.29260310
_cell_formula_units_Z   1
loop_
 _symmetry_equiv_pos_site_id
 _symmetry_equiv_pos_as_xyz
  1  'x, y, z'
loop_
 _atom_site_type_symbol
 _atom_site_label
 _atom_site_symmetry_multiplicity
 _atom_site_fract_x
 _atom_site_fract_y
 _atom_site_fract_z
 _atom_site_occupancy
 _atom_site_pbe_bader_spin_density
 _atom_site_pbe_cm5_charge
 _atom_site_pbe_ddec_charge
 _atom_site_pbe_ddec_spin_density
 _atom_site_pbe_ddec_sum_bond_order
 _atom_site_pbe_magmom
Zn  Zn0  1  0.29720311  0.03629303  0.28165575  1  0  0.689337  0.831862  0  2.341971  0
Zn  Zn1  1  0.70279616  0.96370404  0.71834473  1  0  0.689302  0.83185  0  2.341915  0
Zn  Zn2  1  0.99999994  0.99999795  0.50000165  1  0  0.696388  1.037068  0  2.200344  0
H  H3  1  0.48556733  0.17960293  0.26885417  1  0  0.118134  0.089749  0  1.023029  0
H  H4  1  0.51442257  0.82040134  0.73114459  1  0  0.118145  0.089784  0  1.022972  0
H  H5  1  0.73665013  0.19225219  0.14843108  1  0  0.101582  0.108632  0  1.055737  0
H  H6  1  0.26333758  0.80775720  0.85156961  1  0  0.10157  0.108638  0  1.05571  0
H  H7  1  0.79191447  0.89601679  0.95123451  1  0  0.106422  0.121149  0  1.040366  0
H  H8  1  0.20808410  0.10398436  0.04876765  1  0  0.106448  0.121186  0  1.040446  0
H  H9  1  0.54004467  0.89186716  0.08304489  1  0  0.119407  0.099761  0  1.016559  0
H  H10  1  0.45995478  0.10813194  0.91695743  1  0  0.119395  0.099763  0  1.016573  0
H  H11  1  0.93689213  0.14944202  0.95157735  1  0  0.096915  0.100369  0  0.986817  0
H  H12  1  0.06309768  0.85056734  0.04842811  1  0  0.096882  0.100298  0  0.98684  0
H  H13  1  0.97704199  0.00462444  0.88816956  1  0  0.101648  0.111437  0  0.969746  0
H  H14  1  0.02295099  0.99538492  0.11183340  1  0  0.101636  0.11136  0  0.969814  0
H  H15  1  0.05183124  0.19356750  0.71960291  1  0  0.096884  0.094297  0  1.049779  0
H  H16  1  0.94817454  0.80643158  0.28039518  1  0  0.096886  0.094312  0  1.049684  0
H  H17  1  0.10702893  0.31548793  0.82772296  1  0  0.093826  0.087605  0  1.018473  0
H  H18  1  0.89297387  0.68451321  0.17227484  1  0  0.093865  0.087644  0  1.018664  0
H  H19  1  0.35009560  0.35254579  0.75116709  1  0  0.092235  0.088507  0  1.050158  0
H  H20  1  0.64991211  0.64745123  0.24883083  1  0  0.092224  0.0885  0  1.050216  0
H  H21  1  0.53828118  0.26737297  0.56852565  1  0  0.099083  0.102938  0  1.012232  0
H  H22  1  0.46172443  0.73262407  0.43146982  1  0  0.099075  0.102908  0  1.012276  0
H  H23  1  0.47864976  0.15079851  0.45959953  1  0  0.102006  0.101802  0  1.016252  0
H  H24  1  0.52135225  0.84919957  0.54039682  1  0  0.101988  0.101738  0  1.016196  0
H  H25  1  0.69421487  0.29592790  0.37884069  1  0  0.107234  0.113094  0  1.008068  0
H  H26  1  0.30578857  0.70408649  0.62116500  1  0  0.107227  0.113071  0  1.008043  0
H  H27  1  0.49035647  0.45031364  0.29268965  1  0  0.097892  0.095444  0  1.04964  0
H  H28  1  0.50964606  0.54969054  0.70731532  1  0  0.097889  0.095494  0  1.04964  0
H  H29  1  0.56221958  0.55051630  0.09484445  1  0  0.102006  0.101144  0  1.01031  0
H  H30  1  0.43778036  0.44947667  0.90515821  1  0  0.10205  0.101174  0  1.010192  0
H  H31  1  0.83743551  0.49467658  0.98267099  1  0  0.097367  0.091618  0  1.030862  0
H  H32  1  0.16256550  0.50531638  0.01732903  1  0  0.097354  0.091609  0  1.030844  0
H  H33  1  0.03852925  0.34020580  0.07004627  1  0  0.100676  0.097942  0  1.031364  0
H  H34  1  0.96147380  0.65979227  0.92995439  1  0  0.100619  0.097855  0  1.031393  0
H  H35  1  0.28149442  0.67962166  0.12936902  1  0  0.100858  0.098858  0  1.022446  0
H  H36  1  0.71850758  0.32037641  0.87063042  1  0  0.100845  0.098877  0  1.022377  0
H  H37  1  0.24627899  0.45840647  0.16004278  1  0  0.095809  0.091396  0  1.022081  0
H  H38  1  0.75372811  0.54158954  0.83995245  1  0  0.09583  0.091406  0  1.022088  0
H  H39  1  0.17820449  0.34572178  0.35327409  1  0  0.099491  0.104284  0  1.025114  0
H  H40  1  0.82180138  0.65427220  0.64671884  1  0  0.099509  0.104245  0  1.025142  0
H  H41  1  0.14503188  0.45151033  0.51567425  1  0  0.099481  0.09908  0  1.029844  0
H  H42  1  0.85496703  0.54848266  0.48432100  1  0  0.099469  0.099091  0  1.029752  0
H  H43  1  0.17463648  0.67377009  0.48516999  1  0  0.103963  0.118015  0  1.039595  0
H  H44  1  0.82535925  0.32622291  0.51483085  1  0  0.104012  0.118001  0  1.039593  0
C  C45  1  0.55773025  0.11851446  0.19764566  1  0  0.048868  0.101976  0  3.931969  0
C  C46  1  0.44225939  0.88149288  0.80235564  1  0  0.048761  0.101891  0  3.931918  0
C  C47  1  0.69752946  0.12451194  0.13022343  1  0  -0.087738  -0.187582  0  3.941498  0
C  C48  1  0.30246081  0.87549642  0.86977515  1  0  -0.087645  -0.187487  0  3.941498  0
C  C49  1  0.78632560  0.04375390  0.03987898  1  0  0.018024  0.177477  0  3.938065  0
C  C50  1  0.21366510  0.95625342  0.96012200  1  0  0.017962  0.177371  0  3.938067  0
C  C51  1  0.72919338  0.95878152  0.02188192  1  0  -0.080194  -0.166878  0  3.921927  0
C  C52  1  0.27080284  0.04122271  0.97812033  1  0  -0.080211  -0.166935  0  3.922121  0
C  C53  1  0.58881047  0.95708052  0.09310764  1  0  0.047448  0.089807  0  3.947933  0
C  C54  1  0.41118705  0.04292064  0.90689330  1  0  0.047489  0.089834  0  3.947954  0
C  C55  1  0.94071725  0.04419219  0.96918894  1  0  -0.150324  -0.194353  0  3.917513  0
C  C56  1  0.05927574  0.95581717  0.03081325  1  0  -0.150243  -0.1941  0  3.917357  0
C  C57  1  0.22138842  0.10423794  0.51428935  1  0  0.224288  0.607438  0  4.155357  0
C  C58  1  0.77860916  0.89575811  0.48571339  1  0  0.224235  0.60734  0  4.155397  0
C  C59  1  0.26129347  0.16580309  0.58319964  1  0  -0.023298  -0.052451  0  3.975269  0
C  C60  1  0.73871002  0.83419396  0.41679879  1  0  -0.023294  -0.052475  0  3.975265  0
C  C61  1  0.15789270  0.21013082  0.68784874  1  0  -0.086841  -0.092721  0  3.976353  0
C  C62  1  0.84211245  0.78986724  0.31215129  1  0  -0.086851  -0.092708  0  3.976245  0
C  C63  1  0.18923600  0.27830687  0.74743450  1  0  -0.098027  -0.092875  0  4.028357  0
C  C64  1  0.81077257  0.72168810  0.25256434  1  0  -0.098088  -0.092952  0  4.028542  0
C  C65  1  0.32553593  0.29971287  0.70432663  1  0  -0.091544  -0.072608  0  3.999114  0
C  C66  1  0.67447159  0.70028211  0.29567177  1  0  -0.091539  -0.072647  0  3.99916  0
C  C67  1  0.43081547  0.25269994  0.60124752  1  0  -0.097238  -0.094866  0  4.005073  0
C  C68  1  0.56918951  0.74729607  0.39874989  1  0  -0.097221  -0.094819  0  4.005105  0
C  C69  1  0.39843301  0.18675432  0.54055763  1  0  -0.083611  -0.085483  0  3.971942  0
C  C70  1  0.60157154  0.81324273  0.45943894  1  0  -0.083539  -0.085319  0  3.971759  0
C  C71  1  0.99785193  0.21526597  0.28282253  1  0  0.220225  0.594333  0  4.169513  0
C  C72  1  0.00215229  0.78473924  0.71717709  1  0  0.220184  0.594216  0  4.169763  0
C  C73  1  0.87785520  0.30980097  0.22990523  1  0  -0.020242  -0.040841  0  3.971876  0
C  C74  1  0.12214814  0.69020628  0.77009732  1  0  -0.020289  -0.041012  0  3.972094  0
C  C75  1  0.72324377  0.34095642  0.29233857  1  0  -0.0764  -0.085951  0  3.940881  0
C  C76  1  0.27675807  0.65905185  0.70766654  1  0  -0.076408  -0.085861  0  3.941136  0
C  C77  1  0.61022095  0.42650769  0.24373589  1  0  -0.089035  -0.085076  0  3.997133  0
C  C78  1  0.38978115  0.57349753  0.75626669  1  0  -0.088999  -0.085196  0  3.997474  0
C  C79  1  0.65094285  0.48220045  0.13218175  1  0  -0.086534  -0.078521  0  3.992612  0
C  C80  1  0.34905659  0.51779865  0.86782135  1  0  -0.086598  -0.078546  0  3.992606  0
C  C81  1  0.80497716  0.45140864  0.06952690  1  0  -0.093989  -0.096075  0  4.02355  0
C  C82  1  0.19502527  0.54858841  0.93047262  1  0  -0.093979  -0.096036  0  4.023545  0
C  C83  1  0.91812714  0.36528686  0.11801872  1  0  -0.087581  -0.102781  0  3.984419  0
C  C84  1  0.08187521  0.63471529  0.88198287  1  0  -0.087515  -0.102617  0  3.984317  0
C  C85  1  0.25800726  0.81688160  0.28426625  1  0  0.208069  0.575845  0  4.158955  0
C  C86  1  0.74198711  0.18311959  0.71573256  1  0  0.208076  0.575866  0  4.158623  0
C  C87  1  0.23006520  0.68920557  0.30531842  1  0  -0.020743  -0.04128  0  3.989525  0
C  C88  1  0.76992941  0.31079254  0.69468248  1  0  -0.020618  -0.041129  0  3.989393  0
C  C89  1  0.25002929  0.62880098  0.21348941  1  0  -0.086149  -0.105528  0  3.991588  0
C  C90  1  0.74997104  0.37119608  0.78650843  1  0  -0.086168  -0.105615  0  3.991483  0
C  C91  1  0.23029129  0.50607962  0.23102371  1  0  -0.096532  -0.099542  0  4.034623  0
C  C92  1  0.76971221  0.49391743  0.76897239  1  0  -0.096565  -0.09957  0  4.034675  0
C  C93  1  0.19206037  0.44238909  0.33977924  1  0  -0.083946  -0.068383  0  3.972963  0
C  C94  1  0.80794233  0.55760490  0.66021542  1  0  -0.083923  -0.068263  0  3.972882  0
C  C95  1  0.17344446  0.50186874  0.43114344  1  0  -0.089337  -0.080317  0  3.99363  0
C  C96  1  0.82655612  0.49812526  0.56885263  1  0  -0.089368  -0.080442  0  3.993754  0
C  C97  1  0.19094980  0.62561023  0.41437486  1  0  -0.082682  -0.091818  0  3.926107  0
C  C98  1  0.80904569  0.37438584  0.58562389  1  0  -0.082777  -0.0918  0  3.926303  0
N  N99  1  0.50359825  0.03597835  0.17952960  1  0  -0.334657  -0.23958  0  3.585663  0
N  N100  1  0.49639803  0.96402077  0.82047213  1  0  -0.334658  -0.239601  0  3.5856  0
O  O101  1  0.29879764  0.10395613  0.40977486  1  0  -0.321749  -0.569963  0  2.430591  0
O  O102  1  0.70120697  0.89603580  0.59022428  1  0  -0.321728  -0.569897  0  2.430689  0
O  O103  1  0.11467685  0.06027777  0.56272950  1  0  -0.311853  -0.552944  0  2.335816  0
O  O104  1  0.88532384  0.93972337  0.43727203  1  0  -0.311882  -0.552963  0  2.335677  0
O  O105  1  0.13762586  0.18038452  0.21836218  1  0  -0.322177  -0.548797  0  2.328846  0
O  O106  1  0.86237731  0.81962070  0.78163776  1  0  -0.322116  -0.548732  0  2.328958  0
O  O107  1  0.95478007  0.17638343  0.38601209  1  0  -0.305292  -0.56414  0  2.389419  0
O  O108  1  0.04522700  0.82361256  0.61399009  1  0  -0.305278  -0.564046  0  2.38954  0
O  O109  1  0.32702873  0.85537849  0.18693794  1  0  -0.307742  -0.540583  0  2.189692  0
O  O110  1  0.67295992  0.14462374  0.81306394  1  0  -0.307757  -0.540621  0  2.18944  0
O  O111  1  0.21583598  0.88640455  0.36860896  1  0  -0.321894  -0.582459  0  2.410394  0
O  O112  1  0.78416179  0.11359354  0.63139254  1  0  -0.32189  -0.582463  0  2.410271  0
