# generated using pymatgen
data_LaP2H13C6(NO3)2
_symmetry_space_group_name_H-M   'P 1'
_cell_length_a   5.78351092
_cell_length_b   10.07741237
_cell_length_c   11.44994380
_cell_angle_alpha   85.04577754
_cell_angle_beta   89.06325793
_cell_angle_gamma   81.82877262
_symmetry_Int_Tables_number   1
_chemical_formula_structural   LaP2H13C6(NO3)2
_chemical_formula_sum   'La2 P4 H26 C12 N4 O12'
_cell_volume   658.08664210
_cell_formula_units_Z   2
loop_
 _symmetry_equiv_pos_site_id
 _symmetry_equiv_pos_as_xyz
  1  'x, y, z'
loop_
 _atom_site_type_symbol
 _atom_site_label
 _atom_site_symmetry_multiplicity
 _atom_site_fract_x
 _atom_site_fract_y
 _atom_site_fract_z
 _atom_site_occupancy
 _atom_site_pbe_bader_charge
 _atom_site_pbe_bader_spin_density
 _atom_site_pbe_cm5_charge
 _atom_site_pbe_ddec_charge
 _atom_site_pbe_ddec_spin_density
 _atom_site_pbe_ddec_sum_bond_order
 _atom_site_pbe_magmom
La  La0  1  0.21496500  0.14721346  0.47126830  1  2.224566  0  1.46216  1.937549  0  2.367508  0
La  La1  1  0.78503539  0.85278612  0.52873150  1  2.224557  0  1.462166  1.937549  0  2.367566  0
P  P2  1  0.71550060  0.17526153  0.66616774  1  3.353293  0  0.334865  1.301716  0  5.414589  0
P  P3  1  0.66430104  0.16350946  0.31165646  1  3.420485  0  0.294923  1.287287  0  5.501645  0
P  P4  1  0.28449830  0.82473705  0.33383127  1  3.353401  0  0.334823  1.301629  0  5.414679  0
P  P5  1  0.33569936  0.83649011  0.68834246  1  3.420481  0  0.294938  1.287438  0  5.501603  0
H  H6  1  0.48759239  0.96914020  0.16736807  1  0.557569  0  0.301787  0.273975  0  0.991139  0
H  H7  1  0.02702237  0.27472499  0.74142841  1  0.031737  0  0.113824  0.117758  0  1.001778  0
H  H8  1  0.76586677  0.39233059  0.73154111  1  0.057741  0  0.106908  0.121377  0  0.97901  0
H  H9  1  0.66607478  0.38517449  0.47753514  1  0.094088  0  0.117347  0.097313  0  1.034366  0
H  H10  1  0.68075349  0.52823369  0.55696226  1  0.040342  0  0.106286  0.074654  0  1.002431  0
H  H11  1  0.03009520  0.54853070  0.66115929  1  0.051893  0  0.104642  0.08182  0  0.998157  0
H  H12  1  0.27579270  0.41921797  0.65597570  1  0.049127  0  0.109613  0.100966  0  0.995935  0
H  H13  1  0.91835313  0.01719858  0.20089178  1  0.134045  0  0.12868  0.14447  0  1.018024  0
H  H14  1  0.83310704  0.17277017  0.11601169  1  0.066352  0  0.120221  0.135331  0  0.970612  0
H  H15  1  0.83612517  0.98663940  0.96966532  1  0.095712  0  0.114138  0.09398  0  1.033585  0
H  H16  1  0.83940137  0.85541634  0.08624303  1  0.069528  0  0.124527  0.114055  0  0.957928  0
H  H17  1  0.34653585  0.20107997  0.09884727  1  0.120688  0  0.130153  0.13051  0  0.95524  0
H  H18  1  0.54755102  0.19125810  0.97727686  1  0.102929  0  0.117817  0.110454  0  0.978844  0
H  H19  1  0.51240651  0.03085837  0.83263094  1  0.557572  0  0.301792  0.273982  0  0.991146  0
H  H20  1  0.97297283  0.72527461  0.25857055  1  0.031662  0  0.11382  0.117764  0  1.001792  0
H  H21  1  0.23412843  0.60766902  0.26845873  1  0.055678  0  0.106898  0.12136  0  0.978982  0
H  H22  1  0.33392885  0.61482607  0.52246368  1  0.094106  0  0.117339  0.097312  0  1.034359  0
H  H23  1  0.31924494  0.47176692  0.44303921  1  0.04036  0  0.106295  0.074677  0  1.002435  0
H  H24  1  0.96990796  0.45147191  0.33884373  1  0.051975  0  0.104624  0.081762  0  0.99818  0
H  H25  1  0.72420919  0.58078262  0.34402574  1  0.049141  0  0.109597  0.100921  0  0.995953  0
H  H26  1  0.08164553  0.98280102  0.79910890  1  0.134042  0  0.128689  0.144474  0  1.018031  0
H  H27  1  0.16689359  0.82722841  0.88398819  1  0.066341  0  0.120212  0.135326  0  0.970605  0
H  H28  1  0.16387500  0.01336118  0.03033439  1  0.095717  0  0.11413  0.094001  0  1.033544  0
H  H29  1  0.16060053  0.14458424  0.91375667  1  0.069546  0  0.124535  0.114073  0  0.957904  0
H  H30  1  0.65346455  0.79891960  0.90115253  1  0.120674  0  0.130145  0.130506  0  0.955271  0
H  H31  1  0.45244938  0.80874147  0.02272294  1  0.102929  0  0.117836  0.110496  0  0.978827  0
C  C32  1  0.87821472  0.31586832  0.68399155  1  -0.208431  0  -0.075722  -0.378724  0  3.956538  0
C  C33  1  0.78213968  0.45399944  0.50310748  1  0.232289  0  -0.067045  -0.090454  0  3.897348  0
C  C34  1  0.12676638  0.47426263  0.60606595  1  0.284764  0  -0.069878  -0.092637  0  3.90956  0
C  C35  1  0.76878359  0.09351874  0.17446923  1  -0.29461  0  -0.067639  -0.368796  0  3.794482  0
C  C36  1  0.72779830  0.93169097  0.03034118  1  0.224139  0  -0.057547  -0.087724  0  3.797287  0
C  C37  1  0.44051788  0.13426593  0.03754368  1  0.211008  0  -0.054139  -0.08682  0  3.774082  0
C  C38  1  0.12178002  0.68413328  0.31600725  1  -0.206291  0  -0.075716  -0.378733  0  3.956551  0
C  C39  1  0.21786198  0.54600214  0.49689214  1  0.232282  0  -0.067032  -0.090476  0  3.897371  0
C  C40  1  0.87323355  0.52573897  0.39393455  1  0.284387  0  -0.069844  -0.092479  0  3.909393  0
C  C41  1  0.23121507  0.90648084  0.82553057  1  -0.294507  0  -0.067652  -0.368833  0  3.794418  0
C  C42  1  0.27220036  0.06830864  0.96966125  1  0.224123  0  -0.057522  -0.087734  0  3.797153  0
C  C43  1  0.55948252  0.86573364  0.96245524  1  0.211048  0  -0.054162  -0.086906  0  3.774115  0
N  N44  1  0.97310987  0.37702526  0.57536956  1  -1.036549  0  -0.367117  -0.143889  0  3.495317  0
N  N45  1  0.60111128  0.02964384  0.10848577  1  -1.028562  0  -0.337797  0.013713  0  3.537208  0
N  N46  1  0.02689109  0.62297935  0.42463069  1  -1.036277  0  -0.36714  -0.143895  0  3.495194  0
N  N47  1  0.39888934  0.97035473  0.89151410  1  -1.028634  0  -0.337801  0.013772  0  3.537041  0
O  O48  1  0.48846889  0.22716342  0.59983919  1  -1.476181  0  -0.446918  -0.807922  0  2.255229  0
O  O49  1  0.88576634  0.07451452  0.59846857  1  -1.480048  0  -0.474993  -0.858139  0  2.296226  0
O  O50  1  0.67886420  0.11707944  0.79286540  1  -1.469631  0  -0.391352  -0.758905  0  2.207771  0
O  O51  1  0.88028741  0.22145283  0.34620916  1  -1.469926  0  -0.446989  -0.790922  0  2.245175  0
O  O52  1  0.43543441  0.26042285  0.29762738  1  -1.483781  0  -0.433793  -0.807517  0  2.061665  0
O  O53  1  0.60716394  0.04090817  0.39306404  1  -1.474624  0  -0.496979  -0.864521  0  2.379016  0
O  O54  1  0.51152631  0.77283619  0.40016152  1  -1.476287  0  -0.446868  -0.807854  0  2.255205  0
O  O55  1  0.11423406  0.92548505  0.40153035  1  -1.480014  0  -0.474981  -0.858125  0  2.296225  0
O  O56  1  0.32113620  0.88292014  0.20713439  1  -1.469641  0  -0.391349  -0.758871  0  2.2078  0
O  O57  1  0.11971449  0.77854772  0.65378705  1  -1.469864  0  -0.447001  -0.790984  0  2.245191  0
O  O58  1  0.56456425  0.73957674  0.70237243  1  -1.483742  0  -0.433796  -0.807548  0  2.061733  0
O  O59  1  0.39283968  0.95909240  0.60693652  1  -1.474721  0  -0.496957  -0.864563  0  2.378993  0
