# generated using pymatgen
data_MnH20C23N4O5
_symmetry_space_group_name_H-M   'P 1'
_cell_length_a   9.48258104
_cell_length_b   9.97492075
_cell_length_c   12.85043399
_cell_angle_alpha   80.50850967
_cell_angle_beta   81.87232322
_cell_angle_gamma   63.05395924
_symmetry_Int_Tables_number   1
_chemical_formula_structural   MnH20C23N4O5
_chemical_formula_sum   'Mn2 H40 C46 N8 O10'
_cell_volume   1065.62587943
_cell_formula_units_Z   2
loop_
 _symmetry_equiv_pos_site_id
 _symmetry_equiv_pos_as_xyz
  1  'x, y, z'
loop_
 _atom_site_type_symbol
 _atom_site_label
 _atom_site_symmetry_multiplicity
 _atom_site_fract_x
 _atom_site_fract_y
 _atom_site_fract_z
 _atom_site_occupancy
 _atom_site_hle17_ddec_charge
 _atom_site_hle17_ddec_spin_density
 _atom_site_hle17_ddec_sum_bond_order
 _atom_site_hle17_magmom
 _atom_site_hse06_10hf_ddec_charge
 _atom_site_hse06_10hf_ddec_spin_density
 _atom_site_hse06_10hf_ddec_sum_bond_order
 _atom_site_hse06_10hf_magmom
 _atom_site_hse06_ddec_charge
 _atom_site_hse06_ddec_spin_density
 _atom_site_hse06_ddec_sum_bond_order
 _atom_site_hse06_magmom
 _atom_site_pbe_cm5_charge
 _atom_site_pbe_ddec_charge
 _atom_site_pbe_ddec_spin_density
 _atom_site_pbe_ddec_sum_bond_order
 _atom_site_pbe_magmom
Mn  Mn0  1  0.33685335  0.17311387  0.09683097  1  1.107751  4.790966  1.847909  4.665  0.940623  4.704899  2.355776  4.512  0.998689  4.759475  2.285255  4.584  0.607415  0.895263  4.642353  2.409321  4.437
Mn  Mn1  1  0.66315244  0.82688644  0.90316906  1  1.107882  -4.790958  1.847743  -4.665  0.940729  -4.7049  2.355638  -4.512  0.998783  -4.759473  2.285127  -4.584  0.607448  0.895368  -4.642356  2.409185  -4.437
H  H2  1  0.91346502  0.66476328  0.07100193  1  0.117982  9.3e-05  0.967559  0.0  0.123749  2.2e-05  1.038451  0.0  0.128199  5.4e-05  1.034603  0.0  0.109244  0.120358  -4.5e-05  1.041467  0.0
H  H3  1  0.08653494  0.33523587  0.92900122  1  0.117968  -8.9e-05  0.967493  0.0  0.123724  -2.2e-05  1.038404  0.0  0.128171  -5.4e-05  1.034553  0.0  0.109221  0.120317  4.5e-05  1.041438  0.0
H  H4  1  0.68337022  0.93822690  0.32595094  1  0.112755  -0.000251  0.977346  0.0  0.118033  -0.000157  1.049689  0.0  0.122273  -0.000198  1.046706  0.0  0.103673  0.115125  -0.000149  1.05171  0.0
H  H5  1  0.31663186  0.06176999  0.67405228  1  0.112767  0.000261  0.977242  0.0  0.118032  0.000157  1.049629  0.0  0.12227  0.000198  1.046648  0.0  0.103658  0.115124  0.000149  1.051649  0.0
H  H6  1  0.07039911  0.49152750  0.38603501  1  0.12411  -0.000124  0.956628  0.0  0.128175  6.1e-05  1.028746  0.0  0.133643  4e-06  1.023634  0.0  0.107922  0.124177  3.4e-05  1.032297  0.0
H  H7  1  0.92960617  0.50847167  0.61396678  1  0.124156  0.000134  0.956584  0.0  0.128136  -6.1e-05  1.028783  0.0  0.133604  -4e-06  1.023675  0.0  0.107913  0.124177  -3.4e-05  1.032294  0.0
H  H8  1  0.79824913  0.95260362  0.47789359  1  0.081705  0.0  0.94411  0.0  0.096888  1.6e-05  1.011744  0.0  0.097361  1e-05  1.012202  0.0  0.095311  0.096482  4e-06  1.011586  0.0
H  H9  1  0.20175085  0.04739780  0.52210926  1  0.081713  -6e-06  0.944075  0.0  0.096875  -1.7e-05  1.011724  0.0  0.097349  -1e-05  1.012184  0.0  0.095293  0.096469  -4e-06  1.011568  0.0
H  H10  1  0.78221465  0.84253377  0.60108606  1  0.112447  0.000295  0.938334  0.0  0.127542  0.000346  1.000547  0.0  0.128407  0.000353  1.001  0.0  0.109165  0.126709  0.00034  1.0005  0.0
H  H11  1  0.21778584  0.15746879  0.39891503  1  0.112454  -0.000299  0.93834  0.0  0.127522  -0.000346  1.00057  0.0  0.128387  -0.000353  1.001023  0.0  0.109156  0.126688  -0.00034  1.000523  0.0
H  H12  1  0.64137668  0.89541947  0.50475565  1  0.069491  -1.1e-05  0.955058  0.0  0.087108  -2e-06  1.024005  0.0  0.087288  -1e-06  1.023605  0.0  0.092559  0.086943  -3e-06  1.024364  0.0
H  H13  1  0.35862645  0.10457742  0.49524512  1  0.06949  7e-06  0.955055  0.0  0.087081  1e-06  1.024026  0.0  0.087263  1e-06  1.023627  0.0  0.09255  0.086923  3e-06  1.024378  0.0
H  H14  1  0.65855440  0.18651813  0.95148020  1  0.110765  0.000338  0.962276  0.0  0.120162  0.000616  1.02084  0.0  0.122647  0.000538  1.020022  0.0  0.11924  0.118511  0.000683  1.021323  0.0
H  H15  1  0.34144341  0.81347874  0.04852115  1  0.110821  -0.000337  0.962294  0.0  0.120211  -0.000616  1.020845  0.0  0.122688  -0.000537  1.02005  0.0  0.119255  0.118561  -0.000683  1.021328  0.0
H  H16  1  0.64366751  0.45661270  0.83456405  1  0.122315  0.00041  0.961743  0.0  0.131562  0.000451  1.023809  0.0  0.134228  0.000431  1.02281  0.0  0.121564  0.12945  0.000504  1.02476  0.0
H  H17  1  0.35633400  0.54338078  0.16543657  1  0.122337  -0.000418  0.961849  0.0  0.131576  -0.000451  1.023917  0.0  0.134242  -0.00043  1.02292  0.0  0.121573  0.129465  -0.000504  1.02487  0.0
H  H18  1  0.18230127  0.52004639  0.95653175  1  0.104798  -0.000212  0.955218  0.0  0.109705  -4.4e-05  1.026848  0.0  0.11263  -2.9e-05  1.02334  0.0  0.134933  0.10759  -3.7e-05  1.029262  0.0
H  H19  1  0.81769709  0.47995388  0.04346831  1  0.104787  0.000214  0.95519  0.0  0.109696  4.4e-05  1.026825  0.0  0.112622  2.9e-05  1.023316  0.0  0.134929  0.107581  3.7e-05  1.029239  0.0
H  H20  1  0.40393632  0.73918226  0.84569474  1  0.106194  0.000361  0.95173  0.0  0.117308  0.000268  1.018754  0.0  0.118792  0.000307  1.017703  0.0  0.119203  0.115952  0.000316  1.020132  0.0
H  H21  1  0.59606094  0.26081574  0.15430341  1  0.106199  -0.000336  0.951661  0.0  0.117302  -0.000268  1.018728  0.0  0.118788  -0.000307  1.017674  0.0  0.119215  0.115945  -0.000316  1.020108  0.0
H  H22  1  0.21204048  0.74622783  0.86668925  1  0.08676  1.3e-05  0.913169  0.0  0.10693  4.1e-05  0.966566  0.0  0.107711  3.5e-05  0.965751  0.0  0.118876  0.106301  4.3e-05  0.967246  0.0
H  H23  1  0.78795998  0.25377244  0.13330826  1  0.08676  1e-06  0.913274  0.0  0.106927  -4.1e-05  0.966679  0.0  0.107707  -3.4e-05  0.965864  0.0  0.118885  0.106296  -4.3e-05  0.967361  0.0
H  H24  1  0.14302172  0.61879293  0.72826604  1  0.094527  0.000126  0.974479  0.0  0.102903  8e-05  1.041954  0.0  0.104681  0.000112  1.042366  0.0  0.09933  0.101458  4.4e-05  1.041867  0.0
H  H25  1  0.85697871  0.38120508  0.27172943  1  0.09445  -0.000116  0.974517  0.0  0.102876  -8e-05  1.04193  0.0  0.104663  -0.000112  1.042316  0.0  0.099356  0.101433  -4.4e-05  1.041847  0.0
H  H26  1  0.14622906  0.61222755  0.53572840  1  0.097159  -2.2e-05  0.971305  0.0  0.104884  -1.2e-05  1.037062  0.0  0.107769  -1e-05  1.035902  0.0  0.099013  0.103073  9e-06  1.037659  0.0
H  H27  1  0.85376980  0.38777385  0.46426757  1  0.097111  -4e-06  0.971325  0.0  0.104831  1.2e-05  1.037076  0.0  0.107716  1e-05  1.035918  0.0  0.098965  0.103023  -9e-06  1.03767  0.0
H  H28  1  0.52733012  0.74363325  0.47805062  1  0.083574  3e-06  0.963144  0.0  0.09539  1.1e-05  1.025779  0.0  0.097508  7e-06  1.025624  0.0  0.096376  0.09374  1e-06  1.02615  0.0
H  H29  1  0.47267457  0.25636024  0.52194809  1  0.083556  -5e-06  0.963215  0.0  0.095418  -1.1e-05  1.025804  0.0  0.097538  -8e-06  1.025648  0.0  0.096388  0.093777  -1e-06  1.026167  0.0
H  H30  1  0.52106211  0.75380551  0.67146313  1  0.117041  0.000338  0.95879  0.0  0.127238  0.000403  1.019135  0.0  0.130554  0.000406  1.017139  0.0  0.107594  0.124818  0.000405  1.02059  0.0
H  H31  1  0.47894999  0.24617894  0.32853674  1  0.117063  -0.00033  0.958835  0.0  0.127266  -0.000403  1.019162  0.0  0.130581  -0.000406  1.01717  0.0  0.10763  0.124845  -0.000405  1.020618  0.0
H  H32  1  0.46724098  0.60788022  0.34603428  1  0.086347  -2.8e-05  0.938594  0.0  0.098701  -3e-06  1.005701  0.0  0.09904  0.0  1.00701  0.0  0.112721  0.098231  3.2e-05  1.005223  0.0
H  H33  1  0.53275364  0.39212797  0.65395893  1  0.086288  3.2e-05  0.938675  0.0  0.098701  3e-06  1.005723  0.0  0.099044  0.0  1.00704  0.0  0.112739  0.098221  -3.2e-05  1.005273  0.0
H  H34  1  0.27943895  0.60670837  0.36285618  1  0.091615  0.00011  0.920753  0.0  0.105527  0.000269  0.985304  0.0  0.106454  0.00019  0.984514  0.0  0.115628  0.104909  0.000187  0.985761  0.0
H  H35  1  0.72055408  0.39329867  0.63713890  1  0.091584  -0.000112  0.920747  0.0  0.105532  -0.000269  0.985313  0.0  0.106455  -0.00019  0.984525  0.0  0.115642  0.104916  -0.000187  0.985769  0.0
H  H36  1  0.48635488  0.85240082  0.27111430  1  0.089202  -0.00033  0.966604  0.0  0.096823  -6.8e-05  1.035879  0.0  0.098461  -0.000125  1.03419  0.0  0.130623  0.095068  -8.2e-05  1.037866  0.0
H  H37  1  0.51363977  0.14760738  0.72888435  1  0.089145  0.000314  0.966727  0.0  0.096839  6.7e-05  1.035921  0.0  0.098477  0.000124  1.034233  0.0  0.130632  0.095086  8.2e-05  1.037904  0.0
H  H38  1  0.01476144  0.12628443  0.19496660  1  0.098171  -9.2e-05  0.976739  0.0  0.107022  0.000103  1.038542  0.0  0.109196  3.2e-05  1.037696  0.0  0.115645  0.105321  0.000184  1.039499  0.0
H  H39  1  0.98523273  0.87372491  0.80503663  1  0.098071  8.8e-05  0.976685  0.0  0.106867  -0.000103  1.038564  0.0  0.109039  -3.2e-05  1.03772  0.0  0.115589  0.105167  -0.000184  1.039517  0.0
H  H40  1  0.03100858  0.86333043  0.31954265  1  0.106911  0.000236  0.996776  0.0  0.116466  0.000395  1.059025  0.0  0.11794  0.000293  1.059802  0.0  0.113749  0.114959  0.000352  1.059604  0.0
H  H41  1  0.96898448  0.13667889  0.68045525  1  0.106916  -0.000249  0.996776  0.0  0.116481  -0.000395  1.059014  0.0  0.117956  -0.000294  1.059789  0.0  0.113753  0.114975  -0.000352  1.059592  0.0
C  C42  1  0.12496065  0.41780542  0.18433614  1  0.617932  0.003807  3.93286  0.002  0.571579  0.007614  4.221158  0.004  0.604565  0.006122  4.215976  0.003  0.199088  0.549037  0.009108  4.223092  0.005
C  C43  1  0.87504249  0.58219148  0.81566540  1  0.618059  -0.003818  3.932889  -0.002  0.571744  -0.007612  4.221133  -0.004  0.604722  -0.00612  4.215945  -0.003  0.199145  0.549203  -0.009107  4.223068  -0.005
C  C44  1  0.00424640  0.56308092  0.22439733  1  -0.034539  -0.002456  3.783515  -0.002  -0.008222  -0.001726  4.019584  -0.002  -0.012691  -0.001992  4.038736  -0.002  -0.017818  -0.005743  -0.00056  4.007032  -0.001
C  C45  1  0.99575303  0.43691936  0.77560417  1  -0.034536  0.002419  3.783561  0.002  -0.008273  0.001723  4.019659  0.002  -0.012713  0.002003  4.03877  0.002  -0.017828  -0.005794  0.00056  4.007111  0.001
C  C46  1  0.90335356  0.67914736  0.15427958  1  -0.103611  -0.000211  3.707904  0.0  -0.146195  -0.000586  3.961061  0.0  -0.145066  -0.000116  3.97901  0.0  -0.088662  -0.147136  0.001059  3.949924  0.001
C  C47  1  0.09664535  0.32085179  0.84572524  1  -0.103566  0.000238  3.707743  0.0  -0.146129  0.000592  3.960891  0.0  -0.145002  0.000107  3.978825  0.0  -0.088617  -0.147053  -0.001059  3.949766  -0.001
C  C48  1  0.78945778  0.81355765  0.19169978  1  -0.047305  -0.000316  3.784188  0.0  -0.020268  -0.000121  4.018286  0.0  -0.027111  -0.000434  4.039587  0.0  -0.020677  -0.016198  0.000632  4.006301  0.001
C  C49  1  0.21054483  0.18644038  0.80830322  1  -0.047407  0.000287  3.784267  0.0  -0.020356  0.000118  4.018341  0.0  -0.027199  0.000435  4.039642  0.0  -0.020714  -0.0163  -0.000632  4.006378  -0.001
C  C50  1  0.77334125  0.83172143  0.29976995  1  -0.220782  0.00274  3.741969  0.002  -0.252891  0.003496  3.993361  0.003  -0.254037  0.002812  4.009234  0.002  -0.110385  -0.252431  0.000681  3.984469  0.001
C  C51  1  0.22666085  0.16827774  0.70023375  1  -0.220604  -0.002736  3.742058  -0.002  -0.25276  -0.003496  3.993422  -0.003  -0.253905  -0.002817  4.009308  -0.002  -0.1103  -0.252294  -0.000681  3.98453  -0.001
C  C52  1  0.87425808  0.71494306  0.36925798  1  0.249227  -0.001111  3.83943  -0.001  0.245117  -0.000258  4.101535  -0.001  0.254781  -0.000568  4.116182  -0.001  0.075116  0.238461  0.000179  4.091562  0.0
C  C53  1  0.12574771  0.28505497  0.63074235  1  0.248951  0.001075  3.839822  0.001  0.244972  0.000259  4.101785  0.001  0.254617  0.000576  4.116454  0.001  0.075022  0.238315  -0.000179  4.091818  0.0
C  C54  1  0.99169251  0.58137390  0.33127318  1  -0.181183  0.003473  3.691668  0.003  -0.221783  0.004496  3.955366  0.003  -0.221729  0.003499  3.968045  0.003  -0.096942  -0.221077  0.000826  3.946413  0.001
C  C55  1  0.00831383  0.41862528  0.66872927  1  -0.181201  -0.003459  3.691709  -0.003  -0.221721  -0.004493  3.955385  -0.003  -0.221674  -0.003511  3.968063  -0.003  -0.096885  -0.22105  -0.000825  3.946412  -0.001
C  C56  1  0.68023054  0.93773057  0.11708504  1  0.664055  -0.003751  3.867805  -0.004  0.609163  -0.004052  4.159665  -0.005  0.647364  -0.002919  4.148979  -0.004  0.220651  0.580947  -0.007486  4.167867  -0.007
C  C57  1  0.31977208  0.06226519  0.88291982  1  0.663905  0.003764  3.867781  0.004  0.609032  0.004052  4.1596  0.005  0.647235  0.002921  4.148914  0.004  0.220568  0.580818  0.007489  4.167801  0.007
C  C58  1  0.76639308  0.86195410  0.51631066  1  -0.076638  7.2e-05  3.628848  0.0  -0.17101  7.5e-05  3.891116  0.0  -0.164302  6.5e-05  3.89467  0.0  -0.140749  -0.175355  4.8e-05  3.888638  0.0
C  C59  1  0.23360794  0.13804733  0.48369052  1  -0.076676  -5.2e-05  3.628809  0.0  -0.17095  -7.3e-05  3.891108  0.0  -0.164241  -6.2e-05  3.894655  0.0  -0.140691  -0.175299  -4.8e-05  3.888625  0.0
C  C60  1  0.55813900  0.29575731  0.93563280  1  -0.002537  0.002117  3.744935  0.003  -0.03574  0.003622  4.018312  0.004  -0.033579  0.003056  4.037717  0.003  -0.002985  -0.036918  0.004084  4.004344  0.004
C  C61  1  0.44185669  0.70424181  0.06436771  1  -0.002675  -0.002151  3.745029  -0.003  -0.035876  -0.00362  4.018442  -0.004  -0.033716  -0.00305  4.037839  -0.003  -0.003037  -0.037056  -0.004083  4.004479  -0.004
C  C62  1  0.55315933  0.42585396  0.87678962  1  -0.065722  -0.000216  3.661707  0.0  -0.107262  0.000496  3.925199  0.0  -0.105595  3.7e-05  3.943526  0.0  -0.00316  -0.107898  0.000845  3.912484  0.0
C  C63  1  0.44683902  0.57414405  0.12321153  1  -0.065737  0.000249  3.661828  0.0  -0.107264  -0.000496  3.925325  0.0  -0.105597  -4.1e-05  3.943652  0.0  -0.003166  -0.107905  -0.000845  3.912614  0.0
C  C64  1  0.31049670  0.46328371  0.94172824  1  0.149319  0.004547  3.664956  0.005  0.091043  0.006351  3.93191  0.006  0.103474  0.005595  3.947339  0.005  0.140954  0.083006  0.00743  3.92079  0.007
C  C65  1  0.68950005  0.53671542  0.05827215  1  0.14923  -0.004593  3.664997  -0.005  0.090958  -0.006349  3.93196  -0.006  0.10339  -0.005593  3.947388  -0.005  0.140918  0.082923  -0.007429  3.920839  -0.007
C  C66  1  0.33196675  0.68578617  0.82941607  1  -0.048396  0.000531  3.645931  0.0  -0.117392  0.000789  3.895074  0.001  -0.112655  0.000633  3.904937  0.0  -0.045793  -0.120589  0.000934  3.888582  0.001
C  C67  1  0.66803528  0.31420844  0.17058123  1  -0.048307  -0.000609  3.645974  -0.001  -0.117306  -0.000789  3.89506  -0.001  -0.112572  -0.00063  3.904947  0.0  -0.045754  -0.120504  -0.000934  3.888568  -0.001
C  C68  1  0.32968331  0.68958865  0.71176602  1  0.066649  4.1e-05  3.752084  0.0  0.085808  4e-05  3.991848  0.0  0.084678  1.4e-05  4.016031  0.0  -0.01371  0.086572  0.000254  3.975457  0.0
C  C69  1  0.67031871  0.31040596  0.28823050  1  0.066465  0.000105  3.75212  0.0  0.085699  -3.6e-05  3.991816  0.0  0.084548  -1.9e-05  4.016023  0.0  -0.013795  0.086463  -0.000254  3.975424  0.0
C  C70  1  0.22556521  0.64871154  0.67309450  1  -0.115696  -5.8e-05  3.75602  0.0  -0.135471  8e-06  4.003692  0.0  -0.137658  2.5e-05  4.026294  0.0  -0.09347  -0.133884  0.000182  3.988773  0.0
C  C71  1  0.77443523  0.35128647  0.32690175  1  -0.115519  -0.000105  3.755968  0.0  -0.135351  -9e-06  4.0036  0.0  -0.137527  -2e-05  4.02621  0.0  -0.093473  -0.133771  -0.000182  3.988687  0.0
C  C72  1  0.22840504  0.64359296  0.56504567  1  -0.114996  8.2e-05  3.750254  0.0  -0.131283  8e-06  3.993174  0.0  -0.134363  -9e-06  4.014959  0.0  -0.093815  -0.129394  -3e-06  3.97854  0.0
C  C73  1  0.77159487  0.35640618  0.43495048  1  -0.115022  9.2e-05  3.750227  0.0  -0.131295  -8e-06  3.993142  0.0  -0.134376  0.0  4.014928  0.0  -0.093787  -0.129407  3e-06  3.978512  0.0
C  C74  1  0.33644811  0.67852039  0.49407485  1  0.064666  1.2e-05  3.770268  0.0  0.082182  0.000117  4.009619  0.0  0.08175  0.000105  4.034014  0.0  -0.01653  0.082643  0.000312  3.992817  0.0
C  C75  1  0.66355446  0.32147762  0.50592194  1  0.064654  -0.000109  3.770209  0.0  0.082194  -0.00012  4.009599  0.0  0.081759  -9.2e-05  4.033994  0.0  -0.016495  0.082652  -0.000312  3.992803  0.0
C  C76  1  0.44034396  0.71969297  0.53291936  1  -0.120652  -9e-06  3.768881  0.0  -0.138132  -5.1e-05  4.016267  0.0  -0.141076  -6.4e-05  4.038833  0.0  -0.095442  -0.135935  5.7e-05  4.000569  0.0
C  C77  1  0.55966020  0.28030165  0.46707848  1  -0.120661  0.000137  3.768937  0.0  -0.138185  5.2e-05  4.016334  0.0  -0.141131  5.4e-05  4.0389  0.0  -0.095473  -0.135994  -5.7e-05  4.000632  0.0
C  C78  1  0.43703213  0.72607549  0.64088417  1  -0.118549  7.2e-05  3.737027  0.0  -0.136496  0.000173  3.981588  0.0  -0.138734  0.000181  4.002364  0.0  -0.09008  -0.134811  0.000152  3.96734  0.0
C  C79  1  0.56296992  0.27392140  0.35911438  1  -0.118498  -0.000229  3.737129  0.0  -0.136482  -0.000175  3.981706  0.0  -0.13871  -0.000176  4.002487  0.0  -0.090066  -0.134798  -0.000152  3.96746  0.0
C  C80  1  0.34373560  0.66880765  0.37735236  1  -0.048442  0.000449  3.667153  0.0  -0.115565  0.000576  3.918574  0.0  -0.110825  0.000455  3.928797  0.0  -0.046926  -0.118676  0.000886  3.911731  0.001
C  C81  1  0.65625955  0.33119714  0.62264357  1  -0.048166  -0.000479  3.667093  0.0  -0.115442  -0.000574  3.918685  0.0  -0.110707  -0.00046  3.928912  0.0  -0.046895  -0.118555  -0.000886  3.911837  -0.001
C  C82  1  0.35963095  0.89482743  0.26744703  1  0.153342  0.004567  3.672232  0.005  0.094768  0.006374  3.9387  0.006  0.107554  0.005527  3.953509  0.005  0.142343  0.087356  0.007356  3.927571  0.007
C  C83  1  0.64036210  0.10517962  0.73255194  1  0.153444  -0.004507  3.672259  -0.005  0.094769  -0.006376  3.938723  -0.006  0.10755  -0.005526  3.953534  -0.005  0.142364  0.087357  -0.007356  3.927592  -0.007
C  C84  1  0.11475939  0.03097877  0.23018317  1  0.001454  0.001432  3.763315  0.002  -0.029513  0.002718  4.025819  0.003  -0.027988  0.002223  4.046747  0.003  0.000323  -0.030946  0.003125  4.012465  0.003
C  C85  1  0.88523531  0.96903170  0.76981985  1  0.001766  -0.001418  3.763102  -0.002  -0.02917  -0.002718  4.025571  -0.003  -0.027641  -0.002222  4.046495  -0.003  0.000427  -0.030601  -0.003125  4.012215  -0.003
C  C86  1  0.12067250  0.90250563  0.29206082  1  -0.071813  -6.5e-05  3.683965  0.0  -0.107664  0.000675  3.931599  0.001  -0.106765  0.000247  3.952661  0.0  -0.004248  -0.108844  0.001154  3.919201  0.001
C  C87  1  0.87932163  0.09749916  0.70794067  1  -0.071963  9.6e-05  3.683895  0.0  -0.107815  -0.000674  3.931517  -0.001  -0.106915  -0.000244  3.952577  0.0  -0.00425  -0.108996  -0.001154  3.919119  -0.001
N  N88  1  0.40614971  0.32056092  0.97644269  1  -0.399774  0.026049  3.247419  0.011  -0.331627  0.028343  3.544077  0.008  -0.354412  0.025962  3.560771  0.006  -0.351276  -0.314765  0.030334  3.532048  0.009
N  N89  1  0.59384758  0.67943935  0.02355827  1  -0.399675  -0.025996  3.24725  -0.011  -0.331517  -0.028339  3.543879  -0.008  -0.354297  -0.025963  3.560568  -0.006  -0.351216  -0.314656  -0.03033  3.53185  -0.009
N  N90  1  0.39546933  0.53057160  0.88183307  1  -0.061935  0.001306  3.597253  0.001  0.034448  0.002498  3.812253  0.002  0.019223  0.001987  3.840014  0.002  -0.243369  0.044722  0.002923  3.793264  0.003
N  N91  1  0.60453113  0.46942414  0.11816736  1  -0.061919  -0.001281  3.597285  -0.001  0.034449  -0.0025  3.812325  -0.002  0.019223  -0.001986  3.840084  -0.002  -0.243395  0.044721  -0.002922  3.793339  -0.003
N  N92  1  0.27710966  0.81718377  0.31472376  1  -0.064933  0.001117  3.601466  0.001  0.029964  0.002215  3.815673  0.002  0.014844  0.00173  3.84286  0.002  -0.244476  0.039895  0.002654  3.797131  0.002
N  N93  1  0.72288338  0.18282101  0.68527396  1  -0.064966  -0.001128  3.601246  -0.001  0.029947  -0.002215  3.815555  -0.002  0.014825  -0.00173  3.842742  -0.002  -0.244567  0.039881  -0.002654  3.797013  -0.002
N  N94  1  0.26426696  0.02522893  0.21547771  1  -0.375949  0.024794  3.250909  0.011  -0.308961  0.027018  3.540322  0.009  -0.329961  0.024851  3.555763  0.008  -0.345125  -0.293886  0.029402  3.528958  0.011
N  N95  1  0.73572400  0.97478039  0.78452431  1  -0.376193  -0.024832  3.250862  -0.011  -0.309117  -0.02702  3.540231  -0.009  -0.330113  -0.024857  3.555661  -0.008  -0.345175  -0.294041  -0.029405  3.528871  -0.011
O  O96  1  0.08681934  0.36722816  0.11281395  1  -0.636498  0.026243  1.939398  0.019  -0.573598  0.032123  2.183341  0.023  -0.602651  0.028778  2.172525  0.02  -0.313369  -0.551595  0.036688  2.189341  0.027
O  O97  1  0.91319016  0.63277330  0.88718242  1  -0.636606  -0.026241  1.939353  -0.019  -0.573732  -0.032126  2.183303  -0.023  -0.602782  -0.028782  2.172491  -0.02  -0.313437  -0.551729  -0.03669  2.189306  -0.027
O  O98  1  0.26092149  0.35025866  0.22116321  1  -0.632549  0.022821  1.936929  0.017  -0.579587  0.030204  2.180332  0.022  -0.606749  0.02649  2.170922  0.019  -0.313424  -0.558745  0.033454  2.186146  0.026
O  O99  1  0.73908272  0.64973824  0.77884055  1  -0.632609  -0.022808  1.937024  -0.017  -0.579666  -0.030206  2.180451  -0.022  -0.606827  -0.026489  2.171044  -0.019  -0.31344  -0.558822  -0.033454  2.186267  -0.026
O  O100  1  0.70728026  0.92733211  0.01818590  1  -0.645536  -0.027682  2.078895  -0.012  -0.58433  -0.033072  2.360314  -0.013  -0.613266  -0.030318  2.342076  -0.011  -0.313973  -0.561998  -0.036209  2.372699  -0.016
O  O101  1  0.29272024  0.07266592  0.98181889  1  -0.645409  0.027683  2.078776  0.012  -0.584219  0.03307  2.360184  0.013  -0.613157  0.030317  2.341946  0.011  -0.313901  -0.561886  0.036206  2.372564  0.016
O  O102  1  0.56384863  0.04877071  0.15781713  1  -0.639741  0.025822  2.056222  0.011  -0.569924  0.028217  2.32347  0.008  -0.598648  0.026791  2.307465  0.007  -0.311454  -0.548942  0.029929  2.335644  0.01
O  O103  1  0.43615187  0.95122731  0.84218689  1  -0.639676  -0.025834  2.056199  -0.011  -0.569844  -0.028217  2.323382  -0.008  -0.59856  -0.026789  2.307377  -0.007  -0.311436  -0.54887  -0.029928  2.335579  -0.01
O  O104  1  0.86920680  0.72099822  0.47568846  1  -0.260525  -0.000127  2.347175  0.0  -0.183923  -8.7e-05  2.585304  0.0  -0.201868  -0.000129  2.587807  0.0  -0.190419  -0.171327  -3.6e-05  2.58312  0.0
O  O105  1  0.13079477  0.27900207  0.52431436  1  -0.260364  0.000133  2.347287  0.0  -0.183889  8.8e-05  2.585436  0.0  -0.201825  0.00013  2.587943  0.0  -0.190422  -0.171293  3.6e-05  2.583248  0.0
