# generated using pymatgen
data_Zn6H34C58O27
_symmetry_space_group_name_H-M   'P 1'
_cell_length_a   18.59309055
_cell_length_b   18.78145331
_cell_length_c   18.86563366
_cell_angle_alpha   109.68544121
_cell_angle_beta   109.28745733
_cell_angle_gamma   109.11199346
_symmetry_Int_Tables_number   1
_chemical_formula_structural   Zn6H34C58O27
_chemical_formula_sum   'Zn6 H34 C58 O27'
_cell_volume   5091.80076498
_cell_formula_units_Z   1
loop_
 _symmetry_equiv_pos_site_id
 _symmetry_equiv_pos_as_xyz
  1  'x, y, z'
loop_
 _atom_site_type_symbol
 _atom_site_label
 _atom_site_symmetry_multiplicity
 _atom_site_fract_x
 _atom_site_fract_y
 _atom_site_fract_z
 _atom_site_occupancy
 _atom_site_pbe_bader_charge
 _atom_site_pbe_bader_spin_density
 _atom_site_pbe_cm5_charge
 _atom_site_pbe_ddec_charge
 _atom_site_pbe_ddec_spin_density
 _atom_site_pbe_ddec_sum_bond_order
 _atom_site_pbe_magmom
Zn  Zn0  1  0.50500071  0.93931429  0.93964416  1  1.308752  0  0.721706  0.953642  0  2.156645  0
Zn  Zn1  1  0.50290792  0.06375535  0.06268911  1  1.305932  0  0.716306  0.949174  0  2.141253  0
Zn  Zn2  1  0.06222317  0.06265165  0.50320277  1  1.305681  0  0.718619  0.945739  0  2.157914  0
Zn  Zn3  1  0.93770430  0.93572734  0.50023084  1  1.308619  0  0.716512  0.947948  0  2.153678  0
Zn  Zn4  1  0.06506543  0.49638542  0.06050529  1  1.307295  0  0.719392  0.947909  0  2.152916  0
Zn  Zn5  1  0.94161823  0.50092294  0.93929109  1  1.303754  0  0.720315  0.948554  0  2.126301  0
H  H6  1  0.90531759  0.14967472  0.33953146  1  0.103941  0  0.116278  0.114292  0  0.966231  0
H  H7  1  0.89972857  0.17986312  0.99490776  1  0.074883  0  0.099557  0.10834  0  0.98076  0
H  H8  1  0.77764406  0.96217239  0.28299975  1  0.108065  0  0.111314  0.127527  0  0.981433  0
H  H9  1  0.95073256  0.23539677  0.11030132  1  0.042607  0  0.099872  0.110009  0  0.979857  0
H  H10  1  0.76730814  0.07291607  0.98483044  1  0.088871  0  0.100051  0.113099  0  0.975995  0
H  H11  1  0.82000031  0.12607278  0.10014393  1  0.05182  0  0.093735  0.102426  0  0.998376  0
H  H12  1  0.82083404  0.09647194  0.61752145  1  0.105908  0  0.107078  0.111584  0  0.9899  0
H  H13  1  0.82352707  0.22496899  0.71625313  1  0.083037  0  0.107393  0.111946  0  0.989172  0
H  H14  1  0.16680921  0.41265202  0.84757205  1  0.061709  0  0.093117  0.099603  0  1.011355  0
H  H15  1  0.17104243  0.36875487  0.91877224  1  0.055619  0  0.095432  0.105916  0  0.984787  0
H  H16  1  0.16536082  0.28585199  0.74367366  1  0.050093  0  0.098069  0.110677  0  0.98131  0
H  H17  1  0.41112010  0.12795956  0.85216944  1  0.094438  0  0.106052  0.111167  0  0.988268  0
H  H18  1  0.16786731  0.24046918  0.81323989  1  0.056734  0  0.096222  0.103405  0  0.983311  0
H  H19  1  0.95340469  0.69968038  0.34510763  1  0.084838  0  0.108944  0.112892  0  0.990681  0
H  H20  1  0.75436246  0.12846569  0.24375296  1  0.103537  0  0.112963  0.112017  0  0.972256  0
H  H21  1  0.96046000  0.59753808  0.22704725  1  0.071765  0  0.109177  0.114972  0  0.985401  0
H  H22  1  0.03612681  0.83080644  0.12320802  1  0.075182  0  0.107073  0.122764  0  0.96976  0
H  H23  1  0.91959241  0.77328452  0.05685229  1  0.064559  0  0.102511  0.114258  0  0.979963  0
H  H24  1  0.02632509  0.93553017  0.23927309  1  0.06326  0  0.114128  0.112531  0  0.950121  0
H  H25  1  0.73073981  0.94887659  0.13629366  1  0.118025  0  0.111129  0.135303  0  1.000929  0
H  H26  1  0.34655609  0.91972439  0.16007176  1  0.093806  0  0.112067  0.117867  0  0.984238  0
H  H27  1  0.24646920  0.79730311  0.16323926  1  0.079305  0  0.110557  0.114428  0  0.981871  0
H  H28  1  0.30845451  0.14277308  0.74257114  1  0.077807  0  0.106732  0.111213  0  0.991266  0
H  H29  1  0.22855945  0.56452052  0.88904500  1  0.05523  0  0.108405  0.107212  0  0.973421  0
H  H30  1  0.34338586  0.68637240  0.90054397  1  0.081759  0  0.119014  0.078536  0  0.930369  0
H  H31  1  0.23675150  0.74522453  0.82561625  1  0.595493  0  0.319374  0.34399  0  0.918291  0
H  H32  1  0.82574121  0.80414702  0.12842187  1  0.049785  0  0.098933  0.023336  0  0.950891  0
H  H33  1  0.09704720  0.62107665  0.80984101  1  0.05995  0  0.095846  0.017595  0  0.957749  0
H  H34  1  0.06320109  0.81687259  0.61531243  1  0.065363  0  0.098538  0.109917  0  0.980763  0
H  H35  1  0.10874882  0.79657913  0.54591280  1  0.05806  0  0.097544  0.105779  0  0.983373  0
H  H36  1  0.17069903  0.79931640  0.71989127  1  0.028875  0  0.092251  0.093865  0  0.99517  0
H  H37  1  0.21738204  0.77931992  0.65145448  1  0.074304  0  0.101308  0.113354  0  0.976189  0
H  H38  1  0.65228544  0.30159450  0.03876805  1  0.089805  0  0.105839  0.110409  0  0.990468  0
H  H39  1  0.77406550  0.39998154  0.03241927  1  0.066915  0  0.104399  0.110353  0  0.994137  0
C  C40  1  0.39563451  0.91148270  0.03458386  1  1.536815  0  0.218193  0.600911  0  4.159201  0
C  C41  1  0.33164518  0.98897452  0.79251310  1  -0.042211  0  -0.009493  -0.059401  0  3.968406  0
C  C42  1  0.34985314  0.07041249  0.79816682  1  -0.073194  0  -0.085041  -0.107404  0  3.985609  0
C  C43  1  0.63306193  0.98801279  0.09035986  1  1.536074  0  0.209835  0.640908  0  4.149933  0
C  C44  1  0.29153495  0.07899858  0.73682294  1  0.007899  0  -0.08294  -0.101554  0  3.987413  0
C  C45  1  0.20916690  0.00730616  0.66908698  1  -0.022623  0  -0.014204  -0.074574  0  3.978954  0
C  C46  1  0.19222635  0.92723836  0.66395117  1  -0.013342  0  -0.003721  0.063988  0  3.888166  0
C  C47  1  0.12460261  0.83147682  0.61359468  1  -0.042373  0  -0.149998  -0.195617  0  3.875989  0
C  C48  1  0.19293118  0.82062556  0.67970731  1  -0.023996  0  -0.148794  -0.192317  0  3.877176  0
C  C49  1  0.77094389  0.19861501  0.04380325  1  -0.068093  0  -0.005186  0.055032  0  3.88678  0
C  C50  1  0.70062508  0.21174046  0.04030716  1  -0.014074  0  -0.011346  -0.060356  0  3.978381  0
C  C51  1  0.33468870  0.84056646  0.03899041  1  -0.006688  0  -0.012861  -0.056105  0  3.973114  0
C  C52  1  0.70537668  0.28813767  0.04025416  1  -0.018398  0  -0.08627  -0.110126  0  3.999589  0
C  C53  1  0.77447357  0.34411746  0.03782648  1  0.00287  0  -0.086712  -0.105293  0  3.994494  0
C  C54  1  0.84551127  0.33027691  0.04133631  1  -0.032822  0  -0.013788  -0.071528  0  3.98436  0
C  C55  1  0.62294198  0.14493540  0.03158306  1  1.530955  0  0.22006  0.61291  0  4.141213  0
C  C56  1  0.84308105  0.25779759  0.04749304  1  0.014024  0  -0.004976  0.057433  0  3.889598  0
C  C57  1  0.88891830  0.20428733  0.04995390  1  -0.028515  0  -0.149121  -0.199046  0  3.877584  0
C  C58  1  0.80645171  0.13657603  0.04435861  1  -0.045806  0  -0.15013  -0.19366  0  3.865335  0
C  C59  1  0.96547145  0.08402340  0.61276368  1  1.537178  0  0.222938  0.614404  0  4.129947  0
C  C60  1  0.91005893  0.02679615  0.38753526  1  1.502916  0  0.210917  0.638727  0  4.153773  0
C  C61  1  0.97070214  0.85982656  0.37743594  1  1.541185  0  0.217934  0.606594  0  4.152636  0
C  C62  1  0.31564421  0.85356095  0.10713000  1  0.021555  0  -0.074687  -0.086593  0  3.952581  0
C  C63  1  0.14127464  0.01563138  0.60896015  1  1.534535  0  0.221759  0.612903  0  4.137723  0
C  C64  1  0.97364391  0.61055460  0.09280201  1  1.549547  0  0.219251  0.610643  0  4.148045  0
C  C65  1  0.14582229  0.62278947  0.03388185  1  1.572638  0  0.226666  0.618164  0  4.131657  0
C  C66  1  0.97076490  0.37830839  0.85879911  1  1.522541  0  0.227513  0.620687  0  4.118546  0
C  C67  1  0.39219889  0.98224520  0.86176842  1  1.55462  0  0.22505  0.620707  0  4.131129  0
C  C68  1  0.91405608  0.38853022  0.03251221  1  1.51826  0  0.218172  0.610091  0  4.142359  0
C  C69  1  0.03953255  0.22989947  0.74213403  1  -0.055429  0  -0.004446  0.058424  0  3.889895  0
C  C70  1  0.96160763  0.15452011  0.67517884  1  0.00971  0  -0.010804  -0.06385  0  3.967441  0
C  C71  1  0.88361656  0.15402528  0.66872107  1  -0.074275  0  -0.083244  -0.107267  0  3.979944  0
C  C72  1  0.88513415  0.22665091  0.72488404  1  -0.012437  0  -0.081107  -0.102861  0  3.972679  0
C  C73  1  0.25875628  0.78402071  0.10876568  1  -0.035957  0  -0.078475  -0.106755  0  3.959076  0
C  C74  1  0.96467687  0.30174842  0.79353262  1  -0.020156  0  -0.008089  -0.060528  0  3.957389  0
C  C75  1  0.04106253  0.30007277  0.80080565  1  0.004623  0  -0.002007  0.06631  0  3.881967  0
C  C76  1  0.14017504  0.35306439  0.85091147  1  -0.00414  0  -0.152048  -0.197276  0  3.876746  0
C  C77  1  0.13853200  0.27299342  0.78460677  1  -0.009477  0  -0.150738  -0.195131  0  3.876574  0
C  C78  1  0.96860262  0.80701430  0.23459824  1  -0.010584  0  -0.005254  0.018021  0  3.895853  0
C  C79  1  0.84508106  0.08672005  0.29974168  1  -0.029266  0  -0.060421  -0.013948  0  3.955205  0
C  C80  1  0.96418282  0.79305054  0.30145581  1  -0.005236  0  -0.008538  -0.052232  0  3.965171  0
C  C81  1  0.95822573  0.71417241  0.29500986  1  -0.00541  0  -0.080626  -0.101933  0  3.974633  0
C  C82  1  0.96127013  0.65614413  0.22789911  1  -0.039371  0  -0.079406  -0.095476  0  3.970168  0
C  C83  1  0.96563533  0.67113557  0.16066267  1  0.007575  0  -0.010286  -0.062514  0  3.96905  0
C  C84  1  0.21537131  0.69775417  0.04076495  1  -0.022183  0  2e-06  -0.028542  0  3.9357  0
C  C85  1  0.96724921  0.74722516  0.16538285  1  -0.030596  0  -0.006205  0.053974  0  3.92246  0
C  C86  1  0.97385865  0.80242182  0.12251731  1  -0.035625  0  -0.137154  -0.215556  0  3.831597  0
C  C87  1  0.97044998  0.86917358  0.19918820  1  0.004622  0  -0.076863  -0.102553  0  3.835494  0
C  C88  1  0.83987758  0.02235742  0.31786920  1  -0.02168  0  -0.085632  -0.211611  0  3.899887  0
C  C89  1  0.76883189  0.07493546  0.23161811  1  -0.047407  0  -0.062587  -0.016765  0  3.964249  0
C  C90  1  0.71432013  0.00052664  0.15459130  1  -0.057916  0  -0.090095  -0.235286  0  3.879032  0
C  C91  1  0.29335617  0.75419093  0.97352117  1  -0.087761  0  -0.013787  -0.037796  0  3.933028  0
C  C92  1  0.88534489  0.86997465  0.16468207  1  0.952255  0  0.109073  0.313951  0  3.93269  0
C  C93  1  0.12027339  0.57438762  0.81598807  1  0.972301  0  0.104564  0.331857  0  3.947731  0
C  C94  1  0.23475735  0.68582238  0.97381901  1  0.032864  0  -0.006972  0.024456  0  3.944553  0
C  C95  1  0.21241527  0.61549251  0.88767698  1  -0.049561  0  -0.088065  -0.188712  0  3.833146  0
C  C96  1  0.28538184  0.69439950  0.88993292  1  0.547427  0  0.023219  0.184735  0  3.848304  0
C  C97  1  0.25261935  0.91781127  0.72227684  1  0.014816  0  -0.007698  0.047082  0  3.894559  0
O  O98  1  0.41799138  0.88685082  0.97796145  1  -1.171877  0  -0.307461  -0.568519  0  2.362257  0
O  O99  1  0.92730407  0.59013334  0.01362311  1  -1.127028  0  -0.319014  -0.527683  0  2.21586  0
O  O100  1  0.16917898  0.59351699  0.08478739  1  -1.122552  0  -0.313206  -0.520037  0  2.217743  0
O  O101  1  0.42134075  0.99130679  0.08599469  1  -1.132474  0  -0.316656  -0.524742  0  2.219068  0
O  O102  1  0.06841208  0.59338592  0.97581778  1  -1.164096  0  -0.303976  -0.560457  0  2.284999  0
O  O103  1  0.03304407  0.41478996  0.93603004  1  -1.179281  0  -0.313323  -0.577732  0  2.322588  0
O  O104  1  0.91527231  0.40404499  0.83542351  1  -1.117879  0  -0.312445  -0.519522  0  2.217873  0
O  O105  1  0.99421335  0.40754876  0.07667802  1  -1.125571  0  -0.319126  -0.528229  0  2.207098  0
O  O106  1  0.88910315  0.41634357  0.98162802  1  -1.169846  0  -0.311527  -0.572807  0  2.323689  0
O  O107  1  0.59945027  0.92917928  0.01059859  1  -1.133772  0  -0.326459  -0.536803  0  2.19948  0
O  O108  1  0.60073576  0.03466441  0.11632867  1  -1.174285  0  -0.31702  -0.581721  0  2.305015  0
O  O109  1  0.91086322  0.00353071  0.58166782  1  -1.132289  0  -0.319127  -0.529429  0  2.201479  0
O  O110  1  0.59479185  0.06674436  0.97708734  1  -1.164099  0  -0.309431  -0.569393  0  2.306326  0
O  O111  1  0.59029414  0.16967349  0.07946468  1  -1.121792  0  -0.321019  -0.531898  0  2.213857  0
O  O112  1  0.41680128  0.92593300  0.83785327  1  -1.121836  0  -0.315152  -0.526182  0  2.226668  0
O  O113  1  0.41449023  0.03213430  0.93929827  1  -1.169538  0  -0.312434  -0.569862  0  2.298274  0
O  O114  1  0.02583745  0.10963230  0.59466287  1  -1.167578  0  -0.309061  -0.570814  0  2.33065  0
O  O115  1  0.26244726  0.70758427  0.81824413  1  -1.108158  0  -0.399241  -0.48185  0  2.211127  0
O  O116  1  0.87846679  0.93419373  0.17238300  1  -1.083597  0  -0.257489  -0.358705  0  2.145522  0
O  O117  1  0.07240444  0.49623570  0.76730913  1  -1.0809  0  -0.262013  -0.355469  0  2.094279  0
O  O118  1  0.99073048  0.08422976  0.42069641  1  -1.127261  0  -0.320971  -0.532909  0  2.213109  0
O  O119  1  0.88460039  0.97075277  0.41018043  1  -1.165363  0  -0.318719  -0.578261  0  2.29958  0
O  O120  1  0.02367926  0.93840904  0.40492927  1  -1.16091  0  -0.307967  -0.562447  0  2.29242  0
O  O121  1  0.92288736  0.83332865  0.40917001  1  -1.132913  0  -0.318701  -0.529133  0  2.227628  0
O  O122  1  0.16602967  0.07372379  0.58725588  1  -1.129134  0  -0.319142  -0.530319  0  2.229295  0
O  O123  1  0.06207633  0.96346974  0.58257750  1  -1.169818  0  -0.309858  -0.567018  0  2.317615  0
O  O124  1  0.02609957  0.58385903  0.11815327  1  -1.164744  0  -0.308547  -0.56635  0  2.309706  0
