# generated using pymatgen
data_AlH5C15O7F2
_symmetry_space_group_name_H-M   'P 1'
_cell_length_a   6.66296986
_cell_length_b   19.35978778
_cell_length_c   22.05763915
_cell_angle_alpha   99.05507519
_cell_angle_beta   89.63719839
_cell_angle_gamma   89.81820825
_symmetry_Int_Tables_number   1
_chemical_formula_structural   AlH5C15O7F2
_chemical_formula_sum   'Al4 H20 C60 O28 F8'
_cell_volume   2809.75525992
_cell_formula_units_Z   4
loop_
 _symmetry_equiv_pos_site_id
 _symmetry_equiv_pos_as_xyz
  1  'x, y, z'
loop_
 _atom_site_type_symbol
 _atom_site_label
 _atom_site_symmetry_multiplicity
 _atom_site_fract_x
 _atom_site_fract_y
 _atom_site_fract_z
 _atom_site_occupancy
 _atom_site_pbe_bader_charge
 _atom_site_pbe_bader_spin_density
 _atom_site_pbe_cm5_charge
 _atom_site_pbe_ddec_charge
 _atom_site_pbe_ddec_spin_density
 _atom_site_pbe_ddec_sum_bond_order
 _atom_site_pbe_magmom
Al  Al0  1  0.89037802  0.50022733  0.50053679  1  2.502264  0  0.402878  1.652263  0  2.575345  0
Al  Al1  1  0.39053497  0.49968199  0.49962662  1  2.501688  0  0.403124  1.650741  0  2.573861  0
Al  Al2  1  0.31963863  0.99967612  0.00035332  1  2.499633  0  0.402772  1.640615  0  2.582697  0
Al  Al3  1  0.81964793  0.00012802  0.99981827  1  2.499238  0  0.402332  1.641599  0  2.582992  0
H  H4  1  0.85022595  0.33657661  0.74477695  1  0.104183  0  0.127219  0.156327  0  0.956084  0
H  H5  1  0.35185042  0.66315873  0.25561454  1  0.107497  0  0.127659  0.156894  0  0.95552  0
H  H6  1  0.40642364  0.23758846  0.67506869  1  0.115353  0  0.117282  0.133251  0  0.984932  0
H  H7  1  0.90380869  0.76236300  0.32462719  1  0.120913  0  0.117183  0.1333  0  0.986521  0
H  H8  1  0.17930011  0.73544602  0.54046985  1  0.072113  0  0.114983  0.119572  0  0.970534  0
H  H9  1  0.74164920  0.26774609  0.45610288  1  0.086389  0  0.11517  0.119921  0  0.970718  0
H  H10  1  0.17309182  0.85040532  0.61029936  1  0.070866  0  0.106328  0.112347  0  1.001622  0
H  H11  1  0.74537388  0.15250240  0.38651911  1  0.104732  0  0.105551  0.11099  0  1.001366  0
H  H12  1  0.05862754  0.63726248  0.79087902  1  0.155422  0  0.104128  0.118724  0  1.051978  0
H  H13  1  0.56830518  0.36306672  0.20849403  1  0.148278  0  0.104018  0.11945  0  1.048754  0
H  H14  1  0.11588569  0.92903035  0.82185071  1  0.121905  0  0.120501  0.152474  0  0.977209  0
H  H15  1  0.64327034  0.07165236  0.17727427  1  0.126089  0  0.121343  0.15411  0  0.976008  0
H  H16  1  0.99156559  0.53535324  0.89393765  1  0.617991  0  0.344619  0.386514  0  0.846761  0
H  H17  1  0.51705906  0.46508755  0.10491641  1  0.633066  0  0.346453  0.389791  0  0.847263  0
H  H18  1  0.69287284  0.11773803  0.72482070  1  0.621984  0  0.34823  0.387472  0  0.847199  0
H  H19  1  0.18870539  0.88237020  0.27480223  1  0.644335  0  0.34849  0.387545  0  0.846461  0
H  H20  1  0.63680034  0.51814199  0.58111458  1  0.634604  0  0.364957  0.447669  0  0.825695  0
H  H21  1  0.14119874  0.48057964  0.41918375  1  0.644483  0  0.363825  0.446759  0  0.82783  0
H  H22  1  0.56925578  0.01391882  0.92429014  1  0.616477  0  0.359401  0.440959  0  0.836554  0
H  H23  1  0.06692557  0.98542540  0.07571443  1  0.659825  0  0.359746  0.442257  0  0.836034  0
C  C24  1  0.64629951  0.39373246  0.42615525  1  1.586573  0  0.277885  0.676393  0  4.09096  0
C  C25  1  0.13645355  0.60664468  0.57339114  1  1.631222  0  0.279029  0.678255  0  4.090894  0
C  C26  1  0.63918198  0.57988291  0.42606012  1  1.686013  0  0.276484  0.71591  0  4.169111  0
C  C27  1  0.14265138  0.42016619  0.57417245  1  1.691222  0  0.276745  0.716416  0  4.166768  0
C  C28  1  0.96618536  0.25558159  0.79092475  1  0.492425  0  0.115657  0.258145  0  4.053323  0
C  C29  1  0.46698776  0.74432694  0.20945276  1  0.495702  0  0.117959  0.26057  0  4.05319  0
C  C30  1  0.11378240  0.20424782  0.79546527  1  0.149002  0  0.009988  0.008229  0  4.070253  0
C  C31  1  0.61327412  0.79582116  0.20478925  1  0.135709  0  0.00875  0.007023  0  4.071247  0
C  C32  1  0.27499008  0.19853063  0.75221987  1  0.013521  0  -2.4e-05  -0.046581  0  3.932938  0
C  C33  1  0.77336971  0.80151772  0.24775134  1  0.009044  0  0.000187  -0.046219  0  3.931653  0
C  C34  1  0.28261635  0.24242473  0.70785014  1  0.026098  0  -0.070963  -0.146387  0  3.899052  0
C  C35  1  0.78093138  0.75751664  0.29203351  1  0.022337  0  -0.071866  -0.148215  0  3.900453  0
C  C36  1  0.13035610  0.29218531  0.70403058  1  0.084352  0  0.010204  0.156912  0  4.12051  0
C  C37  1  0.62983641  0.70767706  0.29604022  1  0.086671  0  0.009963  0.158774  0  4.118873  0
C  C38  1  0.97002232  0.29858626  0.74651518  1  0.041002  0  -0.074711  -0.229226  0  3.91718  0
C  C39  1  0.47074282  0.70123290  0.25378380  1  0.034083  0  -0.076637  -0.23253  0  3.917388  0
C  C40  1  0.09627997  0.16264297  0.84214153  1  -0.361819  0  -0.01503  -9.8e-05  0  4.098595  0
C  C41  1  0.59548456  0.83750526  0.15822372  1  -0.240258  0  -0.014846  -0.000897  0  4.099839  0
C  C42  1  0.13703956  0.33537941  0.65793197  1  -0.45424  0  -0.019818  -0.031867  0  4.074663  0
C  C43  1  0.63622527  0.66450611  0.34214972  1  -0.450811  0  -0.020026  -0.033183  0  4.073934  0
C  C44  1  0.14062744  0.37295441  0.61857735  1  0.194742  0  -0.031057  -0.180146  0  3.939912  0
C  C45  1  0.63949564  0.62702601  0.38157486  1  0.192746  0  -0.029867  -0.17831  0  3.939284  0
C  C46  1  0.07546854  0.12833686  0.88343817  1  0.20406  0  -0.013401  -0.152421  0  3.886077  0
C  C47  1  0.57401830  0.87176689  0.11695889  1  0.077315  0  -0.013837  -0.151847  0  3.886156  0
C  C48  1  0.15658268  0.80167323  0.62855050  1  -0.008685  0  -0.093949  -0.131196  0  4.021197  0
C  C49  1  0.70931499  0.20049613  0.36898011  1  -0.034313  0  -0.093676  -0.130903  0  4.021884  0
C  C50  1  0.13715334  0.67615416  0.61464072  1  0.04757  0  -0.01696  -0.135936  0  4.00654  0
C  C51  1  0.65250757  0.32487274  0.38417483  1  0.026577  0  -0.018041  -0.141303  0  4.009394  0
C  C52  1  0.04493950  0.76382674  0.91478313  1  0.478096  0  0.120553  0.270485  0  4.014636  0
C  C53  1  0.53856398  0.23595128  0.08545752  1  0.470176  0  0.121567  0.271036  0  4.016275  0
C  C54  1  0.04005629  0.69594091  0.88033532  1  -0.011898  0  -0.023612  -0.145249  0  4.000015  0
C  C55  1  0.54133189  0.30407288  0.11949829  1  -0.003759  0  -0.025153  -0.147112  0  3.998479  0
C  C56  1  0.06259244  0.68961450  0.81671480  1  0.019917  0  -0.076195  -0.113616  0  3.93428  0
C  C57  1  0.56705535  0.31055802  0.18290965  1  0.022374  0  -0.076584  -0.114706  0  3.932642  0
C  C58  1  0.08840259  0.74769509  0.78609511  1  3.9e-05  0  -0.008028  0.021093  0  3.958308  0
C  C59  1  0.59394201  0.25250936  0.21347338  1  0.002403  0  -0.006972  0.02247  0  3.958253  0
C  C60  1  0.09163483  0.81588282  0.82263358  1  0.0159  0  0.011215  0.117576  0  3.980076  0
C  C61  1  0.59899116  0.18425803  0.17699862  1  0.048297  0  0.011716  0.118154  0  3.982142  0
C  C62  1  0.11086002  0.74221665  0.71976052  1  0.040646  0  -0.002784  -0.047712  0  3.95353  0
C  C63  1  0.62306760  0.25830457  0.27948618  1  0.040677  0  -0.002803  -0.048832  0  3.952433  0
C  C64  1  0.13279613  0.80436296  0.69247585  1  0.017636  0  -0.011266  -0.01705  0  4.03881  0
C  C65  1  0.66824070  0.19697457  0.30590686  1  0.01889  0  -0.010987  -0.013736  0  4.038771  0
C  C66  1  0.13111141  0.87004429  0.73249125  1  0.395505  0  0.104769  0.257145  0  4.067507  0
C  C67  1  0.67147704  0.13129045  0.26593105  1  0.443084  0  0.103278  0.252224  0  4.06963  0
C  C68  1  0.11322918  0.87707718  0.79444793  1  0.055342  0  -0.095762  -0.25902  0  3.969497  0
C  C69  1  0.63698474  0.12358125  0.20468502  1  0.047417  0  -0.096399  -0.258989  0  3.967988  0
C  C70  1  0.11367725  0.67936416  0.67738451  1  0.432594  0  0.107307  0.219365  0  3.989969  0
C  C71  1  0.61185558  0.32081596  0.32223942  1  0.4244  0  0.109281  0.223686  0  3.989163  0
C  C72  1  0.15984039  0.73823726  0.58989578  1  -0.009024  0  -0.081175  -0.078241  0  4.007273  0
C  C73  1  0.70584173  0.26394627  0.40754869  1  0.031169  0  -0.078959  -0.074447  0  4.009042  0
C  C74  1  0.07050596  0.82242218  0.88713877  1  0.086961  0  -0.013968  -0.189088  0  3.940501  0
C  C75  1  0.56728127  0.17739875  0.11296501  1  0.034038  0  -0.01379  -0.18941  0  3.943613  0
C  C76  1  0.56929879  0.91831595  0.07230779  1  1.678604  0  0.284223  0.719122  0  4.153595  0
C  C77  1  0.07028345  0.08162662  0.92798119  1  1.671357  0  0.283237  0.718306  0  4.15432  0
C  C78  1  0.56772358  0.10673453  0.07331520  1  1.623089  0  0.271879  0.666589  0  4.120789  0
C  C79  1  0.07188373  0.89307430  0.92685723  1  1.627194  0  0.271857  0.66697  0  4.121831  0
C  C80  1  0.01073417  0.63338183  0.91058165  1  1.478052  0  0.223466  0.583428  0  4.129067  0
C  C81  1  0.52114312  0.36677781  0.08888618  1  1.475431  0  0.225683  0.585161  0  4.126704  0
C  C82  1  0.43264096  0.14391068  0.75366549  1  1.509066  0  0.232847  0.573561  0  4.117173  0
C  C83  1  0.92998834  0.85613538  0.24612711  1  1.51701  0  0.233884  0.574816  0  4.113183  0
O  O84  1  0.46744281  0.56310144  0.44454891  1  -1.232912  0  -0.227453  -0.581498  0  2.286948  0
O  O85  1  0.97223222  0.44227702  0.55959258  1  -1.2329  0  -0.228812  -0.58526  0  2.286707  0
O  O86  1  0.81537630  0.41763258  0.44541749  1  -1.247379  0  -0.228272  -0.584165  0  2.317333  0
O  O87  1  0.30609244  0.57878849  0.55881585  1  -1.247674  0  -0.227476  -0.584454  0  2.311968  0
O  O88  1  0.80959317  0.55881355  0.44164500  1  -1.234938  0  -0.228596  -0.58326  0  2.283005  0
O  O89  1  0.31405418  0.43594647  0.55466758  1  -1.236116  0  -0.228547  -0.582302  0  2.282083  0
O  O90  1  0.96588714  0.58246584  0.55616344  1  -1.249629  0  -0.2275  -0.584207  0  2.316912  0
O  O91  1  0.47571128  0.42145954  0.43958153  1  -1.243626  0  -0.228756  -0.587726  0  2.318133  0
O  O92  1  0.63901823  0.50640213  0.53679027  1  -1.432377  0  -0.447165  -1.002588  0  2.20655  0
O  O93  1  0.14082095  0.49350170  0.46341556  1  -1.442321  0  -0.446268  -1.001853  0  2.207524  0
O  O94  1  0.73892770  0.08005496  0.05889458  1  -1.239714  0  -0.228012  -0.580472  0  2.32126  0
O  O95  1  0.24259277  0.91894510  0.94160456  1  -1.247363  0  -0.227454  -0.578212  0  2.314186  0
O  O96  1  0.39792743  0.93737399  0.05566900  1  -1.237462  0  -0.223739  -0.582048  0  2.285601  0
O  O97  1  0.89850041  0.06299713  0.94494903  1  -1.238534  0  -0.223635  -0.581477  0  2.287268  0
O  O98  1  0.39760316  0.08026406  0.05889664  1  -1.244359  0  -0.227796  -0.579305  0  2.317711  0
O  O99  1  0.90132705  0.92033342  0.94095117  1  -1.242253  0  -0.22818  -0.581929  0  2.323262  0
O  O100  1  0.23992327  0.06173479  0.94520182  1  -1.233122  0  -0.219241  -0.573889  0  2.289253  0
O  O101  1  0.73936801  0.93761720  0.05461924  1  -1.230299  0  -0.219964  -0.574365  0  2.289841  0
O  O102  1  0.56999936  0.99579392  0.96288506  1  -1.414262  0  -0.445632  -0.99031  0  2.184046  0
O  O103  1  0.06870431  0.00397281  0.03731507  1  -1.456341  0  -0.446379  -0.992148  0  2.182526  0
O  O104  1  0.98728467  0.63321923  0.96549799  1  -1.088119  0  -0.298814  -0.488303  0  2.057437  0
O  O105  1  0.01186218  0.57250896  0.86910685  1  -1.117365  0  -0.346817  -0.499109  0  2.195317  0
O  O106  1  0.50029432  0.36693207  0.03396312  1  -1.099951  0  -0.299435  -0.488053  0  2.057308  0
O  O107  1  0.52978043  0.42782041  0.12999088  1  -1.12543  0  -0.348223  -0.50204  0  2.196772  0
O  O108  1  0.41734355  0.09297499  0.77953930  1  -1.111681  0  -0.273124  -0.458987  0  2.09188  0
O  O109  1  0.60095223  0.15651536  0.72131029  1  -1.111672  0  -0.338476  -0.495423  0  2.232669  0
O  O110  1  0.91483637  0.90693691  0.22008008  1  -1.110194  0  -0.273773  -0.460315  0  2.094786  0
O  O111  1  0.09728019  0.84367252  0.27851106  1  -1.139308  0  -0.339154  -0.49594  0  2.230319  0
F  F112  1  0.81309404  0.26267737  0.83190760  1  -0.630878  0  -0.084266  -0.122507  0  1.342413  0
F  F113  1  0.31510563  0.73718559  0.16869323  1  -0.623747  0  -0.084992  -0.122815  0  1.343037  0
F  F114  1  0.14948999  0.92847505  0.70557945  1  -0.625676  0  -0.102602  -0.146494  0  1.322662  0
F  F115  1  0.71137271  0.07357912  0.29213910  1  -0.627842  0  -0.100179  -0.142517  0  1.327374  0
F  F116  1  0.09408928  0.61630810  0.69743008  1  -0.624192  0  -0.085179  -0.126431  0  1.363938  0
F  F117  1  0.56229311  0.38240461  0.30301617  1  -0.625817  0  -0.087044  -0.127848  0  1.367456  0
F  F118  1  0.02487921  0.77370322  0.97649294  1  -0.607913  0  -0.078711  -0.108277  0  1.35972  0
F  F119  1  0.51127759  0.22591654  0.02411132  1  -0.614497  0  -0.078996  -0.108362  0  1.360559  0
