# generated using pymatgen
data_Dy2CuH16C32(N2O13)2
_symmetry_space_group_name_H-M   'P 1'
_cell_length_a   9.80625285
_cell_length_b   10.27065502
_cell_length_c   11.01874074
_cell_angle_alpha   69.91518873
_cell_angle_beta   86.13465971
_cell_angle_gamma   71.15058255
_symmetry_Int_Tables_number   1
_chemical_formula_structural   Dy2CuH16C32(N2O13)2
_chemical_formula_sum   'Dy2 Cu1 H16 C32 N4 O26'
_cell_volume   985.19960823
_cell_formula_units_Z   1
loop_
 _symmetry_equiv_pos_site_id
 _symmetry_equiv_pos_as_xyz
  1  'x, y, z'
loop_
 _atom_site_type_symbol
 _atom_site_label
 _atom_site_symmetry_multiplicity
 _atom_site_fract_x
 _atom_site_fract_y
 _atom_site_fract_z
 _atom_site_occupancy
 _atom_site_hle17_ddec_charge
 _atom_site_hle17_ddec_spin_density
 _atom_site_hle17_ddec_sum_bond_order
 _atom_site_hle17_magmom
 _atom_site_hse06_10hf_ddec_charge
 _atom_site_hse06_10hf_ddec_spin_density
 _atom_site_hse06_10hf_ddec_sum_bond_order
 _atom_site_hse06_10hf_magmom
 _atom_site_hse06_ddec_charge
 _atom_site_hse06_ddec_spin_density
 _atom_site_hse06_ddec_sum_bond_order
 _atom_site_hse06_magmom
 _atom_site_pbe_cm5_charge
 _atom_site_pbe_ddec_charge
 _atom_site_pbe_ddec_spin_density
 _atom_site_pbe_ddec_sum_bond_order
 _atom_site_pbe_magmom
Dy  Dy0  1  0.40304301  0.40786423  0.41667395  1  2.286612  -0.000583  1.605628  -0.001  2.141785  -0.000221  2.07369  0.0  2.270078  -0.00042  1.883417  0.0  1.524265  2.105387  0.000139  2.10474  0.0
Dy  Dy1  1  0.59695787  0.59213643  0.58332328  1  2.286545  -0.000582  1.605696  -0.001  2.141676  -0.000224  2.073824  0.0  2.270001  -0.000422  1.88349  0.0  1.524206  2.105265  0.000139  2.10488  0.0
Cu  Cu2  1  0.50000098  0.99999991  0.50000067  1  1.122052  0.708923  1.646515  0.542  1.13462  0.810544  2.038828  0.677  1.222683  0.873049  1.977621  0.767  0.771407  1.075897  0.759829  2.08494  0.611
H  H3  1  0.91762822  0.36480275  0.48211606  1  0.134516  0.000105  0.917159  0.0  0.140434  0.000106  0.981759  0.0  0.145261  5.4e-05  0.977386  0.0  0.125983  0.136731  0.000112  0.985434  0.0
H  H4  1  0.08237095  0.63520009  0.51788422  1  0.134489  0.000116  0.917214  0.0  0.140444  0.000106  0.981776  0.0  0.145271  5.4e-05  0.977402  0.0  0.125988  0.136738  0.000112  0.985454  0.0
H  H5  1  0.81405507  0.96568218  0.66633417  1  0.124233  -0.0001  0.947363  0.0  0.129271  -0.000105  1.015687  0.0  0.13312  -9.1e-05  1.011946  0.0  0.118058  0.126196  -0.000103  1.018617  0.0
H  H6  1  0.18593899  0.03432066  0.33366732  1  0.124204  -9.3e-05  0.947435  0.0  0.129253  -0.000105  1.015759  0.0  0.133097  -9.1e-05  1.012019  0.0  0.118024  0.126179  -0.000103  1.018691  0.0
H  H7  1  0.25628096  0.95461843  0.65041673  1  0.132686  -0.00032  0.958537  0.0  0.131312  -0.000228  1.035715  0.0  0.136279  -0.000257  1.030153  0.0  0.119133  0.127696  -0.000179  1.039565  0.0
H  H8  1  0.74371176  0.04537894  0.34958566  1  0.132638  -0.000323  0.958621  0.0  0.131258  -0.000229  1.0358  0.0  0.136224  -0.000256  1.030237  0.0  0.119133  0.127643  -0.00018  1.039646  0.0
H  H9  1  0.45821520  0.37561615  0.97656627  1  0.133458  -0.000152  0.90415  0.0  0.142405  -1.5e-05  0.962463  0.0  0.146766  -1.3e-05  0.95816  0.0  0.125209  0.139044  -9e-06  0.965681  0.0
H  H10  1  0.54178397  0.62438669  0.02343309  1  0.133463  -0.000161  0.904162  0.0  0.142413  -1.5e-05  0.962472  0.0  0.146774  -1.4e-05  0.958168  0.0  0.125219  0.139052  -9e-06  0.965692  0.0
H  H11  1  0.34594013  0.99223495  0.20105049  1  0.12642  -2.1e-05  0.952362  0.0  0.1312  3.1e-05  1.019405  0.0  0.134847  4e-06  1.016015  0.0  0.118832  0.128446  5.5e-05  1.02201  0.0
H  H12  1  0.65406621  0.00776460  0.79895222  1  0.126444  -3.5e-05  0.952286  0.0  0.131204  3.1e-05  1.019354  0.0  0.13485  3e-06  1.015965  0.0  0.118816  0.128452  5.5e-05  1.021954  0.0
H  H13  1  0.29334067  0.15183259  0.78517899  1  0.139034  -7.6e-05  0.934068  0.0  0.142338  5e-05  1.001229  0.0  0.146813  2e-05  0.996775  0.0  0.120302  0.139079  2.8e-05  1.004376  0.0
H  H14  1  0.70666057  0.84816369  0.21482234  1  0.139049  -9.4e-05  0.934023  0.0  0.142378  5e-05  1.001149  0.0  0.146852  1.9e-05  0.996692  0.0  0.120316  0.139117  2.8e-05  1.004304  0.0
H  H15  1  0.13408544  0.56500696  0.24215756  1  0.454442  8e-06  0.791774  0.0  0.440522  1.9e-05  0.832966  0.0  0.448865  9e-06  0.821264  0.0  0.342026  0.434941  1.8e-05  0.840937  0.0
H  H16  1  0.86591854  0.43498715  0.75783885  1  0.454405  7e-06  0.791812  0.0  0.440487  1.9e-05  0.833013  0.0  0.44883  9e-06  0.821313  0.0  0.341996  0.434906  1.8e-05  0.840986  0.0
H  H17  1  0.22490357  0.67410187  0.18291681  1  0.451417  1e-06  0.828416  0.0  0.420556  -4e-06  0.889418  0.0  0.432052  -2e-06  0.872322  0.0  0.313062  0.412775  -5e-06  0.901113  0.0
H  H18  1  0.77510347  0.32589221  0.81708759  1  0.451472  -1e-06  0.828307  0.0  0.420613  -4e-06  0.889304  0.0  0.432108  -2e-06  0.87221  0.0  0.313104  0.412833  -5e-06  0.900998  0.0
C  C19  1  0.09795496  0.16780103  0.55818869  1  -0.064766  -0.000172  3.724084  0.0  -0.039186  -0.000305  3.960848  0.0  -0.050749  -0.000282  3.982352  0.0  -0.009665  -0.031795  -0.000274  3.946505  0.0
C  C20  1  0.90204422  0.83219853  0.44181262  1  -0.064659  -9.7e-05  3.724046  0.0  -0.039133  -0.000296  3.960812  0.0  -0.0507  -0.000277  3.982318  0.0  -0.009654  -0.031742  -0.000274  3.946466  0.0
C  C21  1  0.95062679  0.24731205  0.53413346  1  -0.017961  -0.000516  3.601906  0.0  -0.065375  -0.000223  3.859621  0.0  -0.058259  -0.000271  3.87316  0.0  -0.051512  -0.071118  -0.000183  3.851753  0.0
C  C22  1  0.04937102  0.75268862  0.46586305  1  -0.01796  -0.000705  3.60196  0.0  -0.065392  -0.000225  3.859663  0.0  -0.058272  -0.000271  3.8732  0.0  -0.051545  -0.071133  -0.000183  3.851791  0.0
C  C23  1  0.84831107  0.17466219  0.57062192  1  -0.04822  0.000131  3.726015  0.0  -0.023089  3.3e-05  3.962586  0.0  -0.033816  5.9e-05  3.983951  0.0  -0.005012  -0.016177  3.7e-05  3.947837  0.0
C  C24  1  0.15168503  0.82534067  0.42937399  1  -0.048264  0.000243  3.725925  0.0  -0.023146  3.3e-05  3.962544  0.0  -0.033873  5.7e-05  3.983908  0.0  -0.005076  -0.016234  3.7e-05  3.947794  0.0
C  C25  1  0.89185467  0.02450587  0.63915597  1  -0.079066  -0.000183  3.686353  0.0  -0.119002  -0.000159  3.942805  0.0  -0.114311  -0.000221  3.960098  0.0  -0.063137  -0.119972  -0.000235  3.929743  0.0
C  C26  1  0.10813938  0.97549700  0.36083915  1  -0.078935  -0.000344  3.686179  0.0  -0.118904  -0.000165  3.942686  0.0  -0.114205  -0.000218  3.959969  0.0  -0.06299  -0.119877  -0.000235  3.929623  0.0
C  C27  1  0.03756669  0.95014662  0.67169600  1  0.061037  9.8e-05  3.698447  0.0  0.058474  1e-05  3.952537  0.0  0.052932  3.9e-05  3.976  0.0  0.077073  0.061404  2e-05  3.936449  0.0
C  C28  1  0.96242702  0.04985733  0.32829971  1  0.061021  0.000139  3.698448  0.0  0.058428  2.1e-05  3.952572  0.0  0.052886  4.4e-05  3.976028  0.0  0.077005  0.061357  2e-05  3.936489  0.0
C  C29  1  0.14271386  0.01799340  0.62915565  1  -0.0564  -0.000456  3.649564  0.0  -0.095305  -0.000344  3.906791  0.0  -0.089382  -0.00044  3.92126  0.0  -0.05724  -0.097177  -0.000426  3.895661  0.0
C  C30  1  0.85728191  0.98200726  0.37084279  1  -0.056416  -0.000525  3.649682  0.0  -0.095264  -0.000363  3.90685  0.0  -0.089344  -0.000451  3.921332  0.0  -0.057232  -0.097137  -0.000426  3.895721  0.0
C  C31  1  0.20312889  0.24668238  0.50183775  1  0.675096  -0.000687  3.877006  0.001  0.634318  0.002167  4.16045  0.004  0.671916  0.002104  4.156982  0.004  0.215577  0.607436  0.002008  4.16714  0.004
C  C32  1  0.79686893  0.75331828  0.49816057  1  0.675  -0.000677  3.87711  0.001  0.634278  0.002168  4.160479  0.004  0.671877  0.002104  4.157014  0.004  0.215574  0.607396  0.002009  4.167166  0.004
C  C33  1  0.69394505  0.25504717  0.52857373  1  0.711513  -9e-06  3.856751  0.0  0.667803  -4.5e-05  4.138398  0.0  0.703534  -3.3e-05  4.135864  0.0  0.223695  0.64343  -7.2e-05  4.145262  0.0
C  C34  1  0.30605308  0.74495897  0.47142102  1  0.711445  -4.9e-05  3.856626  0.0  0.667735  -4.5e-05  4.138295  0.0  0.703465  -3.1e-05  4.135762  0.0  0.223645  0.64336  -7.2e-05  4.145155  0.0
C  C35  1  0.38112099  0.27140642  0.86838961  1  -0.050892  -0.000189  3.687126  0.0  -0.028734  -1.1e-05  3.930018  0.0  -0.039227  -0.000281  3.951368  0.0  -0.004085  -0.022026  0.000274  3.914626  0.0
C  C36  1  0.61887751  0.72859533  0.13161196  1  -0.050949  -0.000285  3.687113  0.0  -0.028805  -1.6e-05  3.93003  0.0  -0.039299  -0.000287  3.95138  0.0  -0.004122  -0.022102  0.000273  3.914651  0.0
C  C37  1  0.41575290  0.28781598  0.98276565  1  -0.013093  0.002805  3.593456  0.003  -0.061  0.001851  3.850897  0.002  -0.054862  0.001238  3.865973  0.001  -0.048859  -0.063909  0.002194  3.839752  0.002
C  C38  1  0.58424183  0.71218795  0.01723636  1  -0.013089  0.002891  3.593467  0.003  -0.061021  0.001855  3.850929  0.002  -0.054883  0.001239  3.866004  0.001  -0.048899  -0.063929  0.002194  3.83979  0.002
C  C39  1  0.40183594  0.18794906  0.10292741  1  -0.04885  0.008986  3.705173  0.01  -0.024648  0.004341  3.941632  0.005  -0.036168  0.00251  3.964132  0.003  -0.005408  -0.017101  0.005774  3.925983  0.007
C  C40  1  0.59816392  0.81205158  0.89707533  1  -0.048968  0.008904  3.705175  0.01  -0.024755  0.004339  3.941579  0.005  -0.036274  0.002513  3.964074  0.003  -0.005404  -0.017207  0.005774  3.925935  0.007
C  C41  1  0.34979369  0.07453438  0.10874104  1  -0.080878  0.00133  3.691981  0.001  -0.121683  0.000448  3.953838  0.0  -0.117113  0.000347  3.971543  0.0  -0.066594  -0.124876  0.00079  3.942179  0.001
C  C42  1  0.65020923  0.92546627  0.89125970  1  -0.080824  0.001426  3.691866  0.001  -0.121617  0.000451  3.953694  0.0  -0.117048  0.000348  3.9714  0.0  -0.06656  -0.124811  0.00079  3.942033  0.001
C  C43  1  0.30429230  0.06790264  0.99499674  1  0.066472  -0.001782  3.730839  -0.001  0.050678  -0.000479  3.989228  0.0  0.044058  -0.000523  4.013976  0.0  0.075428  0.055004  -0.000434  3.972413  0.0
C  C44  1  0.69571507  0.93209364  0.00500513  1  0.066384  -0.001882  3.730891  -0.001  0.050675  -0.000482  3.989306  0.0  0.044055  -0.000519  4.014054  0.0  0.075441  0.055002  -0.000433  3.972484  0.0
C  C45  1  0.32067141  0.16355054  0.87400910  1  -0.072498  0.003397  3.647822  0.003  -0.110453  0.001378  3.903896  0.001  -0.105455  0.000928  3.91972  0.001  -0.06163  -0.113439  0.001581  3.892727  0.001
C  C46  1  0.67933153  0.83644684  0.12598995  1  -0.072527  0.003487  3.647897  0.003  -0.110484  0.001382  3.903934  0.001  -0.105484  0.000931  3.919755  0.001  -0.06164  -0.113471  0.001581  3.892765  0.001
C  C47  1  0.41702216  0.36217609  0.73812236  1  0.718566  0.000104  3.841248  0.0  0.671502  7.4e-05  4.133762  0.0  0.708248  3.9e-05  4.126829  0.0  0.233935  0.647286  9.2e-05  4.140228  0.0
C  C48  1  0.58297908  0.63782019  0.26187714  1  0.718726  0.000113  3.841249  0.0  0.671653  7.4e-05  4.133787  0.0  0.708398  3.8e-05  4.126855  0.0  0.233994  0.647441  9.2e-05  4.14026  0.0
C  C49  1  0.44335578  0.19227539  0.23013592  1  0.698826  -0.005995  3.841937  -0.006  0.660893  -0.000375  4.129654  -0.001  0.700443  -0.000518  4.121652  0.0  0.234358  0.634012  0.000152  4.136345  -0.001
C  C50  1  0.55664954  0.80772417  0.76986412  1  0.698934  -0.005982  3.84187  -0.006  0.661079  -0.000375  4.129436  -0.001  0.700629  -0.000514  4.121432  0.0  0.2344  0.634198  0.000152  4.136133  -0.001
N  N51  1  0.08146467  0.79268707  0.74860275  1  0.495421  4.5e-05  3.917546  0.0  0.523384  2e-06  4.220905  0.0  0.543669  -8e-06  4.23001  0.0  0.05642  0.50987  3e-06  4.214362  0.0
N  N52  1  0.91852769  0.20731469  0.25139464  1  0.495191  7e-06  3.917725  0.0  0.523152  1e-06  4.221105  0.0  0.543439  -5e-06  4.230207  0.0  0.056357  0.509641  3e-06  4.214562  0.0
N  N53  1  0.24238588  0.95306710  0.00448986  1  0.473624  7e-06  3.946774  0.0  0.535305  -2.4e-05  4.197974  0.0  0.556873  -2.2e-05  4.206887  0.0  0.061423  0.520821  -2.4e-05  4.192316  0.0
N  N54  1  0.75762115  0.04693025  0.99551532  1  0.473959  -1.7e-05  3.946465  0.0  0.535337  -2.4e-05  4.198037  0.0  0.556904  -2.2e-05  4.206959  0.0  0.061413  0.520853  -2.4e-05  4.192371  0.0
O  O55  1  0.33729886  0.17753532  0.49455606  1  -0.735312  0.044032  2.242878  0.063  -0.694524  0.033539  2.535621  0.052  -0.740673  0.024841  2.52397  0.042  -0.373206  -0.667583  0.039768  2.546351  0.058
O  O56  1  0.66270031  0.82246753  0.50544149  1  -0.735293  0.044033  2.242902  0.063  -0.694524  0.033539  2.535636  0.052  -0.740676  0.024842  2.523985  0.042  -0.373217  -0.667583  0.039766  2.546364  0.058
O  O57  1  0.16148536  0.38508003  0.45854630  1  -0.64343  0.014064  1.944803  0.018  -0.603056  0.007122  2.17867  0.01  -0.637472  0.003327  2.168312  0.005  -0.349632  -0.582784  0.012348  2.184069  0.017
O  O58  1  0.83851382  0.61491953  0.54145501  1  -0.643385  0.014063  1.944865  0.018  -0.603025  0.007121  2.178699  0.01  -0.637443  0.003324  2.168342  0.005  -0.349626  -0.582751  0.012347  2.184095  0.017
O  O59  1  0.64080412  0.38887347  0.52099780  1  -0.815961  4.1e-05  2.210771  0.0  -0.754557  -6.2e-05  2.464364  0.0  -0.799314  -5.7e-05  2.453929  0.0  -0.424727  -0.735511  -2.2e-05  2.469356  0.0
O  O60  1  0.35919777  0.61113048  0.47899833  1  -0.815983  5.4e-05  2.210707  0.0  -0.754571  -6.2e-05  2.464282  0.0  -0.799327  -6e-05  2.453847  0.0  -0.424702  -0.735529  -2.2e-05  2.469276  0.0
O  O61  1  0.61775458  0.19253474  0.49556955  1  -0.702399  -0.001239  2.038671  0.0  -0.673372  -0.001144  2.311904  0.0  -0.706723  -0.001385  2.297804  0.0  -0.35664  -0.65637  -0.000851  2.322633  0.0
O  O62  1  0.38224184  0.80747360  0.50442279  1  -0.702335  -0.001228  2.038644  0.0  -0.673252  -0.001142  2.311785  0.0  -0.706604  -0.001383  2.297685  0.0  -0.356575  -0.656246  -0.000851  2.322504  0.0
O  O63  1  0.98389515  0.73805514  0.78955100  1  -0.369406  -2.7e-05  1.700507  0.0  -0.357603  -2e-06  1.891704  0.0  -0.369253  7e-06  1.888444  0.0  -0.147338  -0.349497  1e-06  1.894038  0.0
O  O64  1  0.01609994  0.26194770  0.21045042  1  -0.369327  1e-06  1.700557  0.0  -0.357515  -1e-06  1.891747  0.0  -0.369169  6e-06  1.888491  0.0  -0.147314  -0.349411  1e-06  1.894085  0.0
O  O65  1  0.21208561  0.72412838  0.76686508  1  -0.328147  8e-06  1.739708  0.0  -0.315079  3.5e-05  1.940356  0.0  -0.325649  3.8e-05  1.936935  0.0  -0.112745  -0.307579  4.1e-05  1.942943  0.0
O  O66  1  0.78790711  0.27586903  0.23312641  1  -0.328063  5.3e-05  1.739851  0.0  -0.314973  3.3e-05  1.940474  0.0  -0.325546  3.7e-05  1.937061  0.0  -0.112708  -0.30747  4.1e-05  1.94306  0.0
O  O67  1  0.38422832  0.33642139  0.64119618  1  -0.715483  0.000639  2.075612  0.001  -0.664847  0.000214  2.322706  0.0  -0.701525  5.5e-05  2.311655  0.0  -0.387045  -0.646264  0.000305  2.327798  0.0
O  O68  1  0.61577531  0.66357381  0.35880353  1  -0.715559  0.000626  2.075632  0.001  -0.664918  0.000214  2.322726  0.0  -0.701598  5.7e-05  2.311667  0.0  -0.387075  -0.646332  0.000304  2.327819  0.0
O  O69  1  0.48131986  0.45199219  0.73687659  1  -0.709322  -0.000168  2.021769  0.0  -0.663875  -8.7e-05  2.275309  0.0  -0.700681  -8.1e-05  2.260945  0.0  -0.395032  -0.645562  -4.2e-05  2.281897  0.0
O  O70  1  0.51868104  0.54800519  0.26312077  1  -0.709339  -0.000168  2.021772  0.0  -0.663885  -8.8e-05  2.27529  0.0  -0.700685  -8.2e-05  2.260925  0.0  -0.395039  -0.645573  -4.2e-05  2.281882  0.0
O  O71  1  0.42519608  0.31261261  0.24488683  1  -0.685736  0.000542  2.018709  0.002  -0.643985  0.000546  2.262029  0.002  -0.679741  -5.6e-05  2.246123  0.001  -0.368054  -0.627235  0.001091  2.270438  0.002
O  O72  1  0.57481265  0.68738587  0.75511154  1  -0.68576  0.000544  2.018642  0.002  -0.644035  0.000545  2.261922  0.002  -0.679795  -5.7e-05  2.24601  0.001  -0.368048  -0.627283  0.001091  2.270331  0.002
O  O73  1  0.49351783  0.06323726  0.31445780  1  -0.607184  0.082625  2.078464  0.114  -0.591671  0.046783  2.373427  0.071  -0.634587  0.033024  2.362081  0.055  -0.31995  -0.562565  0.056315  2.381859  0.081
O  O74  1  0.50648578  0.93676121  0.68554178  1  -0.607233  0.082609  2.078441  0.114  -0.591748  0.046782  2.373371  0.071  -0.634663  0.033023  2.362021  0.055  -0.319956  -0.562641  0.056313  2.381808  0.081
O  O75  1  0.25007019  0.85733866  0.11323873  1  -0.374817  -0.000206  1.813859  0.0  -0.35799  3.5e-05  2.006673  0.0  -0.373217  1.6e-05  2.002391  0.0  -0.122305  -0.348068  1e-06  2.010089  0.0
O  O76  1  0.74995288  0.14265322  0.88676814  1  -0.375032  -0.000139  1.81406  0.0  -0.358072  2.9e-05  2.006973  0.0  -0.373292  1.4e-05  2.002691  0.0  -0.122351  -0.348151  1e-06  2.010387  0.0
O  O77  1  0.18549507  0.95629544  0.90626864  1  -0.330358  -0.00038  1.781206  0.0  -0.33093  -0.00018  1.975715  0.0  -0.342659  -0.000194  1.972819  0.0  -0.120215  -0.323564  -0.000148  1.978477  0.0
O  O78  1  0.81449592  0.04370735  0.09374575  1  -0.330386  -0.000432  1.780859  0.0  -0.330877  -0.000172  1.97553  0.0  -0.342607  -0.000197  1.97264  0.0  -0.120169  -0.323512  -0.000148  1.978289  0.0
O  O79  1  0.21755379  0.58992350  0.25676833  1  -0.894156  -6.6e-05  1.876444  0.0  -0.849482  -3.6e-05  2.058148  0.0  -0.876226  -2.6e-05  2.020824  0.0  -0.620428  -0.837286  -4.9e-05  2.079363  0.0
O  O80  1  0.78244574  0.41007495  0.74323604  1  -0.894176  -6.1e-05  1.876361  0.0  -0.849504  -3.6e-05  2.058089  0.0  -0.87625  -2.6e-05  2.020766  0.0  -0.620456  -0.837308  -4.9e-05  2.079304  0.0
