# generated using pymatgen
data_ZnH17C17NO4
_symmetry_space_group_name_H-M   'P 1'
_cell_length_a   6.54162249
_cell_length_b   7.36039832
_cell_length_c   16.85398112
_cell_angle_alpha   91.77976400
_cell_angle_beta   101.22977516
_cell_angle_gamma   90.01067864
_symmetry_Int_Tables_number   1
_chemical_formula_structural   ZnH17C17NO4
_chemical_formula_sum   'Zn2 H34 C34 N2 O8'
_cell_volume   795.56444074
_cell_formula_units_Z   2
loop_
 _symmetry_equiv_pos_site_id
 _symmetry_equiv_pos_as_xyz
  1  'x, y, z'
loop_
 _atom_site_type_symbol
 _atom_site_label
 _atom_site_symmetry_multiplicity
 _atom_site_fract_x
 _atom_site_fract_y
 _atom_site_fract_z
 _atom_site_occupancy
 _atom_site_hle17_bader_spin_density
 _atom_site_hle17_ddec_charge
 _atom_site_hle17_ddec_spin_density
 _atom_site_hle17_ddec_sum_bond_order
 _atom_site_hle17_magmom
 _atom_site_hse06_10hf_bader_spin_density
 _atom_site_hse06_10hf_ddec_charge
 _atom_site_hse06_10hf_ddec_spin_density
 _atom_site_hse06_10hf_ddec_sum_bond_order
 _atom_site_hse06_10hf_magmom
 _atom_site_hse06_bader_spin_density
 _atom_site_hse06_ddec_charge
 _atom_site_hse06_ddec_spin_density
 _atom_site_hse06_ddec_sum_bond_order
 _atom_site_hse06_magmom
 _atom_site_pbe_bader_spin_density
 _atom_site_pbe_cm5_charge
 _atom_site_pbe_ddec_charge
 _atom_site_pbe_ddec_spin_density
 _atom_site_pbe_ddec_sum_bond_order
 _atom_site_pbe_magmom
Zn  Zn0  1  0.65037025  0.73376386  0.46546245  1  0  1.077456  0  1.750274  0  0  0.905237  0  2.207083  0  0  0.955279  0  2.150266  0  0  0.678632  0.869949  0  2.246149  0
Zn  Zn1  1  0.18461883  0.26613115  0.53429419  1  0  1.076896  0  1.752688  0  0  0.904089  0  2.210326  0  0  0.954115  0  2.153442  0  0  0.677822  0.868798  0  2.249433  0
H  H2  1  0.65973895  0.63525315  0.31567843  1  0  0.265522  0  0.900227  0  0  0.259929  0  0.950372  0  0  0.265197  0  0.947203  0  0  0.303352  0.25617  0  0.952728  0
H  H3  1  0.34453538  0.36467883  0.68405097  1  0  0.265462  0  0.899085  0  0  0.260339  0  0.94885  0  0  0.265607  0  0.945587  0  0  0.303643  0.256578  0  0.951248  0
H  H4  1  0.07954348  0.76823818  0.98516129  1  0  0.08464  0  0.964955  0  0  0.096881  0  1.025813  0  0  0.099197  0  1.025543  0  0  0.097802  0.095229  0  1.026072  0
H  H5  1  0.09680786  0.23317859  0.01486400  1  0  0.085217  0  0.965765  0  0  0.097333  0  1.026532  0  0  0.099657  0  1.026294  0  0  0.097836  0.095685  0  1.026749  0
H  H6  1  0.87341481  0.90474969  0.08261715  1  0  0.08319  0  0.960537  0  0  0.095153  0  1.019385  0  0  0.097417  0  1.019233  0  0  0.09659  0.093455  0  1.019662  0
H  H7  1  0.79230216  0.09697476  0.91756485  1  0  0.082273  0  0.960294  0  0  0.094693  0  1.018702  0  0  0.096959  0  1.018557  0  0  0.096508  0.09304  0  1.018916  0
H  H8  1  0.01405665  0.90215122  0.22987774  1  0  0.098544  0  0.939895  0  0  0.111306  0  0.995633  0  0  0.114372  0  0.994643  0  0  0.1024  0.109075  0  0.996468  0
H  H9  1  0.78500370  0.09878425  0.77027896  1  0  0.097621  0  0.940646  0  0  0.110449  0  0.996323  0  0  0.113494  0  0.99534  0  0  0.102328  0.108243  0  0.997141  0
H  H10  1  0.56505188  0.62801376  0.18398944  1  0  0.084699  0  0.98833  0  0  0.094686  0  1.051846  0  0  0.096706  0  1.052711  0  0  0.095389  0.093163  0  1.051465  0
H  H11  1  0.38330652  0.37099824  0.81585903  1  0  0.083778  0  0.98793  0  0  0.093817  0  1.051434  0  0  0.095835  0  1.052298  0  0  0.094962  0.092314  0  1.051021  0
H  H12  1  0.42324473  0.62789398  0.03786461  1  0  0.079261  0  0.974072  0  0  0.08964  0  1.037654  0  0  0.091894  0  1.037146  0  0  0.096097  0.088053  0  1.037993  0
H  H13  1  0.38832800  0.37195500  0.96198770  1  0  0.079245  0  0.975108  0  0  0.09009  0  1.038076  0  0  0.092333  0  1.037685  0  0  0.095979  0.088485  0  1.038419  0
H  H14  1  0.47422836  0.91326648  0.31954846  1  0  0.079455  0  0.931903  0  0  0.098731  0  0.991649  0  0  0.099169  0  0.991475  0  0  0.111835  0.09833  0  0.991924  0
H  H15  1  0.15548631  0.08651379  0.68039654  1  0  0.079588  0  0.931366  0  0  0.099035  0  0.99085  0  0  0.09943  0  0.990759  0  0  0.111835  0.098648  0  0.991087  0
H  H16  1  0.26103112  0.79106330  0.34101072  1  0  0.083956  0  0.925962  0  0  0.099732  0  0.990322  0  0  0.100358  0  0.989644  0  0  0.112758  0.099152  0  0.990928  0
H  H17  1  0.92056904  0.20850778  0.65906208  1  0  0.083325  0  0.927621  0  0  0.099152  0  0.992  0  0  0.099835  0  0.991256  0  0  0.11251  0.098571  0  0.992608  0
H  H18  1  0.30782379  0.44018611  0.29069720  1  0  0.066301  0  0.92572  0  0  0.077549  0  0.987918  0  0  0.078719  0  0.988168  0  0  0.11021  0.076652  0  0.987961  0
H  H19  1  0.01754215  0.55942083  0.70910518  1  0  0.066274  0  0.926694  0  0  0.077696  0  0.988936  0  0  0.078869  0  0.989191  0  0  0.110608  0.076804  0  0.988967  0
H  H20  1  0.73500347  0.33613233  0.38872694  1  0  0.114755  0  0.928099  0  0  0.130791  0  0.986404  0  0  0.132758  0  0.985527  0  0  0.10482  0.129302  0  0.987161  0
H  H21  1  0.34679542  0.66379915  0.61133160  1  0  0.114876  0  0.926844  0  0  0.130955  0  0.984793  0  0  0.132953  0  0.983874  0  0  0.105148  0.129446  0  0.985587  0
H  H22  1  0.52608824  0.18209071  0.35554531  1  0  0.100513  0  0.944187  0  0  0.114665  0  1.007818  0  0  0.116411  0  1.007018  0  0  0.10021  0.113357  0  1.008507  0
H  H23  1  0.17096555  0.81770414  0.64442570  1  0  0.101207  0  0.944295  0  0  0.115252  0  1.007752  0  0  0.117004  0  1.006944  0  0  0.100821  0.113942  0  1.008433  0
H  H24  1  0.95247223  0.42931572  0.29660182  1  0  0.09954  0  0.963663  0  0  0.108633  0  1.028226  0  0  0.111857  0  1.026472  0  0  0.098606  0.106295  0  1.029608  0
H  H25  1  0.65697772  0.57152655  0.70381117  1  0  0.098128  0  0.964085  0  0  0.107283  0  1.028687  0  0  0.110436  0  1.026995  0  0  0.098204  0.104952  0  1.030081  0
H  H26  1  0.03168533  0.43237935  0.15748375  1  0  0.083367  0  0.972308  0  0  0.091996  0  1.038187  0  0  0.093975  0  1.038898  0  0  0.094404  0.090469  0  1.03797  0
H  H27  1  0.87458833  0.56833977  0.84316103  1  0  0.083605  0  0.971498  0  0  0.092549  0  1.036863  0  0  0.094573  0  1.037603  0  0  0.09462  0.091012  0  1.036613  0
H  H28  1  0.78333325  0.28838265  0.04173066  1  0  0.079189  0  0.977753  0  0  0.091712  0  1.039546  0  0  0.094168  0  1.038764  0  0  0.095568  0.089932  0  1.040176  0
H  H29  1  0.74058906  0.71117742  0.95873062  1  0  0.078721  0  0.977682  0  0  0.090935  0  1.039931  0  0  0.093448  0  1.03907  0  0  0.095285  0.089154  0  1.040574  0
H  H30  1  0.46125296  0.13583185  0.06597967  1  0  0.0803  0  0.969047  0  0  0.091809  0  1.030642  0  0  0.094154  0  1.030257  0  0  0.095936  0.090154  0  1.030945  0
H  H31  1  0.39393058  0.86299533  0.93404324  1  0  0.081346  0  0.968302  0  0  0.092583  0  1.03012  0  0  0.094843  0  1.029819  0  0  0.096191  0.090961  0  1.030383  0
H  H32  1  0.37705463  0.14483490  0.20264338  1  0  0.088737  0  0.9653  0  0  0.100934  0  1.026181  0  0  0.103137  0  1.026605  0  0  0.096877  0.099199  0  1.026216  0
H  H33  1  0.17386844  0.85414274  0.79713349  1  0  0.088678  0  0.965844  0  0  0.100696  0  1.026803  0  0  0.102896  0  1.027163  0  0  0.096995  0.099043  0  1.026814  0
H  H34  1  0.71760566  0.99666342  0.59337956  1  0  0.012537  0  0.95368  0  0  0.020434  0  1.027069  0  0  0.021274  0  1.021111  0  0  0.108941  0.019566  0  1.031502  0
H  H35  1  0.12391795  0.00328209  0.40633846  1  0  0.01303  0  0.95456  0  0  0.021461  0  1.027223  0  0  0.022315  0  1.021241  0  0  0.109605  0.020588  0  1.031667  0
C  C36  1  0.13965174  0.76664418  0.05019243  1  0  -0.093172  0  3.795288  0  0  -0.108679  0  4.043635  0  0  -0.111394  0  4.06605  0  0  -0.099472  -0.106751  0  4.028294  0
C  C37  1  0.09163822  0.23431828  0.94983684  1  0  -0.094081  0  3.799787  0  0  -0.109559  0  4.04849  0  0  -0.112302  0  4.070951  0  0  -0.09978  -0.107621  0  4.033136  0
C  C38  1  0.02483921  0.84315977  0.10448564  1  0  -0.070899  0  3.796522  0  0  -0.082097  0  4.043757  0  0  -0.083849  0  4.066334  0  0  -0.094955  -0.080767  0  4.028355  0
C  C39  1  0.92205897  0.15791259  0.89563978  1  0  -0.070302  0  3.797186  0  0  -0.081943  0  4.044762  0  0  -0.08369  0  4.067309  0  0  -0.095059  -0.080644  0  4.029357  0
C  C40  1  0.10406404  0.84184598  0.18761441  1  0  -0.126587  0  3.746603  0  0  -0.144423  0  3.989716  0  0  -0.147814  0  4.011365  0  0  -0.093213  -0.14201  0  3.974954  0
C  C41  1  0.91772781  0.15884707  0.81249507  1  0  -0.125199  0  3.749774  0  0  -0.143176  0  3.993043  0  0  -0.146539  0  4.014688  0  0  -0.093232  -0.140795  0  3.978311  0
C  C42  1  0.29955030  0.76586446  0.21746606  1  0  0.058239  0  3.756764  0  0  0.079405  0  3.997176  0  0  0.078793  0  4.021594  0  0  -0.016795  0.07983  0  3.980497  0
C  C43  1  0.08349785  0.23412210  0.78253018  1  0  0.055739  0  3.762804  0  0  0.077199  0  4.003131  0  0  0.076593  0  4.027623  0  0  -0.017813  0.077607  0  3.986439  0
C  C44  1  0.41291418  0.68868599  0.16268144  1  0  -0.121923  0  3.750324  0  0  -0.14052  0  3.992271  0  0  -0.143573  0  4.014775  0  0  -0.097696  -0.13838  0  3.977063  0
C  C45  1  0.25230867  0.31089745  0.83723463  1  0  -0.119691  0  3.748857  0  0  -0.138424  0  3.990819  0  0  -0.14148  0  4.013398  0  0  -0.097104  -0.136281  0  3.975545  0
C  C46  1  0.33300805  0.68858739  0.07966938  1  0  -0.070319  0  3.795859  0  0  -0.080071  0  4.040981  0  0  -0.08189  0  4.063274  0  0  -0.095257  -0.078733  0  4.025802  0
C  C47  1  0.25578915  0.31146490  0.92026134  1  0  -0.069542  0  3.797637  0  0  -0.079631  0  4.042645  0  0  -0.081522  0  4.064997  0  0  -0.093865  -0.078262  0  4.02743  0
C  C48  1  0.38837820  0.78356982  0.30710657  1  0  -0.015562  0  3.666554  0  0  -0.081045  0  3.927407  0  0  -0.076306  0  3.937689  0  0  -0.06552  -0.084116  0  3.92035  0
C  C49  1  0.08206043  0.21617438  0.69286245  1  0  -0.013962  0  3.668115  0  0  -0.079518  0  3.929192  0  0  -0.074908  0  3.939513  0  0  -0.06471  -0.082536  0  3.922129  0
C  C50  1  0.43692353  0.46087279  0.34302559  1  0  0.020519  0  3.626509  0  0  0.004164  0  3.864948  0  0  0.002895  0  3.87786  0  0  0.003327  0.004996  0  3.856051  0
C  C51  1  0.09428345  0.53888940  0.65682791  1  0  0.022298  0  3.625585  0  0  0.004874  0  3.866296  0  0  0.003494  0  3.879213  0  0  0.003626  0.005768  0  3.857395  0
C  C52  1  0.34885967  0.44317164  0.42018510  1  0  0.644135  0  3.847644  0  0  0.594934  0  4.142691  0  0  0.628501  0  4.136559  0  0  0.212158  0.572132  0  4.146119  0
C  C53  1  0.92895381  0.55675916  0.57964326  1  0  0.645929  0  3.84535  0  0  0.595997  0  4.142091  0  0  0.62962  0  4.135888  0  0  0.212202  0.573158  0  4.145573  0
C  C54  1  0.59815048  0.30806458  0.34057120  1  0  -0.198022  0  3.656991  0  0  -0.247239  0  3.903686  0  0  -0.248238  0  3.91431  0  0  -0.155555  -0.246282  0  3.896234  0
C  C55  1  0.25801522  0.69173833  0.65943059  1  0  -0.199343  0  3.657808  0  0  -0.24761  0  3.903162  0  0  -0.248644  0  3.913743  0  0  -0.155685  -0.246712  0  3.895898  0
C  C56  1  0.65787050  0.29129452  0.25881866  1  0  0.096932  0  3.757886  0  0  0.117501  0  3.99608  0  0  0.117863  0  4.020612  0  0  -0.013703  0.117252  0  3.979351  0
C  C57  1  0.39930260  0.70861204  0.74128272  1  0  0.096333  0  3.76031  0  0  0.117433  0  3.997482  0  0  0.11785  0  4.021925  0  0  -0.014548  0.117156  0  3.980814  0
C  C58  1  0.84339024  0.36896073  0.24522584  1  0  -0.141801  0  3.743181  0  0  -0.161034  0  3.99024  0  0  -0.163991  0  4.010127  0  0  -0.098617  -0.158982  0  3.976784  0
C  C59  1  0.59868409  0.63145877  0.75507964  1  0  -0.14017  0  3.747116  0  0  -0.159575  0  3.993961  0  0  -0.16251  0  4.013912  0  0  -0.098631  -0.157509  0  3.980485  0
C  C60  1  0.88878887  0.36822631  0.16746825  1  0  -0.071451  0  3.795605  0  0  -0.082636  0  4.043941  0  0  -0.084007  0  4.066164  0  0  -0.09685  -0.081553  0  4.028817  0
C  C61  1  0.72143884  0.63210116  0.83296899  1  0  -0.073201  0  3.796537  0  0  -0.084701  0  4.045282  0  0  -0.086152  0  4.06748  0  0  -0.097188  -0.083594  0  4.030205  0
C  C62  1  0.74987970  0.28688301  0.10259859  1  0  -0.09424  0  3.798577  0  0  -0.108147  0  4.043511  0  0  -0.110903  0  4.06531  0  0  -0.101174  -0.106147  0  4.028561  0
C  C63  1  0.64675299  0.71288853  0.89774863  1  0  -0.092029  0  3.795796  0  0  -0.105542  0  4.040568  0  0  -0.108321  0  4.06231  0  0  -0.100234  -0.103562  0  4.025641  0
C  C64  1  0.56813248  0.20324858  0.11599248  1  0  -0.06975  0  3.793388  0  0  -0.079675  0  4.037158  0  0  -0.081193  0  4.059228  0  0  -0.094545  -0.078502  0  4.021999  0
C  C65  1  0.45135243  0.79603504  0.88413527  1  0  -0.071949  0  3.797518  0  0  -0.081695  0  4.041627  0  0  -0.083159  0  4.063715  0  0  -0.09524  -0.080527  0  4.026495  0
C  C66  1  0.52174611  0.20703815  0.19333594  1  0  -0.126763  0  3.738787  0  0  -0.145017  0  3.981362  0  0  -0.148637  0  4.004245  0  0  -0.09552  -0.142459  0  3.965971  0
C  C67  1  0.32804787  0.79230219  0.80667767  1  0  -0.126267  0  3.743166  0  0  -0.144766  0  3.985921  0  0  -0.148367  0  4.008757  0  0  -0.095485  -0.142295  0  3.970521  0
C  C68  1  0.57036240  0.04550255  0.55677487  1  0  0.596388  0  3.873464  0  0  0.526131  0  4.172093  0  0  0.561049  0  4.163213  0  0  0.146509  0.502457  0  4.177394  0
C  C69  1  0.01337820  0.95428872  0.44292500  1  0  0.595647  0  3.874688  0  0  0.524743  0  4.173764  0  0  0.559684  0  4.164893  0  0  0.145951  0.501061  0  4.179042  0
N  N70  1  0.53275954  0.64105779  0.34271949  1  0  -0.432355  0  3.281028  0  0  -0.362132  0  3.532996  0  0  -0.380013  0  3.541512  0  0  -0.477892  -0.349701  0  3.526909  0
N  N71  1  0.19037674  0.35876651  0.65710504  1  0  -0.433078  0  3.281275  0  0  -0.363727  0  3.5348  0  0  -0.381315  0  3.542968  0  0  -0.478663  -0.351438  0  3.528914  0
O  O72  1  0.41057883  0.55032804  0.48025646  1  0  -0.612256  0  2.03057  0  0  -0.550053  0  2.286719  0  0  -0.577156  0  2.274471  0  0  -0.303723  -0.531172  0  2.294458  0
O  O73  1  0.93038162  0.44982260  0.51950367  1  0  -0.613513  0  2.031019  0  0  -0.55053  0  2.287503  0  0  -0.577624  0  2.275114  0  0  -0.303721  -0.531704  0  2.295442  0
O  O74  1  0.22256447  0.31159764  0.41987014  1  0  -0.622011  0  2.064069  0  0  -0.555918  0  2.326875  0  0  -0.584858  0  2.314417  0  0  -0.313617  -0.535757  0  2.334789  0
O  O75  1  0.80298411  0.68828425  0.57995688  1  0  -0.622996  0  2.064478  0  0  -0.556936  0  2.328003  0  0  -0.585853  0  2.31543  0  0  -0.314038  -0.536722  0  2.335853  0
O  O76  1  0.50196197  0.96463191  0.48893482  1  0  -0.601751  0  2.083573  0  0  -0.529458  0  2.355275  0  0  -0.559329  0  2.342913  0  0  -0.319377  -0.508707  0  2.363074  0
O  O77  1  0.01244711  0.03536692  0.51068046  1  0  -0.601699  0  2.083906  0  0  -0.528943  0  2.355634  0  0  -0.558846  0  2.34331  0  0  -0.318967  -0.508165  0  2.363396  0
O  O78  1  0.48222446  0.17772336  0.58615342  1  0  -0.609032  0  2.063533  0  0  -0.543267  0  2.328605  0  0  -0.57148  0  2.314829  0  0  -0.328792  -0.523566  0  2.337325  0
O  O79  1  0.89624102  0.82168570  0.41358666  1  0  -0.608475  0  2.062212  0  0  -0.542919  0  2.327619  0  0  -0.571122  0  2.31387  0  0  -0.328865  -0.523228  0  2.336319  0
