# generated using pymatgen
data_ZnH9C16NO8
_symmetry_space_group_name_H-M   'P 1'
_cell_length_a   4.66560608
_cell_length_b   16.15588679
_cell_length_c   20.75315377
_cell_angle_alpha   84.27604359
_cell_angle_beta   83.52422962
_cell_angle_gamma   81.69600634
_symmetry_Int_Tables_number   1
_chemical_formula_structural   ZnH9C16NO8
_chemical_formula_sum   'Zn4 H36 C64 N4 O32'
_cell_volume   1532.48412375
_cell_formula_units_Z   4
loop_
 _symmetry_equiv_pos_site_id
 _symmetry_equiv_pos_as_xyz
  1  'x, y, z'
loop_
 _atom_site_type_symbol
 _atom_site_label
 _atom_site_symmetry_multiplicity
 _atom_site_fract_x
 _atom_site_fract_y
 _atom_site_fract_z
 _atom_site_occupancy
 _atom_site_hle17_bader_spin_density
 _atom_site_hle17_ddec_charge
 _atom_site_hle17_ddec_spin_density
 _atom_site_hle17_ddec_sum_bond_order
 _atom_site_hle17_magmom
 _atom_site_hse06_10hf_bader_spin_density
 _atom_site_hse06_10hf_ddec_charge
 _atom_site_hse06_10hf_ddec_spin_density
 _atom_site_hse06_10hf_ddec_sum_bond_order
 _atom_site_hse06_10hf_magmom
 _atom_site_hse06_bader_spin_density
 _atom_site_hse06_ddec_charge
 _atom_site_hse06_ddec_spin_density
 _atom_site_hse06_ddec_sum_bond_order
 _atom_site_hse06_magmom
 _atom_site_pbe_bader_charge
 _atom_site_pbe_bader_spin_density
 _atom_site_pbe_cm5_charge
 _atom_site_pbe_ddec_charge
 _atom_site_pbe_ddec_spin_density
 _atom_site_pbe_ddec_sum_bond_order
 _atom_site_pbe_magmom
Zn  Zn0  1  0.60703553  0.11660812  0.53729580  1  0  1.107948  0  1.766546  0  0  0.924453  0  2.245221  0  0  0.97249  0  2.185715  0  1.302001  0  0.719557  0.890892  0  2.286209  0
Zn  Zn1  1  0.26102699  0.38338241  0.96270628  1  0  1.106688  0  1.767822  0  0  0.923233  0  2.246225  0  0  0.971232  0  2.186786  0  1.303895  0  0.718859  0.889685  0  2.287197  0
Zn  Zn2  1  0.39296603  0.88339178  0.46270410  1  0  1.107931  0  1.766573  0  0  0.924437  0  2.245252  0  0  0.972477  0  2.185747  0  1.301984  0  0.719558  0.890875  0  2.286242  0
Zn  Zn3  1  0.73896988  0.61661749  0.03729399  1  0  1.106679  0  1.767773  0  0  0.92323  0  2.246171  0  0  0.971224  0  2.186735  0  1.303886  0  0.718862  0.889684  0  2.287144  0
H  H4  1  0.80350742  0.75766559  0.85423573  1  0  0.409082  0  0.880959  0  0  0.377609  0  0.96125  0  0  0.390278  0  0.943348  0  0.665085  0  0.30445  0.36871  0  0.970918  0
H  H5  1  0.41554659  0.74236565  0.64575515  1  0  0.409119  0  0.881089  0  0  0.378538  0  0.960044  0  0  0.391209  0  0.942097  0  0.665406  0  0.305211  0.369629  0  0.969834  0
H  H6  1  0.19649204  0.24233431  0.14576412  1  0  0.409064  0  0.88097  0  0  0.377591  0  0.961257  0  0  0.390259  0  0.943368  0  0.665083  0  0.304465  0.368692  0  0.970926  0
H  H7  1  0.58445267  0.25763362  0.35424522  1  0  0.40913  0  0.881112  0  0  0.378552  0  0.960035  0  0  0.391222  0  0.942089  0  0.6654  0  0.305216  0.369643  0  0.969853  0
H  H8  1  0.93465106  0.21420982  0.80053559  1  0  0.396125  0  0.888241  0  0  0.36425  0  0.97059  0  0  0.377327  0  0.956082  0  0.653279  0  0.305399  0.355071  0  0.980713  0
H  H9  1  0.94929604  0.28582089  0.69946144  1  0  0.396227  0  0.887145  0  0  0.364342  0  0.969445  0  0  0.377403  0  0.954954  0  0.651365  0  0.305819  0.355184  0  0.979515  0
H  H10  1  0.06535098  0.78579009  0.19946382  1  0  0.396108  0  0.888258  0  0  0.364237  0  0.970599  0  0  0.377313  0  0.956093  0  0.653272  0  0.305383  0.355059  0  0.98072  0
H  H11  1  0.05070312  0.71417964  0.30053837  1  0  0.396226  0  0.887123  0  0  0.364347  0  0.969426  0  0  0.377408  0  0.954934  0  0.651361  0  0.305813  0.355188  0  0.979497  0
H  H12  1  0.61803843  0.82467055  0.70484740  1  0  0.116997  0  0.944712  0  0  0.123911  0  1.00912  0  0  0.128277  0  1.004775  0  0.133517  0  0.11606  0.120747  0  1.012247  0
H  H13  1  0.14779875  0.67538707  0.79513100  1  0  0.11779  0  0.944642  0  0  0.124507  0  1.009068  0  0  0.128905  0  1.004665  0  0.157505  0  0.116438  0.121286  0  1.012268  0
H  H14  1  0.38196391  0.17532873  0.29515206  1  0  0.117001  0  0.944743  0  0  0.123918  0  1.009145  0  0  0.128284  0  1.0048  0  0.133502  0  0.11606  0.120754  0  1.012272  0
H  H15  1  0.85220023  0.32461284  0.20486932  1  0  0.117751  0  0.944671  0  0  0.124468  0  1.009098  0  0  0.128864  0  1.004696  0  0.157495  0  0.116435  0.121247  0  1.012298  0
H  H16  1  0.32317907  0.02786333  0.82419068  1  0  0.110031  0  0.954646  0  0  0.116354  0  1.022564  0  0  0.120578  0  1.018298  0  0.118453  0  0.112369  0.113331  0  1.025586  0
H  H17  1  0.17517132  0.47220003  0.67580933  1  0  0.110835  0  0.954541  0  0  0.117023  0  1.022396  0  0  0.121305  0  1.018072  0  0.119689  0  0.112429  0.11392  0  1.0255  0
H  H18  1  0.67682039  0.97213658  0.17580916  1  0  0.110024  0  0.954609  0  0  0.11635  0  1.022524  0  0  0.120574  0  1.018256  0  0.118449  0  0.112354  0.113326  0  1.025546  0
H  H19  1  0.82482795  0.52779925  0.32419103  1  0  0.110837  0  0.954519  0  0  0.117027  0  1.022366  0  0  0.121308  0  1.018042  0  0.119685  0  0.112415  0.113924  0  1.025471  0
H  H20  1  0.01059371  0.21213810  0.45742500  1  0  0.085987  0  0.954169  0  0  0.093616  0  1.019756  0  0  0.096364  0  1.016892  0  0.134571  0  0.116935  0.091549  0  1.021927  0
H  H21  1  0.67993180  0.28781728  0.04257683  1  0  0.085808  0  0.954048  0  0  0.09325  0  1.019867  0  0  0.095982  0  1.017022  0  0.132306  0  0.117281  0.091215  0  1.021971  0
H  H22  1  0.98940678  0.78786306  0.54257530  1  0  0.085956  0  0.954165  0  0  0.093582  0  1.019742  0  0  0.096329  0  1.01688  0  0.134555  0  0.116917  0.091513  0  1.021915  0
H  H23  1  0.32006766  0.71218263  0.95742301  1  0  0.085807  0  0.954047  0  0  0.093247  0  1.019872  0  0  0.095978  0  1.017028  0  0.132304  0  0.117273  0.091212  0  1.021976  0
H  H24  1  0.15121940  0.35404565  0.44562532  1  0  0.121358  0  0.959118  0  0  0.130279  0  1.018832  0  0  0.1341  0  1.017127  0  0.124271  0  0.111146  0.12753  0  1.02023  0
H  H25  1  0.95075651  0.14592731  0.05435236  1  0  0.120548  0  0.956166  0  0  0.130016  0  1.015629  0  0  0.133843  0  1.013888  0  0.110753  0  0.110377  0.127238  0  1.017113  0
H  H26  1  0.84878139  0.64595488  0.55437502  1  0  0.121368  0  0.959087  0  0  0.130313  0  1.018769  0  0  0.134131  0  1.017073  0  0.124286  0  0.111147  0.127562  0  1.020172  0
H  H27  1  0.04924265  0.85407323  0.94564744  1  0  0.120578  0  0.95619  0  0  0.130041  0  1.015654  0  0  0.133868  0  1.013913  0  0.110813  0  0.110391  0.127261  0  1.017141  0
H  H28  1  0.48770287  0.41754439  0.60283983  1  0  0.107602  0  0.962277  0  0  0.11691  0  1.026546  0  0  0.120018  0  1.02529  0  0.086087  0  0.107462  0.114672  0  1.02763  0
H  H29  1  0.50822956  0.08242794  0.89715594  1  0  0.108217  0  0.961534  0  0  0.116781  0  1.026424  0  0  0.11994  0  1.025101  0  0.108766  0  0.107235  0.114493  0  1.027592  0
H  H30  1  0.51229791  0.58245615  0.39716051  1  0  0.107552  0  0.962366  0  0  0.116884  0  1.026606  0  0  0.119992  0  1.025352  0  0.086101  0  0.107441  0.114646  0  1.027692  0
H  H31  1  0.49177018  0.91757133  0.10284395  1  0  0.108215  0  0.961535  0  0  0.116761  0  1.026445  0  0  0.119918  0  1.025124  0  0.108778  0  0.107242  0.114473  0  1.027612  0
H  H32  1  0.36949323  0.27009280  0.60801590  1  0  0.084033  0  0.937602  0  0  0.093016  0  0.999922  0  0  0.095572  0  0.99771  0  0.112894  0  0.116729  0.091116  0  1.001557  0
H  H33  1  0.24765013  0.22988957  0.89199676  1  0  0.083306  0  0.93612  0  0  0.092151  0  0.998935  0  0  0.094621  0  0.996848  0  0.120818  0  0.11684  0.090332  0  1.000463  0
H  H34  1  0.63050383  0.72990773  0.39198385  1  0  0.084039  0  0.937627  0  0  0.093003  0  0.99997  0  0  0.095566  0  0.997749  0  0.112896  0  0.116733  0.091109  0  1.001588  0
H  H35  1  0.75234962  0.77010970  0.10800313  1  0  0.083299  0  0.936117  0  0  0.092145  0  0.998934  0  0  0.094618  0  0.996848  0  0.120911  0  0.116836  0.090327  0  1.000463  0
H  H36  1  0.76136191  0.52389626  0.55568216  1  0  0.111287  0  0.97925  0  0  0.122176  0  1.040529  0  0  0.125382  0  1.038626  0  0.092248  0  0.106758  0.119879  0  1.041975  0
H  H37  1  0.84100462  0.97608037  0.94433893  1  0  0.11144  0  0.979296  0  0  0.122436  0  1.040353  0  0  0.125658  0  1.038443  0  0.125398  0  0.107231  0.120145  0  1.041775  0
H  H38  1  0.23864127  0.47610365  0.44431827  1  0  0.111289  0  0.979209  0  0  0.122175  0  1.040485  0  0  0.125381  0  1.038582  0  0.092198  0  0.106754  0.119878  0  1.041931  0
H  H39  1  0.15899484  0.02391953  0.05566091  1  0  0.111459  0  0.979289  0  0  0.122465  0  1.040343  0  0  0.125686  0  1.038435  0  0.125411  0  0.107247  0.120175  0  1.041763  0
C  C40  1  0.49878639  0.88679379  0.71104325  1  0  -0.012748  0  3.642632  0  0  -0.056849  0  3.896109  0  0  -0.050336  0  3.911313  0  0.03993  0  -0.056061  -0.060782  0  3.885839  0
C  C41  1  0.09701777  0.61324311  0.78895096  1  0  -0.012477  0  3.641635  0  0  -0.055772  0  3.894696  0  0  -0.049268  0  3.909783  0  0.05139  0  -0.05508  -0.059661  0  3.884518  0
C  C42  1  0.50121307  0.11320612  0.28895659  1  0  -0.012752  0  3.642629  0  0  -0.05685  0  3.896106  0  0  -0.050336  0  3.911308  0  0.039979  0  -0.056062  -0.060783  0  3.885836  0
C  C43  1  0.90298150  0.38675617  0.21104941  1  0  -0.012332  0  3.641617  0  0  -0.055616  0  3.894667  0  0  -0.049108  0  3.909749  0  0.051371  0  -0.05502  -0.059504  0  3.884489  0
C  C44  1  0.36568443  0.93134762  0.65874960  1  0  -0.077363  0  3.691036  0  0  -0.061331  0  3.931455  0  0  -0.071484  0  3.952291  0  0.043891  0  -0.00716  -0.055117  0  3.917767  0
C  C45  1  0.95623040  0.56867484  0.84125753  1  0  -0.077137  0  3.692226  0  0  -0.061966  0  3.933155  0  0  -0.072011  0  3.953777  0  -0.049205  0  -0.008095  -0.055839  0  3.919594  0
C  C46  1  0.63431303  0.06865103  0.34125076  1  0  -0.077443  0  3.691078  0  0  -0.061422  0  3.931521  0  0  -0.071573  0  3.952354  0  0.043929  0  -0.007189  -0.055209  0  3.917833  0
C  C47  1  0.04376828  0.43132569  0.15874275  1  0  -0.077131  0  3.692157  0  0  -0.061963  0  3.933097  0  0  -0.072007  0  3.953715  0  -0.049193  0  -0.008057  -0.055836  0  3.919537  0
C  C48  1  0.21901930  0.01313405  0.66532008  1  0  -0.004248  0  3.611672  0  0  -0.005729  0  3.848238  0  0  -0.002525  0  3.86438  0  -0.023344  0  0.02314  -0.007675  0  3.837491  0
C  C49  1  0.89778374  0.48689729  0.83471027  1  0  -0.007072  0  3.612003  0  0  -0.007698  0  3.849524  0  0  -0.00448  0  3.865638  0  0.026417  0  0.021983  -0.009622  0  3.838774  0
C  C50  1  0.78098093  0.98686522  0.33467932  1  0  -0.00431  0  3.611847  0  0  -0.005782  0  3.848373  0  0  -0.002583  0  3.864525  0  -0.023707  0  0.023144  -0.007728  0  3.837624  0
C  C51  1  0.10221601  0.51310199  0.16528962  1  0  -0.007061  0  3.611975  0  0  -0.007666  0  3.849481  0  0  -0.004446  0  3.865593  0  0.026421  0  0.02197  -0.00959  0  3.838732  0
C  C52  1  0.20276401  0.04777943  0.72584056  1  0  -0.102824  0  3.712377  0  0  -0.089356  0  3.956908  0  0  -0.101024  0  3.979636  0  0.002927  0  -0.013555  -0.081991  0  3.941729  0
C  C53  1  0.97651739  0.45224375  0.77418032  1  0  -0.100699  0  3.712571  0  0  -0.087284  0  3.957249  0  0  -0.099038  0  3.980108  0  0.019816  0  -0.011981  -0.079929  0  3.942072  0
C  C54  1  0.79723774  0.95222110  0.27415881  1  0  -0.102749  0  3.712457  0  0  -0.089282  0  3.956986  0  0  -0.100949  0  3.979716  0  0.00291  0  -0.013535  -0.081918  0  3.941806  0
C  C55  1  0.02348129  0.54775678  0.22581996  1  0  -0.100656  0  3.712528  0  0  -0.087267  0  3.95721  0  0  -0.099022  0  3.980069  0  0.01997  0  -0.01194  -0.079911  0  3.942032  0
C  C56  1  0.33660058  0.00127191  0.77767287  1  0  -0.02615  0  3.662434  0  0  -0.06911  0  3.917588  0  0  -0.06291  0  3.933723  0  -0.008725  0  -0.060574  -0.072675  0  3.906423  0
C  C57  1  0.11564399  0.49877136  0.72233509  1  0  -0.028187  0  3.668018  0  0  -0.070741  0  3.923189  0  0  -0.064574  0  3.939409  0  -0.031727  0  -0.060703  -0.074243  0  3.912021  0
C  C58  1  0.66340097  0.99872800  0.22232703  1  0  -0.026186  0  3.662438  0  0  -0.069146  0  3.917596  0  0  -0.062944  0  3.933729  0  -0.008769  0  -0.060578  -0.072712  0  3.90643  0
C  C59  1  0.88435528  0.50122792  0.27766528  1  0  -0.028319  0  3.668101  0  0  -0.070866  0  3.923277  0  0  -0.064701  0  3.939499  0  -0.031974  0  -0.060762  -0.074367  0  3.912108  0
C  C60  1  0.48695722  0.92116796  0.77048302  1  0  -0.075612  0  3.760176  0  0  -0.051772  0  3.999574  0  0  -0.062888  0  4.022796  0  -0.036013  0  -0.013636  -0.044872  0  3.984064  0
C  C61  1  0.17896187  0.57884194  0.72951718  1  0  -0.075175  0  3.763678  0  0  -0.051394  0  4.003594  0  0  -0.062583  0  4.026891  0  -0.026439  0  -0.013692  -0.044467  0  3.988015  0
C  C62  1  0.51304530  0.07883195  0.22951591  1  0  -0.07561  0  3.760134  0  0  -0.051766  0  3.999555  0  0  -0.062886  0  4.022777  0  -0.036013  0  -0.013632  -0.044861  0  3.984048  0
C  C63  1  0.82103950  0.42115733  0.27048324  1  0  -0.075165  0  3.763767  0  0  -0.051403  0  4.003701  0  0  -0.06259  0  4.026998  0  -0.026367  0  -0.013712  -0.044478  0  3.988122  0
C  C64  1  0.63541488  0.87357875  0.82571587  1  0  0.653319  0  3.841933  0  0  0.608261  0  4.133257  0  0  0.641092  0  4.125539  0  1.55953  0  0.231401  0.585934  0  4.138091  0
C  C65  1  0.33506524  0.62641985  0.67426988  1  0  0.653355  0  3.840808  0  0  0.606974  0  4.134421  0  0  0.639855  0  4.126643  0  1.564939  0  0.231265  0.584644  0  4.139262  0
C  C66  1  0.36458638  0.12642178  0.17428398  1  0  0.653429  0  3.841731  0  0  0.608324  0  4.133133  0  0  0.641163  0  4.125404  0  1.559528  0  0.231466  0.585983  0  4.137984  0
C  C67  1  0.66493468  0.37357943  0.32573198  1  0  0.653333  0  3.840845  0  0  0.606959  0  4.134454  0  0  0.639839  0  4.126676  0  1.565085  0  0.231242  0.584631  0  4.139294  0
C  C68  1  0.39982895  0.88964083  0.59617737  1  0  0.660923  0  3.873325  0  0  0.607327  0  4.165514  0  0  0.642098  0  4.158847  0  1.586623  0  0.220251  0.58378  0  4.169363  0
C  C69  1  0.88585019  0.61041176  0.90381520  1  0  0.658516  0  3.874701  0  0  0.605415  0  4.166198  0  0  0.640141  0  4.15957  0  1.579313  0  0.220084  0.581904  0  4.17003  0
C  C70  1  0.60017061  0.11035782  0.40382304  1  0  0.661232  0  3.873035  0  0  0.607638  0  4.165215  0  0  0.642409  0  4.158544  0  1.587051  0  0.220363  0.58409  0  4.169068  0
C  C71  1  0.11414956  0.38958752  0.09618469  1  0  0.658605  0  3.874672  0  0  0.605461  0  4.166232  0  0  0.640188  0  4.159599  0  1.57932  0  0.220095  0.581949  0  4.170066  0
C  C72  1  0.06891017  0.06107357  0.60954176  1  0  0.694965  0  3.880494  0  0  0.635863  0  4.183745  0  0  0.672867  0  4.171288  0  1.630571  0  0.226051  0.610459  0  4.1916  0
C  C73  1  0.73969868  0.43899983  0.89051773  1  0  0.700382  0  3.873721  0  0  0.63893  0  4.180482  0  0  0.675889  0  4.168075  0  1.606054  0  0.227267  0.613567  0  4.188289  0
C  C74  1  0.93108958  0.93892571  0.39045813  1  0  0.694969  0  3.880544  0  0  0.635923  0  4.183713  0  0  0.672921  0  4.17127  0  1.630851  0  0.226077  0.610518  0  4.191568  0
C  C75  1  0.26030078  0.56100007  0.10948212  1  0  0.700363  0  3.873739  0  0  0.638919  0  4.180481  0  0  0.675878  0  4.168071  0  1.606057  0  0.227276  0.613554  0  4.188293  0
C  C76  1  0.05661817  0.13442175  0.73573726  1  0  0.663238  0  3.785386  0  0  0.614724  0  4.077852  0  0  0.648833  0  4.06936  0  1.494742  0  0.240781  0.591509  0  4.083297  0
C  C77  1  0.92711145  0.36558135  0.76427124  1  0  0.663504  0  3.780406  0  0  0.614046  0  4.074329  0  0  0.648206  0  4.065775  0  1.500907  0  0.239661  0.590812  0  4.07982  0
C  C78  1  0.94338339  0.86557816  0.26426264  1  0  0.663188  0  3.785459  0  0  0.614659  0  4.077953  0  0  0.648768  0  4.069463  0  1.49455  0  0.240751  0.591444  0  4.083397  0
C  C79  1  0.07288542  0.63441856  0.23572903  1  0  0.663541  0  3.78038  0  0  0.614113  0  4.074263  0  0  0.648272  0  4.065708  0  1.500851  0  0.239689  0.590879  0  4.079753  0
C  C80  1  0.89645539  0.25956785  0.48828194  1  0  0.144964  0  3.701796  0  0  0.108294  0  3.959872  0  0  0.116591  0  3.976396  0  0.452392  0  0.046614  0.102865  0  3.948789  0
C  C81  1  0.64413505  0.24039569  0.01171852  1  0  0.144213  0  3.700456  0  0  0.107639  0  3.959303  0  0  0.115939  0  3.975793  0  0.400829  0  0.045775  0.1022  0  3.948225  0
C  C82  1  0.10354455  0.74043205  0.51171743  1  0  0.144976  0  3.701812  0  0  0.108329  0  3.959847  0  0  0.11663  0  3.976375  0  0.452353  0  0.046622  0.102896  0  3.948762  0
C  C83  1  0.35586392  0.75960422  0.98828180  1  0  0.144169  0  3.700479  0  0  0.107587  0  3.959324  0  0  0.115887  0  3.975814  0  0.40084  0  0.045756  0.102149  0  3.948244  0
C  C84  1  0.97509124  0.33932831  0.48221373  1  0  -0.148996  0  3.671351  0  0  -0.165062  0  3.914832  0  0  -0.173743  0  3.93599  0  0.026406  0  -0.077284  -0.15949  0  3.900775  0
C  C85  1  0.79651440  0.16064151  0.01777702  1  0  -0.145334  0  3.664482  0  0  -0.162038  0  3.908188  0  0  -0.170686  0  3.929361  0  0.074881  0  -0.075299  -0.156487  0  3.894113  0
C  C86  1  0.02491183  0.66067286  0.51778614  1  0  -0.14901  0  3.671399  0  0  -0.165094  0  3.914834  0  0  -0.173782  0  3.935989  0  0.026402  0  -0.077279  -0.159521  0  3.900778  0
C  C87  1  0.20348428  0.83935902  0.98222327  1  0  -0.145351  0  3.66453  0  0  -0.162038  0  3.908216  0  0  -0.170685  0  3.92939  0  0.074837  0  -0.075297  -0.156487  0  3.894139  0
C  C88  1  0.82775211  0.39911616  0.52354765  1  0  0.147491  0  3.787987  0  0  0.162588  0  4.017313  0  0  0.168868  0  4.039496  0  -0.077239  0  0.013941  0.15856  0  4.002188  0
C  C89  1  0.75037727  0.10086434  0.97644404  1  0  0.145223  0  3.787725  0  0  0.160501  0  4.016921  0  0  0.166693  0  4.039258  0  -0.025636  0  0.013571  0.15655  0  4.001665  0
C  C90  1  0.17224868  0.60088438  0.47645269  1  0  0.147591  0  3.787947  0  0  0.162697  0  4.017224  0  0  0.16899  0  4.039393  0  -0.077074  0  0.014022  0.158668  0  4.0021  0
C  C91  1  0.24962380  0.89913557  0.02355634  1  0  0.145218  0  3.787781  0  0  0.160498  0  4.016979  0  0  0.166691  0  4.039312  0  -0.025625  0  0.013573  0.156549  0  4.001722  0
C  C92  1  0.60616320  0.37341118  0.56971553  1  0  -0.154711  0  3.685619  0  0  -0.173552  0  3.932274  0  0  -0.182405  0  3.954214  0  0.050063  0  -0.079235  -0.167813  0  3.917541  0
C  C93  1  0.54934001  0.12656429  0.93027926  1  0  -0.155171  0  3.687451  0  0  -0.173278  0  3.934039  0  0  -0.182102  0  3.955903  0  0.00023  0  -0.079015  -0.16758  0  3.919388  0
C  C94  1  0.39383758  0.62658936  0.43028480  1  0  -0.154697  0  3.685706  0  0  -0.173577  0  3.932368  0  0  -0.182428  0  3.954293  0  0.050056  0  -0.079246  -0.16784  0  3.917642  0
C  C95  1  0.45066232  0.87343499  0.06972020  1  0  -0.155202  0  3.687461  0  0  -0.173293  0  3.934067  0  0  -0.182115  0  3.955931  0  0.000225  0  -0.079052  -0.167594  0  3.919417  0
C  C96  1  0.53973368  0.29206115  0.57286453  1  0  0.133957  0  3.713472  0  0  0.102074  0  3.965545  0  0  0.109918  0  3.984051  0  0.439981  0  0.04687  0.097119  0  3.952879  0
C  C97  1  0.40465847  0.20790992  0.92714109  1  0  0.136428  0  3.709423  0  0  0.104624  0  3.961645  0  0  0.112502  0  3.980177  0  0.434999  0  0.047307  0.099614  0  3.948937  0
C  C98  1  0.46026577  0.70793875  0.42713531  1  0  0.13393  0  3.71352  0  0  0.102048  0  3.965595  0  0  0.109893  0  3.984103  0  0.439967  0  0.046845  0.097092  0  3.952929  0
C  C99  1  0.59534147  0.79208999  0.07285827  1  0  0.136454  0  3.709351  0  0  0.104636  0  3.96159  0  0  0.112508  0  3.980126  0  0.434823  0  0.04733  0.099625  0  3.948883  0
C  C100  1  0.89472795  0.48443885  0.52084989  1  0  -0.100097  0  3.690507  0  0  -0.120843  0  3.938287  0  0  -0.124664  0  3.959096  0  0.060532  0  -0.077052  -0.118121  0  3.923968  0
C  C101  1  0.90002375  0.01554666  0.97915620  1  0  -0.099994  0  3.688985  0  0  -0.120888  0  3.936894  0  0  -0.124725  0  3.95779  0  -0.000837  0  -0.077465  -0.118156  0  3.922502  0
C  C102  1  0.10527445  0.51556168  0.47915098  1  0  -0.10019  0  3.690493  0  0  -0.120917  0  3.938267  0  0  -0.124744  0  3.959075  0  -0.077016  0  -0.077096  -0.118194  0  3.923947  0
C  C103  1  0.09997858  0.98445262  0.02084326  1  0  -0.100007  0  3.688992  0  0  -0.120926  0  3.936912  0  0  -0.124762  0  3.957806  0  -0.093299  0  -0.07752  -0.118195  0  3.922521  0
N  N104  1  0.68234548  0.23594715  0.53267384  1  0  -0.352652  0  3.350943  0  0  -0.266939  0  3.635703  0  0  -0.287202  0  3.648838  0  -1.262765  0  -0.33966  -0.253384  0  3.626725  0
N  N105  1  0.45087514  0.26401325  0.96733917  1  0  -0.353376  0  3.348046  0  0  -0.267795  0  3.633085  0  0  -0.288054  0  3.646203  0  -1.266162  0  -0.339742  -0.254209  0  3.624092  0
N  N106  1  0.31765549  0.76405401  0.46732598  1  0  -0.352643  0  3.350905  0  0  -0.266929  0  3.635639  0  0  -0.287207  0  3.648789  0  -1.262739  0  -0.339657  -0.253366  0  3.626655  0
N  N107  1  0.54912432  0.73598665  0.03266068  1  0  -0.353348  0  3.347999  0  0  -0.267751  0  3.633032  0  0  -0.288007  0  3.64615  0  -1.266077  0  -0.33973  -0.254164  0  3.624038  0
O  O108  1  0.70665606  0.79245599  0.81665787  1  0  -0.553725  0  2.095608  0  0  -0.502145  0  2.307173  0  0  -0.525296  0  2.28932  0  -1.184546  0  -0.329737  -0.485981  0  2.316779  0
O  O109  1  0.31610517  0.70753445  0.68334362  1  0  -0.553782  0  2.094234  0  0  -0.502451  0  2.305655  0  0  -0.525537  0  2.287648  0  -1.184318  0  -0.330735  -0.486296  0  2.315359  0
O  O110  1  0.29334310  0.20754454  0.18334193  1  0  -0.553718  0  2.095612  0  0  -0.502124  0  2.307203  0  0  -0.525278  0  2.289357  0  -1.184557  0  -0.329773  -0.485958  0  2.316817  0
O  O111  1  0.68389591  0.29246545  0.31665676  1  0  -0.55378  0  2.094266  0  0  -0.502451  0  2.305659  0  0  -0.525537  0  2.287652  0  -1.184342  0  -0.330722  -0.486292  0  2.31538  0
O  O112  1  0.68373141  0.90697733  0.87351279  1  0  -0.557873  0  1.942473  0  0  -0.522035  0  2.158662  0  0  -0.542053  0  2.15166  0  -1.162184  0  -0.29039  -0.508254  0  2.163217  0
O  O113  1  0.46454510  0.59301562  0.62645552  1  0  -0.558176  0  1.942114  0  0  -0.521832  0  2.159087  0  0  -0.541868  0  2.152048  0  -1.163697  0  -0.290802  -0.508062  0  2.163654  0
O  O114  1  0.31626595  0.09302258  0.12648700  1  0  -0.557968  0  1.942311  0  0  -0.522112  0  2.158529  0  0  -0.542132  0  2.151522  0  -1.162182  0  -0.290445  -0.508325  0  2.163087  0
O  O115  1  0.53545465  0.40698366  0.37354437  1  0  -0.558181  0  1.94219  0  0  -0.521831  0  2.15915  0  0  -0.541868  0  2.152112  0  -1.16373  0  -0.290804  -0.508062  0  2.163716  0
O  O116  1  0.51666956  0.81416255  0.59482931  1  0  -0.622134  0  2.006279  0  0  -0.571936  0  2.235309  0  0  -0.596401  0  2.224625  0  -1.192738  0  -0.306798  -0.554841  0  2.241588  0
O  O117  1  0.92560625  0.68591829  0.90515724  1  0  -0.620949  0  2.005748  0  0  -0.570119  0  2.23422  0  0  -0.594596  0  2.223656  0  -1.188085  0  -0.306106  -0.553036  0  2.240413  0
O  O118  1  0.48333307  0.18583610  0.40517019  1  0  -0.622253  0  2.006144  0  0  -0.572062  0  2.235176  0  0  -0.596532  0  2.224502  0  -1.193136  0  -0.306836  -0.554973  0  2.241472  0
O  O119  1  0.07439214  0.31408287  0.09484300  1  0  -0.620991  0  2.005806  0  0  -0.57014  0  2.234287  0  0  -0.594617  0  2.223726  0  -1.18809  0  -0.306117  -0.553058  0  2.240483  0
O  O120  1  0.31086726  0.93506290  0.54596740  1  0  -0.616439  0  2.062182  0  0  -0.535042  0  2.325331  0  0  -0.563876  0  2.309873  0  -1.149711  0  -0.304002  -0.515101  0  2.335418  0
O  O121  1  0.79194209  0.56499660  0.95402070  1  0  -0.615694  0  2.062796  0  0  -0.534636  0  2.325763  0  0  -0.563441  0  2.31033  0  -1.147186  0  -0.304678  -0.514701  0  2.335791  0
O  O122  1  0.68913219  0.06493701  0.45403244  1  0  -0.61656  0  2.062131  0  0  -0.535163  0  2.325283  0  0  -0.563995  0  2.309822  0  -1.149749  0  -0.304048  -0.515219  0  2.33537  0
O  O123  1  0.20805898  0.43500331  0.04597968  1  0  -0.615774  0  2.062804  0  0  -0.534692  0  2.325782  0  0  -0.563508  0  2.310363  0  -1.147145  0  -0.304695  -0.514752  0  2.335802  0
O  O124  1  0.19449156  0.10944689  0.56725580  1  0  -0.633923  0  2.129498  0  0  -0.568644  0  2.424024  0  0  -0.597337  0  2.405727  0  -1.174992  0  -0.30759  -0.548412  0  2.435985  0
O  O125  1  0.87116175  0.39066920  0.93283980  1  0  -0.636318  0  2.128611  0  0  -0.569956  0  2.423865  0  0  -0.59851  0  2.405319  0  -1.178775  0  -0.308185  -0.549833  0  2.436001  0
O  O126  1  0.80550771  0.89055239  0.43274456  1  0  -0.633889  0  2.129484  0  0  -0.568643  0  2.423991  0  0  -0.597333  0  2.405698  0  -1.174931  0  -0.307581  -0.548411  0  2.435953  0
O  O127  1  0.12883771  0.60933070  0.06716005  1  0  -0.636319  0  2.128603  0  0  -0.569964  0  2.423854  0  0  -0.598516  0  2.405308  0  -1.178789  0  -0.308189  -0.549841  0  2.435993  0
O  O128  1  0.80433208  0.05037849  0.60957819  1  0  -0.611722  0  2.071257  0  0  -0.543927  0  2.342189  0  0  -0.574769  0  2.330694  0  -1.154136  0  -0.300807  -0.522277  0  2.349412  0
O  O129  1  0.46448731  0.44967357  0.89044485  1  0  -0.613077  0  2.068997  0  0  -0.544645  0  2.341273  0  0  -0.575532  0  2.32989  0  -1.129605  0  -0.301022  -0.522958  0  2.348362  0
O  O130  1  0.19566948  0.94962141  0.39042171  1  0  -0.611724  0  2.071236  0  0  -0.54395  0  2.34215  0  0  -0.574788  0  2.330655  0  -1.154131  0  -0.300839  -0.522301  0  2.349374  0
O  O131  1  0.53551138  0.55032697  0.10955543  1  0  -0.613051  0  2.069004  0  0  -0.544625  0  2.341265  0  0  -0.575518  0  2.3299  0  -1.129601  0  -0.301018  -0.522937  0  2.348357  0
O  O132  1  0.98116451  0.18647896  0.69027489  1  0  -0.558761  0  1.992384  0  0  -0.510272  0  2.204614  0  0  -0.532086  0  2.195624  0  -1.160422  0  -0.279605  -0.495426  0  2.210549  0
O  O133  1  0.85876690  0.31348082  0.80976358  1  0  -0.55893  0  1.988779  0  0  -0.50968  0  2.200946  0  0  -0.531483  0  2.191911  0  -1.160315  0  -0.278789  -0.494824  0  2.206891  0
O  O134  1  0.01883754  0.81352095  0.30972452  1  0  -0.55873  0  1.992411  0  0  -0.510234  0  2.204648  0  0  -0.532049  0  2.19566  0  -1.160406  0  -0.279588  -0.495389  0  2.210583  0
O  O135  1  0.14122997  0.68651909  0.19023669  1  0  -0.558956  0  1.988722  0  0  -0.509717  0  2.200875  0  0  -0.531519  0  2.19184  0  -1.160294  0  -0.278803  -0.494863  0  2.206822  0
O  O136  1  0.01882855  0.15250971  0.79756819  1  0  -0.539377  0  2.1004  0  0  -0.487622  0  2.312517  0  0  -0.510156  0  2.298584  0  -1.156366  0  -0.322848  -0.471942  0  2.321687  0
O  O137  1  0.96892311  0.34751158  0.70242907  1  0  -0.539944  0  2.099399  0  0  -0.48773  0  2.31184  0  0  -0.510277  0  2.297896  0  -1.155573  0  -0.323133  -0.472039  0  2.320995  0
O  O138  1  0.98117168  0.84748957  0.20243121  1  0  -0.539345  0  2.100456  0  0  -0.487586  0  2.312575  0  0  -0.510119  0  2.298642  0  -1.15615  0  -0.322818  -0.471905  0  2.321743  0
O  O139  1  0.03107796  0.65248832  0.29757131  1  0  -0.539966  0  2.099372  0  0  -0.487765  0  2.311788  0  0  -0.510313  0  2.297845  0  -1.155583  0  -0.323152  -0.472075  0  2.320945  0
