# generated using pymatgen
data_SnH16(C7O)2
_symmetry_space_group_name_H-M   'P 1'
_cell_length_a   9.93932325
_cell_length_b   9.97927132
_cell_length_c   13.86700000
_cell_angle_alpha   101.36652184
_cell_angle_beta   90.00000000
_cell_angle_gamma   90.00000000
_symmetry_Int_Tables_number   1
_chemical_formula_structural   SnH16(C7O)2
_chemical_formula_sum   'Sn4 H64 C56 O8'
_cell_volume   1348.45197341
_cell_formula_units_Z   4
loop_
 _symmetry_equiv_pos_site_id
 _symmetry_equiv_pos_as_xyz
  1  'x, y, z'
loop_
 _atom_site_type_symbol
 _atom_site_label
 _atom_site_symmetry_multiplicity
 _atom_site_fract_x
 _atom_site_fract_y
 _atom_site_fract_z
 _atom_site_occupancy
 _atom_site_hle17_bader_spin_density
 _atom_site_hle17_ddec_charge
 _atom_site_hle17_ddec_spin_density
 _atom_site_hle17_ddec_sum_bond_order
 _atom_site_hle17_magmom
 _atom_site_hse06_10hf_bader_spin_density
 _atom_site_hse06_10hf_ddec_charge
 _atom_site_hse06_10hf_ddec_spin_density
 _atom_site_hse06_10hf_ddec_sum_bond_order
 _atom_site_hse06_10hf_magmom
 _atom_site_hse06_bader_spin_density
 _atom_site_hse06_ddec_charge
 _atom_site_hse06_ddec_spin_density
 _atom_site_hse06_ddec_sum_bond_order
 _atom_site_hse06_magmom
 _atom_site_pbe_bader_charge
 _atom_site_pbe_bader_spin_density
 _atom_site_pbe_cm5_charge
 _atom_site_pbe_ddec_charge
 _atom_site_pbe_ddec_spin_density
 _atom_site_pbe_ddec_sum_bond_order
 _atom_site_pbe_magmom
Sn  Sn0  1  0.48424725  0.53662053  0.22130048  1  0  1.375241  0  2.910172  0  0  1.245736  0  3.400637  0  0  1.283674  0  3.385019  0  1.710844  0  0.519959  1.219865  0  3.41007  0
Sn  Sn1  1  0.98424910  0.46337713  0.27870063  1  0  1.37527  0  2.910105  0  0  1.245777  0  3.400564  0  0  1.283713  0  3.384944  0  1.711129  0  0.519961  1.219907  0  3.409996  0
Sn  Sn2  1  0.51575242  0.46337917  0.77870020  1  0  1.375239  0  2.910035  0  0  1.245761  0  3.40048  0  0  1.283696  0  3.384864  0  1.710982  0  0.519976  1.219891  0  3.409911  0
Sn  Sn3  1  0.01575560  0.53662462  0.72130323  1  0  1.375122  0  2.910194  0  0  1.245628  0  3.400649  0  0  1.283563  0  3.385034  0  1.710891  0  0.519921  1.219757  0  3.410081  0
H  H4  1  0.02032835  0.81218635  0.31135758  1  0  0.095099  0  0.970559  0  0  0.108271  0  1.030496  0  0  0.110623  0  1.029287  0  0.06549  0  0.103677  0.106614  0  1.031408  0
H  H5  1  0.52032416  0.18780927  0.18864035  1  0  0.095087  0  0.97065  0  0  0.10826  0  1.030581  0  0  0.110612  0  1.029374  0  0.065375  0  0.103671  0.106603  0  1.031495  0
H  H6  1  0.97967334  0.18781233  0.68864151  1  0  0.095071  0  0.970633  0  0  0.108246  0  1.030567  0  0  0.110598  0  1.029358  0  0.065405  0  0.10367  0.10659  0  1.031482  0
H  H7  1  0.47966948  0.81218737  0.81135629  1  0  0.095115  0  0.970545  0  0  0.108285  0  1.030493  0  0  0.110639  0  1.029282  0  0.065521  0  0.103678  0.106634  0  1.031391  0
H  H8  1  0.10386824  0.02739703  0.23865460  1  0  0.110891  0  0.992569  0  0  0.116302  0  1.061558  0  0  0.119116  0  1.062401  0  0.136949  0  0.097734  0.114322  0  1.060981  0
H  H9  1  0.60386707  0.97260268  0.26134680  1  0  0.110904  0  0.99257  0  0  0.116324  0  1.061538  0  0  0.11914  0  1.062379  0  0.136934  0  0.097745  0.114345  0  1.06096  0
H  H10  1  0.89613244  0.97260370  0.76134622  1  0  0.110907  0  0.992581  0  0  0.116332  0  1.06154  0  0  0.119149  0  1.062379  0  0.136941  0  0.097751  0.114352  0  1.060963  0
H  H11  1  0.39613059  0.02739703  0.73865244  1  0  0.110904  0  0.992553  0  0  0.116298  0  1.061553  0  0  0.119114  0  1.062395  0  0.136942  0  0.097754  0.114318  0  1.060977  0
H  H12  1  0.01537932  0.16641313  0.11360530  1  0  0.095635  0  0.93999  0  0  0.108044  0  0.998057  0  0  0.110721  0  0.996977  0  0.083855  0  0.109703  0.10646  0  0.998199  0
H  H13  1  0.51537915  0.83358658  0.38639754  1  0  0.09564  0  0.940004  0  0  0.108062  0  0.998038  0  0  0.110744  0  0.996959  0  0.083991  0  0.109714  0.106478  0  0.998182  0
H  H14  1  0.98462337  0.83358453  0.88639365  1  0  0.095667  0  0.939989  0  0  0.108049  0  0.998084  0  0  0.11073  0  0.997006  0  0.084454  0  0.10971  0.106468  0  0.998229  0
H  H15  1  0.48461951  0.16641518  0.61360198  1  0  0.095648  0  0.940003  0  0  0.108074  0  0.998032  0  0  0.110754  0  0.996954  0  0.083959  0  0.109726  0.106486  0  0.998177  0
H  H16  1  0.87168208  0.21708087  0.99047494  1  0  0.085225  0  0.954183  0  0  0.097984  0  1.012354  0  0  0.100937  0  1.011787  0  0.051134  0  0.101856  0.09585  0  1.012992  0
H  H17  1  0.37167923  0.78292088  0.50952675  1  0  0.085236  0  0.954262  0  0  0.098001  0  1.012421  0  0  0.100953  0  1.011856  0  0.05115  0  0.101882  0.095867  0  1.013057  0
H  H18  1  0.12832161  0.78291986  0.00952444  1  0  0.085128  0  0.954185  0  0  0.097874  0  1.012384  0  0  0.100826  0  1.011818  0  0.051159  0  0.101813  0.095738  0  1.013027  0
H  H19  1  0.62831642  0.21708291  0.49047162  1  0  0.085224  0  0.95422  0  0  0.097971  0  1.012409  0  0  0.100923  0  1.011844  0  0.051069  0  0.101864  0.095841  0  1.013034  0
H  H20  1  0.68327187  0.09632605  0.91984569  1  0  0.081311  0  0.957576  0  0  0.093399  0  1.01782  0  0  0.095912  0  1.017005  0  0.103257  0  0.10167  0.091425  0  1.018705  0
H  H21  1  0.18327002  0.90367366  0.58015571  1  0  0.081281  0  0.957613  0  0  0.093383  0  1.017838  0  0  0.095896  0  1.017023  0  0.103234  0  0.101672  0.091409  0  1.018721  0
H  H22  1  0.31672680  0.90367673  0.08015614  1  0  0.081314  0  0.957572  0  0  0.093394  0  1.017819  0  0  0.095909  0  1.017001  0  0.103271  0  0.101662  0.091419  0  1.018706  0
H  H23  1  0.81672663  0.09632911  0.41984108  1  0  0.081363  0  0.957547  0  0  0.093426  0  1.01779  0  0  0.095938  0  1.016979  0  0.103165  0  0.101687  0.091448  0  1.018683  0
H  H24  1  0.58436675  0.90072483  0.95650246  1  0  0.077321  0  0.979564  0  0  0.08579  0  1.048226  0  0  0.088171  0  1.048465  0  0.035813  0  0.095921  0.083693  0  1.048956  0
H  H25  1  0.08436389  0.09927488  0.54349822  1  0  0.077375  0  0.979557  0  0  0.085797  0  1.048263  0  0  0.088176  0  1.048504  0  0.035759  0  0.095931  0.083701  0  1.048992  0
H  H26  1  0.41563393  0.09927794  0.04349794  1  0  0.077397  0  0.979559  0  0  0.08584  0  1.048242  0  0  0.088223  0  1.04848  0  0.035813  0  0.095934  0.083744  0  1.048971  0
H  H27  1  0.91563276  0.90072688  0.45649986  1  0  0.077262  0  0.979586  0  0  0.085724  0  1.048272  0  0  0.088108  0  1.048499  0  0.035862  0  0.095897  0.083628  0  1.049  0
H  H28  1  0.64135453  0.77978500  0.07978438  1  0  0.098706  0  0.964819  0  0  0.10859  0  1.024371  0  0  0.112453  0  1.021057  0  0.112205  0  0.106862  0.105836  0  1.026653  0
H  H29  1  0.14135168  0.22021164  0.42021443  1  0  0.098731  0  0.964859  0  0  0.1086  0  1.024419  0  0  0.112463  0  1.021108  0  0.112227  0  0.106861  0.105845  0  1.0267  0
H  H30  1  0.35864816  0.22021266  0.92021241  1  0  0.098733  0  0.96481  0  0  0.108614  0  1.024363  0  0  0.112479  0  1.021048  0  0.112184  0  0.106845  0.105853  0  1.026643  0
H  H31  1  0.85864598  0.77979113  0.57978453  1  0  0.098711  0  0.964889  0  0  0.108592  0  1.024436  0  0  0.112457  0  1.021122  0  0.112281  0  0.106862  0.105833  0  1.026716  0
H  H32  1  0.41830011  0.56034916  0.41394118  1  0  0.147584  0  0.998627  0  0  0.165555  0  1.056796  0  0  0.167914  0  1.057928  0  0.02786  0  0.08201  0.163553  0  1.056554  0
H  H33  1  0.91829894  0.43964748  0.08605979  1  0  0.147635  0  0.99863  0  0  0.165632  0  1.05675  0  0  0.167991  0  1.057883  0  0.027852  0  0.082035  0.163627  0  1.056512  0
H  H34  1  0.58169755  0.43964544  0.58605661  1  0  0.147619  0  0.998657  0  0  0.165616  0  1.056782  0  0  0.167972  0  1.057915  0  0.027876  0  0.082045  0.163612  0  1.056541  0
H  H35  1  0.08169973  0.56035120  0.91394507  1  0  0.147611  0  0.99868  0  0  0.165609  0  1.056802  0  0  0.167967  0  1.057935  0  0.027817  0  0.082043  0.163606  0  1.056561  0
H  H36  1  0.59604159  0.59025652  0.40286529  1  0  0.16183  0  0.986925  0  0  0.178471  0  1.043563  0  0  0.181893  0  1.043044  0  0.044609  0  0.086023  0.175833  0  1.044243  0
H  H37  1  0.09604074  0.40973909  0.09713481  1  0  0.161894  0  0.98701  0  0  0.178525  0  1.043658  0  0  0.181948  0  1.043139  0  0.044611  0  0.086039  0.175887  0  1.044338  0
H  H38  1  0.40395607  0.40973909  0.59713626  1  0  0.161866  0  0.987047  0  0  0.178509  0  1.043682  0  0  0.181932  0  1.043163  0  0.044589  0  0.086043  0.175871  0  1.044362  0
H  H39  1  0.90395792  0.59025857  0.90286630  1  0  0.161867  0  0.987057  0  0  0.178514  0  1.043682  0  0  0.181937  0  1.043163  0  0.044626  0  0.086043  0.175876  0  1.044362  0
H  H40  1  0.53065082  0.41969561  0.37933227  1  0  0.150401  0  1.001471  0  0  0.167913  0  1.060136  0  0  0.170173  0  1.061954  0  0.036159  0  0.082475  0.16613  0  1.059248  0
H  H41  1  0.03065098  0.58030103  0.12066870  1  0  0.150421  0  1.001393  0  0  0.167921  0  1.060071  0  0  0.17018  0  1.06189  0  0.036219  0  0.082469  0.166138  0  1.059184  0
H  H42  1  0.46934684  0.58030103  0.62066726  1  0  0.150359  0  1.001422  0  0  0.16786  0  1.060109  0  0  0.17012  0  1.061928  0  0.036212  0  0.082445  0.166078  0  1.059221  0
H  H43  1  0.96934769  0.41969663  0.87933169  1  0  0.150405  0  1.001463  0  0  0.167906  0  1.060141  0  0  0.170166  0  1.061959  0  0.036169  0  0.08248  0.166124  0  1.059253  0
H  H44  1  0.29518509  0.62570176  0.10774971  1  0  0.148448  0  0.998005  0  0  0.168319  0  1.053104  0  0  0.170654  0  1.054092  0  0.055185  0  0.082776  0.166552  0  1.052396  0
H  H45  1  0.79518492  0.37429488  0.39225054  1  0  0.14846  0  0.998001  0  0  0.168324  0  1.053107  0  0  0.170658  0  1.054096  0  0.055033  0  0.082776  0.166556  0  1.0524  0
H  H46  1  0.70481358  0.37429692  0.89225155  1  0  0.148448  0  0.997975  0  0  0.168304  0  1.0531  0  0  0.170638  0  1.054089  0  0.05516  0  0.082765  0.166536  0  1.052393  0
H  H47  1  0.20481374  0.62570176  0.60774899  1  0  0.148471  0  0.998055  0  0  0.168335  0  1.053164  0  0  0.17067  0  1.054151  0  0.055152  0  0.082781  0.166567  0  1.052456  0
H  H48  1  0.38580796  0.76950447  0.17649316  1  0  0.15004  0  1.008019  0  0  0.166323  0  1.06955  0  0  0.168989  0  1.070159  0  0.050249  0  0.081147  0.164347  0  1.069199  0
H  H49  1  0.88580880  0.23049421  0.32350666  1  0  0.150059  0  1.007948  0  0  0.166343  0  1.069476  0  0  0.169009  0  1.070085  0  0.050221  0  0.081176  0.164367  0  1.069125  0
H  H50  1  0.61418870  0.23049523  0.82350752  1  0  0.150028  0  1.008005  0  0  0.166325  0  1.069505  0  0  0.168989  0  1.070121  0  0.050218  0  0.081165  0.16435  0  1.069154  0
H  H51  1  0.11419188  0.76950652  0.67649201  1  0  0.150113  0  1.007932  0  0  0.1664  0  1.069445  0  0  0.169065  0  1.070054  0  0.050207  0  0.081195  0.164424  0  1.069094  0
H  H52  1  0.25495398  0.68975729  0.23357735  1  0  0.141747  0  1.016419  0  0  0.159915  0  1.077403  0  0  0.161826  0  1.079522  0  0.026359  0  0.080307  0.15865  0  1.075633  0
H  H53  1  0.75495381  0.31023935  0.26642146  1  0  0.141819  0  1.016349  0  0  0.15999  0  1.077324  0  0  0.161903  0  1.079441  0  0.026262  0  0.080333  0.158726  0  1.075554  0
H  H54  1  0.74504570  0.31023935  0.76642362  1  0  0.141733  0  1.016411  0  0  0.1599  0  1.077404  0  0  0.161812  0  1.079521  0  0.026302  0  0.080286  0.158635  0  1.075634  0
H  H55  1  0.24504787  0.68976138  0.73357648  1  0  0.14177  0  1.016359  0  0  0.159955  0  1.077327  0  0  0.161866  0  1.079446  0  0.026359  0  0.080312  0.15869  0  1.075557  0
H  H56  1  0.63663791  0.47153266  0.05742998  1  0  0.154308  0  0.985954  0  0  0.175751  0  1.03637  0  0  0.178465  0  1.036882  0  0.029101  0  0.087293  0.173721  0  1.036314  0
H  H57  1  0.13664109  0.52846398  0.44257170  1  0  0.154403  0  0.985993  0  0  0.175876  0  1.03636  0  0  0.178591  0  1.036871  0  0.029039  0  0.087367  0.173847  0  1.036305  0
H  H58  1  0.36335774  0.52846807  0.94257084  1  0  0.154418  0  0.985861  0  0  0.175842  0  1.036289  0  0  0.178557  0  1.036799  0  0.029031  0  0.087334  0.173813  0  1.036233  0
H  H59  1  0.86336462  0.47153266  0.55743070  1  0  0.154311  0  0.985926  0  0  0.175724  0  1.036378  0  0  0.178439  0  1.03689  0  0.028708  0  0.087275  0.173695  0  1.036322  0
H  H60  1  0.51277032  0.34067720  0.05606622  1  0  0.152289  0  0.991684  0  0  0.172444  0  1.04743  0  0  0.174826  0  1.048155  0  0.032223  0  0.085039  0.170664  0  1.047189  0
H  H61  1  0.01277351  0.65931842  0.44393244  1  0  0.152335  0  0.991676  0  0  0.172466  0  1.04746  0  0  0.17484  0  1.048196  0  0.032261  0  0.085046  0.170692  0  1.047211  0
H  H62  1  0.48722432  0.65932455  0.94393258  1  0  0.152337  0  0.991692  0  0  0.172503  0  1.047413  0  0  0.174878  0  1.048146  0  0.032649  0  0.08507  0.170722  0  1.047173  0
H  H63  1  0.98723220  0.34068027  0.55607098  1  0  0.152332  0  0.991665  0  0  0.172457  0  1.047448  0  0  0.174844  0  1.048167  0  0.032272  0  0.085048  0.170679  0  1.047205  0
H  H64  1  0.66253807  0.34248227  0.12797220  1  0  0.139811  0  1.027061  0  0  0.156441  0  1.091203  0  0  0.158517  0  1.093033  0  0.036986  0  0.080062  0.155382  0  1.089247  0
H  H65  1  0.16254125  0.65751334  0.37202718  1  0  0.139822  0  1.027062  0  0  0.156459  0  1.091199  0  0  0.158535  0  1.093029  0  0.037346  0  0.080059  0.155399  0  1.089243  0
H  H66  1  0.33745960  0.65751437  0.87202372  1  0  0.139815  0  1.027084  0  0  0.156443  0  1.091231  0  0  0.15852  0  1.093061  0  0.037321  0  0.08005  0.155384  0  1.089275  0
H  H67  1  0.83746346  0.34248432  0.62797609  1  0  0.139802  0  1.027058  0  0  0.156435  0  1.091193  0  0  0.158512  0  1.093023  0  0.037509  0  0.080048  0.155376  0  1.089238  0
C  C68  1  0.84414701  0.80813465  0.21210910  1  0  -0.196257  0  3.792581  0  0  -0.182866  0  4.041885  0  0  -0.198689  0  4.069719  0  -0.010768  0  -0.047204  -0.172302  0  4.02245  0
C  C69  1  0.34414516  0.19186199  0.28789114  1  0  -0.196252  0  3.792558  0  0  -0.182832  0  4.041792  0  0  -0.198655  0  4.069626  0  -0.010807  0  -0.047197  -0.172271  0  4.02236  0
C  C70  1  0.15585568  0.19186199  0.78788970  1  0  -0.196125  0  3.792604  0  0  -0.18271  0  4.041844  0  0  -0.19853  0  4.069677  0  -0.010891  0  -0.04714  -0.172147  0  4.022411  0
C  C71  1  0.65585451  0.80813772  0.71210809  1  0  -0.196302  0  3.79256  0  0  -0.182809  0  4.041733  0  0  -0.198633  0  4.069567  0  -0.010783  0  -0.047188  -0.172251  0  4.022302  0
C  C72  1  0.96902875  0.85574317  0.25549156  1  0  -0.056991  0  3.731033  0  0  -0.079387  0  3.982176  0  0  -0.076815  0  4.004752  0  -0.061727  0  -0.083155  -0.081145  0  3.966873  0
C  C73  1  0.46902690  0.14425449  0.24450739  1  0  -0.056985  0  3.731094  0  0  -0.079383  0  3.982216  0  0  -0.076818  0  4.004799  0  -0.061573  0  -0.083156  -0.081143  0  3.966917  0
C  C74  1  0.03097293  0.14425551  0.74450681  1  0  -0.057  0  3.731088  0  0  -0.07941  0  3.982233  0  0  -0.076841  0  4.004812  0  -0.061623  0  -0.083195  -0.081172  0  3.966936  0
C  C75  1  0.53096975  0.85574419  0.75548954  1  0  -0.057015  0  3.731115  0  0  -0.07944  0  3.982232  0  0  -0.076866  0  4.004796  0  -0.061708  0  -0.083177  -0.081196  0  3.966934  0
C  C76  1  0.01366894  0.96759222  0.21749778  1  0  -0.182179  0  3.734536  0  0  -0.203637  0  3.992604  0  0  -0.212492  0  4.017444  0  -0.097532  0  -0.116192  -0.198011  0  3.976602  0
C  C77  1  0.51367079  0.03240646  0.28250420  1  0  -0.182241  0  3.734418  0  0  -0.203677  0  3.992514  0  0  -0.212529  0  4.017351  0  -0.097499  0  -0.116187  -0.198053  0  3.976513  0
C  C78  1  0.98633073  0.03240544  0.78250117  1  0  -0.182197  0  3.734474  0  0  -0.203659  0  3.992556  0  0  -0.212513  0  4.017393  0  -0.09751  0  -0.116172  -0.198034  0  3.976556  0
C  C79  1  0.48632889  0.96759018  0.71749460  1  0  -0.182244  0  3.734653  0  0  -0.203667  0  3.992764  0  0  -0.21252  0  4.017601  0  -0.097498  0  -0.116223  -0.198043  0  3.976763  0
C  C80  1  0.92856926  0.09900095  0.09477905  1  0  -0.042513  0  3.69839  0  0  -0.057978  0  3.940645  0  0  -0.055755  0  3.958741  0  -0.042352  0  -0.054709  -0.059369  0  3.928938  0
C  C81  1  0.42856942  0.90099978  0.40522177  1  0  -0.042561  0  3.698298  0  0  -0.057984  0  3.94055  0  0  -0.055767  0  3.958651  0  -0.042443  0  -0.0547  -0.059377  0  3.928845  0
C  C82  1  0.07143243  0.90099672  0.90521918  1  0  -0.04257  0  3.69833  0  0  -0.058012  0  3.940592  0  0  -0.055795  0  3.958697  0  -0.043282  0  -0.054717  -0.059407  0  3.928892  0
C  C83  1  0.57142925  0.09900401  0.59477660  1  0  -0.042475  0  3.698123  0  0  -0.057918  0  3.940384  0  0  -0.055697  0  3.958482  0  -0.042863  0  -0.054641  -0.059306  0  3.928676  0
C  C84  1  0.84362887  0.12879486  0.02165202  1  0  -0.077498  0  3.768135  0  0  -0.093433  0  4.022976  0  0  -0.097626  0  4.044386  0  0.035155  0  -0.08467  -0.091384  0  4.008912  0
C  C85  1  0.34362601  0.87120485  0.47835010  1  0  -0.077522  0  3.768176  0  0  -0.09347  0  4.023013  0  0  -0.097664  0  4.044426  0  0.035143  0  -0.084714  -0.091422  0  4.008952  0
C  C86  1  0.15637483  0.87120383  0.97834635  1  0  -0.077394  0  3.768092  0  0  -0.093313  0  4.022908  0  0  -0.097506  0  4.044324  0  0.035185  0  -0.084665  -0.091266  0  4.008846  0
C  C87  1  0.65636964  0.12879588  0.52165000  1  0  -0.077494  0  3.768191  0  0  -0.093423  0  4.023014  0  0  -0.097617  0  4.044426  0  0.03527  0  -0.084702  -0.091372  0  4.008951  0
C  C88  1  0.73067248  0.05655620  0.97950692  1  0  -0.01921  0  3.732097  0  0  -0.031926  0  3.980465  0  0  -0.029712  0  3.999616  0  -0.058187  0  -0.068301  -0.032936  0  3.967069  0
C  C89  1  0.23067063  0.94344453  0.52049390  1  0  -0.01919  0  3.732232  0  0  -0.031913  0  3.980588  0  0  -0.029699  0  3.999741  0  -0.058227  0  -0.0683  -0.032921  0  3.967192  0
C  C90  1  0.26932920  0.94344453  0.02049246  1  0  -0.019209  0  3.732155  0  0  -0.031909  0  3.980492  0  0  -0.029695  0  3.999644  0  -0.058223  0  -0.068276  -0.032919  0  3.967096  0
C  C91  1  0.76932602  0.05655927  0.47950303  1  0  -0.01931  0  3.732067  0  0  -0.031997  0  3.980421  0  0  -0.029782  0  3.999571  0  -0.058249  0  -0.068306  -0.033008  0  3.967026  0
C  C92  1  0.67111712  0.93966676  0.00158571  1  0  -0.079987  0  3.764585  0  0  -0.09597  0  4.020853  0  0  -0.100308  0  4.042459  0  -0.05631  0  -0.090199  -0.092456  0  4.005612  0
C  C93  1  0.17111326  0.06033091  0.49841468  1  0  -0.079977  0  3.764584  0  0  -0.095925  0  4.020851  0  0  -0.10026  0  4.042456  0  -0.056344  0  -0.090178  -0.092411  0  4.00561  0
C  C94  1  0.32888557  0.06033193  0.99841339  1  0  -0.080125  0  3.764715  0  0  -0.096098  0  4.020987  0  0  -0.100438  0  4.042595  0  -0.056318  0  -0.090258  -0.092584  0  4.005744  0
C  C95  1  0.82888138  0.93966982  0.50158326  1  0  -0.079841  0  3.764612  0  0  -0.095826  0  4.020863  0  0  -0.10016  0  4.042469  0  -0.056355  0  -0.090171  -0.092312  0  4.005617  0
C  C96  1  0.70572109  0.86635793  0.07402525  1  0  -0.045281  0  3.704101  0  0  -0.063045  0  3.949982  0  0  -0.060266  0  3.965419  0  -0.054968  0  -0.061479  -0.064349  0  3.937954  0
C  C97  1  0.20571924  0.13363871  0.42597427  1  0  -0.045443  0  3.704117  0  0  -0.063179  0  3.94998  0  0  -0.060402  0  3.965418  0  -0.054926  0  -0.061547  -0.06448  0  3.93795  0
C  C98  1  0.29428261  0.13363871  0.92597139  1  0  -0.045274  0  3.704114  0  0  -0.063024  0  3.949956  0  0  -0.060248  0  3.965397  0  -0.05509  0  -0.061436  -0.064317  0  3.937918  0
C  C99  1  0.79427943  0.86636305  0.57402381  1  0  -0.045457  0  3.704224  0  0  -0.063206  0  3.950107  0  0  -0.06043  0  3.965548  0  -0.054669  0  -0.061528  -0.064501  0  3.938071  0
C  C100  1  0.91939459  0.99313001  0.14684852  1  0  0.057651  0  3.767343  0  0  0.073622  0  3.995911  0  0  0.073618  0  4.020724  0  -0.080919  0  -0.005888  0.072133  0  3.980899  0
C  C101  1  0.41939475  0.00686766  0.35315332  1  0  0.057815  0  3.767056  0  0  0.073674  0  3.995774  0  0  0.073672  0  4.020585  0  -0.080944  0  -0.005883  0.072189  0  3.980759  0
C  C102  1  0.08060710  0.00686766  0.85315043  1  0  0.057748  0  3.767187  0  0  0.073693  0  3.995785  0  0  0.07369  0  4.020599  0  -0.080586  0  -0.005865  0.072206  0  3.980772  0
C  C103  1  0.58060291  0.99313001  0.64684707  1  0  0.057694  0  3.76703  0  0  0.073577  0  3.995736  0  0  0.073573  0  4.020548  0  -0.080641  0  -0.00595  0.072091  0  3.980721  0
C  C104  1  0.81174943  0.88884365  0.14103499  1  0  0.048689  0  3.733467  0  0  0.057799  0  3.961986  0  0  0.059293  0  3.986474  0  -0.002121  0  -0.001336  0.058234  0  3.944234  0
C  C105  1  0.31174859  0.11115503  0.35896627  1  0  0.048718  0  3.733352  0  0  0.057842  0  3.961879  0  0  0.059334  0  3.986368  0  -0.002124  0  -0.001306  0.058275  0  3.944128  0
C  C106  1  0.18825225  0.11115401  0.85896324  1  0  0.048585  0  3.733636  0  0  0.057707  0  3.962134  0  0  0.059199  0  3.986622  0  -0.001897  0  -0.001343  0.058141  0  3.944379  0
C  C107  1  0.68824907  0.88884672  0.64103398  1  0  0.048822  0  3.733353  0  0  0.057918  0  3.961881  0  0  0.059409  0  3.986371  0  -0.002359  0  -0.001268  0.058351  0  3.944128  0
C  C108  1  0.76042803  0.70205140  0.24119107  1  0  0.664405  0  3.909555  0  0  0.612633  0  4.201412  0  0  0.648951  0  4.192163  0  1.498675  0  0.221229  0.58827  0  4.206518  0
C  C109  1  0.26042316  0.29794421  0.25881119  1  0  0.664342  0  3.909592  0  0  0.612613  0  4.201404  0  0  0.648932  0  4.19216  0  1.498614  0  0.221238  0.588251  0  4.206511  0
C  C110  1  0.23957768  0.29794421  0.75881119  1  0  0.664292  0  3.909605  0  0  0.612562  0  4.201432  0  0  0.648878  0  4.192192  0  1.498662  0  0.221239  0.588198  0  4.20654  0
C  C111  1  0.73957349  0.70205651  0.74119036  1  0  0.664363  0  3.90953  0  0  0.612601  0  4.20137  0  0  0.648918  0  4.192128  0  1.498931  0  0.221245  0.588239  0  4.206475  0
C  C112  1  0.51061726  0.52570731  0.37337421  1  0  -0.712331  0  3.526305  0  0  -0.751805  0  3.756629  0  0  -0.765519  0  3.76315  0  -0.415473  0  -0.334015  -0.742413  0  3.752845  0
C  C113  1  0.01061742  0.47428933  0.12662676  1  0  -0.712493  0  3.526375  0  0  -0.751968  0  3.75671  0  0  -0.765683  0  3.76323  0  -0.415502  0  -0.334054  -0.742572  0  3.75293  0
C  C114  1  0.48938141  0.47428831  0.62662517  1  0  -0.712347  0  3.526413  0  0  -0.751831  0  3.756733  0  0  -0.765543  0  3.763259  0  -0.415519  0  -0.334022  -0.742439  0  3.752949  0
C  C115  1  0.98938326  0.52571038  0.87337680  1  0  -0.712377  0  3.526474  0  0  -0.751858  0  3.756774  0  0  -0.765572  0  3.763297  0  -0.41542  0  -0.334057  -0.742465  0  3.75299  0
C  C116  1  0.33679758  0.67223603  0.17972935  1  0  -0.708917  0  3.515412  0  0  -0.749285  0  3.744133  0  0  -0.763065  0  3.751488  0  -0.460515  0  -0.339107  -0.738946  0  3.738066  0
C  C117  1  0.83679741  0.32776266  0.32027046  1  0  -0.709019  0  3.515245  0  0  -0.749381  0  3.743973  0  0  -0.763161  0  3.751329  0  -0.460273  0  -0.339158  -0.739042  0  3.737907  0
C  C118  1  0.66320109  0.32776266  0.82027118  1  0  -0.708912  0  3.515319  0  0  -0.749275  0  3.744036  0  0  -0.763057  0  3.75139  0  -0.460403  0  -0.339106  -0.738937  0  3.737971  0
C  C119  1  0.16320326  0.67223909  0.67972835  1  0  -0.709011  0  3.515364  0  0  -0.749391  0  3.744073  0  0  -0.763175  0  3.751426  0  -0.460456  0  -0.339152  -0.739055  0  3.738009  0
C  C120  1  0.58665262  0.40622299  0.10150091  1  0  -0.718632  0  3.525361  0  0  -0.758784  0  3.753853  0  0  -0.772323  0  3.760406  0  -0.432508  0  -0.336615  -0.749945  0  3.749196  0
C  C121  1  0.08665781  0.59377161  0.39849904  1  0  -0.718784  0  3.525454  0  0  -0.758942  0  3.753887  0  0  -0.772476  0  3.76045  0  -0.432917  0  -0.336689  -0.75011  0  3.749223  0
C  C122  1  0.41334303  0.59377468  0.89849804  1  0  -0.718811  0  3.525355  0  0  -0.758939  0  3.753803  0  0  -0.772473  0  3.760362  0  -0.433278  0  -0.336682  -0.750101  0  3.749149  0
C  C123  1  0.91334790  0.40622707  0.60150510  1  0  -0.718632  0  3.525315  0  0  -0.758729  0  3.7538  0  0  -0.772276  0  3.760349  0  -0.432648  0  -0.336602  -0.749892  0  3.74914  0
O  O124  1  0.63437116  0.70245821  0.21832312  1  0  -0.642556  0  2.082145  0  0  -0.569466  0  2.327735  0  0  -0.59633  0  2.31999  0  -1.188605  0  -0.286323  -0.551105  0  2.33155  0
O  O125  1  0.13436830  0.29753434  0.28167654  1  0  -0.642485  0  2.082191  0  0  -0.569431  0  2.327757  0  0  -0.596283  0  2.319989  0  -1.188724  0  -0.286316  -0.551069  0  2.331571  0
O  O126  1  0.36563254  0.29753536  0.78167453  1  0  -0.642447  0  2.082258  0  0  -0.569412  0  2.327832  0  0  -0.59627  0  2.320083  0  -1.188773  0  -0.286325  -0.551046  0  2.331643  0
O  O127  1  0.86563036  0.70246332  0.71832457  1  0  -0.642473  0  2.082053  0  0  -0.569424  0  2.327655  0  0  -0.59628  0  2.319898  0  -1.188701  0  -0.286341  -0.55106  0  2.331465  0
O  O128  1  0.80849468  0.61754929  0.29025465  1  0  -0.654298  0  2.045474  0  0  -0.581744  0  2.284732  0  0  -0.607851  0  2.276946  0  -1.210318  0  -0.296561  -0.563198  0  2.289144  0
O  O129  1  0.30849082  0.38245348  0.20975079  1  0  -0.654278  0  2.045417  0  0  -0.581756  0  2.284677  0  0  -0.607862  0  2.276895  0  -1.209933  0  -0.296576  -0.563208  0  2.289091  0
O  O130  1  0.19150801  0.38245450  0.70975021  1  0  -0.654288  0  2.045356  0  0  -0.581751  0  2.284588  0  0  -0.607855  0  2.276805  0  -1.210044  0  -0.296586  -0.563203  0  2.289004  0
O  O131  1  0.69150583  0.61755032  0.79025263  1  0  -0.654288  0  2.045424  0  0  -0.581784  0  2.284717  0  0  -0.607891  0  2.276936  0  -1.210311  0  -0.296571  -0.563238  0  2.289131  0
