# generated using pymatgen
data_CuH11C11NO5
_symmetry_space_group_name_H-M   'P 1'
_cell_length_a   7.70517682
_cell_length_b   11.44898343
_cell_length_c   14.54787413
_cell_angle_alpha   89.99935299
_cell_angle_beta   90.00058292
_cell_angle_gamma   107.86680356
_symmetry_Int_Tables_number   1
_chemical_formula_structural   CuH11C11NO5
_chemical_formula_sum   'Cu4 H44 C44 N4 O20'
_cell_volume   1221.46813711
_cell_formula_units_Z   4
loop_
 _symmetry_equiv_pos_site_id
 _symmetry_equiv_pos_as_xyz
  1  'x, y, z'
loop_
 _atom_site_type_symbol
 _atom_site_label
 _atom_site_symmetry_multiplicity
 _atom_site_fract_x
 _atom_site_fract_y
 _atom_site_fract_z
 _atom_site_occupancy
 _atom_site_hle17_ddec_charge
 _atom_site_hle17_ddec_spin_density
 _atom_site_hle17_ddec_sum_bond_order
 _atom_site_hle17_magmom
 _atom_site_hse06_10hf_bader_charge
 _atom_site_hse06_10hf_bader_spin_density
 _atom_site_hse06_10hf_ddec_charge
 _atom_site_hse06_10hf_ddec_spin_density
 _atom_site_hse06_10hf_ddec_sum_bond_order
 _atom_site_hse06_10hf_magmom
 _atom_site_hse06_ddec_charge
 _atom_site_hse06_ddec_spin_density
 _atom_site_hse06_ddec_sum_bond_order
 _atom_site_hse06_magmom
 _atom_site_pbe_cm5_charge
 _atom_site_pbe_ddec_charge
 _atom_site_pbe_ddec_spin_density
 _atom_site_pbe_ddec_sum_bond_order
 _atom_site_pbe_magmom
Cu  Cu0  1  0.42480517  0.08616990  0.99745097  1  0.893963  0.68625  1.852369  0.495  1.154566  0.641434  0.890989  0.801467  2.255265  0.637  0.988493  0.887881  2.176968  0.733  0.683062  0.825268  0.704977  2.315266  0.548
Cu  Cu1  1  0.57519118  0.41383609  0.49745109  1  0.893976  0.686211  1.852263  0.495  1.153976  0.641402  0.890999  0.801429  2.255154  0.637  0.988948  0.887854  2.176494  0.733  0.683042  0.825255  0.704984  2.315266  0.548
Cu  Cu2  1  0.57519640  0.91383608  0.00254288  1  0.894058  -0.686256  1.852364  -0.495  1.154116  -0.641433  0.891097  -0.801461  2.255256  -0.637  0.988502  -0.887883  2.177104  -0.733  0.683046  0.825314  -0.704979  2.315355  -0.548
Cu  Cu3  1  0.42481039  0.58616712  0.50254276  1  0.894039  -0.686203  1.852219  -0.495  1.154411  -0.641405  0.891078  -0.801432  2.255079  -0.637  0.988322  -0.887851  2.177135  -0.733  0.682988  0.825243  -0.704945  2.315229  -0.548
H  H4  1  0.05806698  0.08552759  0.84659357  1  0.118238  -0.000169  0.966209  0.0  0.151212  -0.000239  0.123935  -0.000135  1.032579  0.0  0.127695  -0.000101  1.030013  0.0  0.107485  0.121328  -0.000149  1.03438  0.0
H  H5  1  0.94194583  0.41447541  0.34658949  1  0.118211  -0.000168  0.966121  0.0  0.151194  -0.000239  0.123848  -0.000135  1.032581  0.0  0.127624  -0.000101  1.029992  0.0  0.107511  0.121244  -0.000149  1.034384  0.0
H  H6  1  0.94195444  0.91447365  0.15340234  1  0.118188  0.000162  0.966086  0.0  0.151127  0.000239  0.123894  0.000135  1.032474  0.0  0.127656  0.000101  1.029905  0.0  0.107507  0.121281  0.000149  1.034284  0.0
H  H7  1  0.05806351  0.58552775  0.65340780  1  0.118194  0.00017  0.966152  0.0  0.151264  0.000239  0.123858  0.000135  1.032581  0.0  0.127628  0.000101  1.030001  0.0  0.107458  0.121252  0.00015  1.034376  0.0
H  H8  1  0.29272490  0.20309849  0.73544205  1  0.098418  0.000254  0.953911  0.0  0.087875  0.000313  0.108506  0.000215  1.01639  0.0  0.111215  0.000136  1.015078  0.0  0.104782  0.106621  0.000268  1.017415  0.0
H  H9  1  0.70729412  0.29691401  0.23543980  1  0.098422  0.000256  0.954013  0.0  0.087929  0.000313  0.108485  0.000215  1.016504  0.0  0.111187  0.000136  1.015197  0.0  0.104737  0.1066  0.000268  1.017529  0.0
H  H10  1  0.70730082  0.79691469  0.26455386  1  0.098524  -0.00025  0.953957  0.0  0.088019  -0.000313  0.108547  -0.000215  1.016492  0.0  0.11125  -0.000136  1.015192  0.0  0.104784  0.106663  -0.000268  1.017512  0.0
H  H11  1  0.29271780  0.70310018  0.76455680  1  0.098433  -0.000253  0.953962  0.0  0.087688  -0.000312  0.108435  -0.000215  1.016537  0.0  0.111134  -0.000136  1.01524  0.0  0.104753  0.10655  -0.000267  1.017554  0.0
H  H12  1  0.91615709  0.38243154  0.63160990  1  0.123493  -0.000179  0.963158  0.0  0.130436  -0.000234  0.128983  -0.00014  1.028366  0.0  0.132944  -0.000105  1.025086  0.0  0.109467  0.126228  -0.000155  1.030728  0.0
H  H13  1  0.08383807  0.11756481  0.13161206  1  0.123484  -0.000176  0.963104  0.0  0.130056  -0.000234  0.128989  -0.00014  1.028295  0.0  0.132935  -0.000105  1.025039  0.0  0.109478  0.126229  -0.000155  1.030666  0.0
H  H14  1  0.08385439  0.61757621  0.36839632  1  0.123547  0.000177  0.963069  0.0  0.130477  0.000234  0.129043  0.00014  1.028232  0.0  0.132996  0.000105  1.024963  0.0  0.109468  0.126276  0.000156  1.030611  0.0
H  H15  1  0.91614928  0.88243021  0.86838041  1  0.123379  0.000176  0.963156  0.0  0.129864  0.000234  0.128924  0.00014  1.028304  0.0  0.132871  0.000105  1.025046  0.0  0.109438  0.126162  0.000155  1.030684  0.0
H  H16  1  0.68279120  0.26705119  0.74302812  1  0.102407  0.000257  0.939419  0.0  0.081853  0.000313  0.113405  0.000208  0.997964  0.0  0.116436  0.00013  0.996099  0.0  0.105677  0.111242  0.000261  0.99946  0.0
H  H17  1  0.31720810  0.23293834  0.24303671  1  0.102359  0.000256  0.93946  0.0  0.081854  0.000313  0.11337  0.000208  0.997993  0.0  0.116408  0.00013  0.996116  0.0  0.105646  0.111206  0.000261  0.999487  0.0
H  H18  1  0.31721857  0.73295012  0.25697260  1  0.102452  -0.000256  0.939401  0.0  0.081685  -0.000313  0.113454  -0.000208  0.997942  0.0  0.116482  -0.00013  0.99608  0.0  0.105687  0.111291  -0.000261  0.999434  0.0
H  H19  1  0.68278184  0.76704838  0.75696402  1  0.102431  -0.000255  0.939418  0.0  0.081826  -0.000313  0.113434  -0.000208  0.997971  0.0  0.116466  -0.00013  0.996104  0.0  0.105635  0.111271  -0.000261  0.999466  0.0
H  H20  1  0.51684884  0.33056300  0.89686224  1  0.03849  -1.7e-05  0.944686  0.0  0.111262  -3.2e-05  0.047243  -1.1e-05  1.016742  0.0  0.050777  -2.9e-05  1.009525  0.0  0.117634  0.044507  1.2e-05  1.02204  0.0
H  H21  1  0.48311939  0.16942866  0.39685785  1  0.038328  -1.2e-05  0.944646  0.0  0.110926  -3.2e-05  0.047184  -1e-05  1.016628  0.0  0.050729  -2.9e-05  1.009394  0.0  0.1176  0.044433  1.2e-05  1.021935  0.0
H  H22  1  0.48312817  0.66941827  0.10314055  1  0.038332  1.8e-05  0.944723  0.0  0.111088  3.2e-05  0.047108  1e-05  1.016775  0.0  0.050638  2.9e-05  1.009562  0.0  0.117637  0.044376  -1.1e-05  1.022079  0.0
H  H23  1  0.51687400  0.83056816  0.60313944  1  0.038321  1.9e-05  0.944701  0.0  0.111002  3.2e-05  0.047158  1e-05  1.016704  0.0  0.050695  2.9e-05  1.009482  0.0  0.117598  0.044414  -1.1e-05  1.022007  0.0
H  H24  1  0.55355952  0.49849813  0.82583472  1  0.100635  -8e-06  0.9375  0.0  0.078362  -2.1e-05  0.12141  -8e-06  0.999985  0.0  0.122157  -7e-06  0.999884  0.0  0.107451  0.120737  -8e-06  1.000207  0.0
H  H25  1  0.44643359  0.00149971  0.32583094  1  0.100602  -9e-06  0.937389  0.0  0.078271  -2.1e-05  0.121384  -8e-06  0.999883  0.0  0.12213  -7e-06  0.999782  0.0  0.107467  0.120714  -8e-06  1.0001  0.0
H  H26  1  0.44644251  0.50148391  0.17417425  1  0.100616  1.1e-05  0.937399  0.0  0.078401  2.1e-05  0.121365  8e-06  0.999949  0.0  0.122116  7e-06  0.999839  0.0  0.107439  0.120692  9e-06  1.00017  0.0
H  H27  1  0.55355635  0.99849253  0.67417116  1  0.100639  8e-06  0.937472  0.0  0.078282  2.1e-05  0.121411  8e-06  0.999959  0.0  0.122155  7e-06  0.99986  0.0  0.107461  0.12074  9e-06  1.00018  0.0
H  H28  1  0.46474432  0.61000694  0.87720437  1  0.111112  -2.9e-05  0.944079  0.0  0.108959  -2.8e-05  0.1284  -2.9e-05  1.011491  0.0  0.12978  -1.1e-05  1.010813  0.0  0.104819  0.127343  -4.4e-05  1.012014  0.0
H  H29  1  0.53525173  0.88999390  0.37720724  1  0.111071  -2.9e-05  0.944142  0.0  0.10892  -2.8e-05  0.128365  -2.9e-05  1.011553  0.0  0.129739  -1.1e-05  1.010879  0.0  0.104835  0.127304  -4.4e-05  1.012079  0.0
H  H30  1  0.53526676  0.38998332  0.12279772  1  0.111151  3.7e-05  0.94402  0.0  0.108887  2.8e-05  0.128467  2.9e-05  1.011376  0.0  0.129818  1.1e-05  1.010729  0.0  0.10487  0.127402  4.5e-05  1.011913  0.0
H  H31  1  0.46474597  0.11000105  0.62279554  1  0.111204  2.9e-05  0.944079  0.0  0.109012  2.8e-05  0.128481  2.9e-05  1.011489  0.0  0.129858  1.1e-05  1.010803  0.0  0.104857  0.127426  4.5e-05  1.01201  0.0
H  H32  1  0.34231265  0.51404629  0.78634652  1  0.099726  3.1e-05  0.942607  0.0  0.064667  2.4e-05  0.119797  1.5e-05  1.006273  0.0  0.120503  2e-05  1.006872  0.0  0.101353  0.119208  9e-06  1.005955  0.0
H  H33  1  0.65768903  0.98595923  0.28635263  1  0.099764  3e-05  0.942549  0.0  0.064742  2.4e-05  0.119831  1.5e-05  1.006218  0.0  0.120535  2e-05  1.006818  0.0  0.101358  0.119243  9e-06  1.005903  0.0
H  H34  1  0.65770187  0.48594855  0.21365283  1  0.099704  -2.8e-05  0.942611  0.0  0.064639  -2.4e-05  0.119754  -1.5e-05  1.006293  0.0  0.120466  -2e-05  1.006877  0.0  0.101342  0.119169  -8e-06  1.005974  0.0
H  H35  1  0.34230953  0.01403756  0.71365153  1  0.099769  -3.3e-05  0.942491  0.0  0.064666  -2.4e-05  0.11981  -1.5e-05  1.00619  0.0  0.120512  -2e-05  1.006792  0.0  0.101351  0.119222  -8e-06  1.005874  0.0
H  H36  1  0.11551135  0.36434013  0.00524276  1  0.116517  1e-06  0.940708  0.0  0.11696  -1.7e-05  0.134124  1e-06  1.003044  0.0  0.13582  2e-06  1.002306  0.0  0.11177  0.132776  0.0  1.003708  0.0
H  H37  1  0.88447298  0.13566601  0.50524949  1  0.116496  3e-06  0.940715  0.0  0.116816  -1.7e-05  0.134122  1e-06  1.003031  0.0  0.135829  2e-06  1.002274  0.0  0.111748  0.132776  0.0  1.003694  0.0
H  H38  1  0.88449023  0.63565204  0.99476071  1  0.116486  -6e-06  0.940788  0.0  0.117129  1.7e-05  0.134145  -1e-06  1.003064  0.0  0.13584  -2e-06  1.002328  0.0  0.111823  0.1328  0.0  1.003728  0.0
H  H39  1  0.11551092  0.86432719  0.49476085  1  0.116475  -1e-06  0.940703  0.0  0.116955  1.7e-05  0.134081  -1e-06  1.00305  0.0  0.135775  -2e-06  1.002314  0.0  0.111746  0.132735  1e-06  1.003707  0.0
H  H40  1  0.06188872  0.42756169  0.90007892  1  0.09462  -9e-06  0.933291  0.0  0.056968  -6e-06  0.117064  -5e-06  0.994314  0.0  0.117173  -4e-06  0.995702  0.0  0.103734  0.116927  -5e-06  0.993387  0.0
H  H41  1  0.93809723  0.07244547  0.40008610  1  0.094516  -5e-06  0.933458  0.0  0.057896  -6e-06  0.11692  -5e-06  0.994482  0.0  0.117022  -4e-06  0.995881  0.0  0.103666  0.116787  -5e-06  0.993554  0.0
H  H42  1  0.93810123  0.57243055  0.09992937  1  0.094592  5e-06  0.933296  0.0  0.056884  6e-06  0.117028  5e-06  0.99436  0.0  0.117138  4e-06  0.995748  0.0  0.103738  0.116894  5e-06  0.993435  0.0
H  H43  1  0.06189185  0.92754769  0.59992631  1  0.094589  8e-06  0.933255  0.0  0.056865  6e-06  0.116988  5e-06  0.994323  0.0  0.117088  4e-06  0.995724  0.0  0.103725  0.116854  5e-06  0.993399  0.0
H  H44  1  0.19212466  0.52766860  0.98652169  1  0.095929  -1e-06  0.931436  0.0  0.060752  -4e-06  0.119993  -2e-06  0.988817  0.0  0.120621  2e-06  0.988449  0.0  0.10528  0.119445  -7e-06  0.989155  0.0
H  H45  1  0.80786600  0.97233840  0.48652943  1  0.095917  0.0  0.931517  0.0  0.060656  -4e-06  0.119979  -2e-06  0.988895  0.0  0.120605  2e-06  0.988526  0.0  0.105291  0.119429  -7e-06  0.989236  0.0
H  H46  1  0.80786572  0.47232180  0.01348522  1  0.095818  -2e-06  0.931426  0.0  0.060699  4e-06  0.119852  2e-06  0.98888  0.0  0.120477  -2e-06  0.98851  0.0  0.105234  0.119305  7e-06  0.989215  0.0
H  H47  1  0.19212006  0.02765663  0.51347954  1  0.095928  1e-06  0.931434  0.0  0.060915  4e-06  0.12001  2e-06  0.988805  0.0  0.12064  -2e-06  0.988431  0.0  0.105288  0.119461  7e-06  0.989148  0.0
C  C48  1  0.85543338  0.16850775  0.80118804  1  -0.055923  -0.001208  3.757263  -0.001  -0.061499  -0.00051  -0.034447  -0.00036  3.986363  0.0  -0.043341  -0.000199  4.008961  0.0  -0.014235  -0.028021  -0.000431  3.97118  0.0
C  C49  1  0.14456845  0.33149307  0.30118863  1  -0.055887  -0.00123  3.756952  -0.001  -0.061349  -0.000508  -0.034403  -0.000358  3.986026  0.0  -0.043265  -0.000199  4.00858  0.0  -0.014265  -0.027973  -0.00043  3.970834  0.0
C  C50  1  0.14458631  0.83149810  0.19880993  1  -0.056069  0.001169  3.757324  0.001  -0.061568  0.000509  -0.034555  0.000359  3.986423  0.0  -0.043448  0.000199  4.009023  0.0  -0.014225  -0.028121  0.000428  3.971235  0.0
C  C51  1  0.85543054  0.66850464  0.69880797  1  -0.056147  0.001245  3.757115  0.001  -0.061401  0.000508  -0.034585  0.000359  3.986201  0.0  -0.043452  0.000199  4.008748  0.0  -0.014226  -0.028155  0.00043  3.971013  0.0
C  C52  1  0.02661555  0.14924893  0.79870511  1  -0.06926  -0.000577  3.708072  0.0  -0.0612  0.000186  -0.094815  7.4e-05  3.960566  0.0  -0.095617  6e-05  3.981117  0.0  -0.08307  -0.094359  7.2e-05  3.946878  0.0
C  C53  1  0.97338711  0.35075375  0.29869901  1  -0.069297  -0.000564  3.708087  0.0  -0.061159  0.000187  -0.094818  7.4e-05  3.960602  0.0  -0.095619  6.1e-05  3.981124  0.0  -0.083213  -0.094369  7.3e-05  3.946911  0.0
C  C54  1  0.97340716  0.85075782  0.20129493  1  -0.069054  0.000647  3.707818  0.0  -0.061184  -0.000187  -0.09462  -7.4e-05  3.960259  0.0  -0.09542  -6.1e-05  3.980804  0.0  -0.083039  -0.094177  -7e-05  3.946592  0.0
C  C55  1  0.02661964  0.64925219  0.70129759  1  -0.069194  0.00054  3.708043  0.0  -0.061156  -0.000187  -0.094735  -7.4e-05  3.960519  0.0  -0.095529  -6.1e-05  3.98104  0.0  -0.0831  -0.094278  -7.2e-05  3.946818  0.0
C  C56  1  0.15791215  0.21514010  0.73688514  1  -0.077914  0.000377  3.735383  0.0  -0.030656  -0.000417  -0.102803  -0.0002  3.988336  0.0  -0.104039  -0.000154  4.00989  0.0  -0.086799  -0.102168  -0.000214  3.974001  0.0
C  C57  1  0.84209180  0.28486511  0.23687961  1  -0.077881  0.000356  3.735649  0.0  -0.031  -0.000416  -0.102716  -0.0002  3.988535  0.0  -0.103958  -0.000155  4.010122  0.0  -0.086726  -0.102089  -0.000214  3.974222  0.0
C  C58  1  0.84210494  0.78487405  0.26311558  1  -0.078125  -0.000436  3.73538  0.0  -0.030617  0.000417  -0.102937  0.0002  3.988324  0.0  -0.104186  0.000154  4.009903  0.0  -0.086854  -0.102309  0.000213  3.974001  0.0
C  C59  1  0.15791279  0.71514728  0.76311768  1  -0.077851  -0.000348  3.735575  0.0  -0.030821  0.000416  -0.102654  0.000199  3.988486  0.0  -0.103902  0.000154  4.010079  0.0  -0.08674  -0.102026  0.000212  3.974169  0.0
C  C60  1  0.11920893  0.29998343  0.67721065  1  -0.053444  -0.001088  3.75294  -0.001  -0.064365  -0.000607  -0.031522  -0.000422  3.983382  0.0  -0.039842  -0.000306  4.005199  0.0  -0.013932  -0.025392  -0.000492  3.968673  0.0
C  C61  1  0.88078599  0.20002437  0.17720814  1  -0.053589  -0.001058  3.753249  -0.001  -0.06436  -0.000606  -0.031736  -0.000422  3.983682  0.0  -0.04008  -0.000304  4.005539  0.0  -0.01399  -0.025608  -0.000491  3.968982  0.0
C  C62  1  0.88081031  0.70003255  0.32279214  1  -0.053385  0.001117  3.752765  0.001  -0.064222  0.000607  -0.031587  0.000422  3.983249  0.0  -0.039902  0.000305  4.005059  0.0  -0.014083  -0.025459  0.000494  3.968534  0.0
C  C63  1  0.11920221  0.79998353  0.82278846  1  -0.053564  0.001047  3.753218  0.001  -0.064255  0.000606  -0.031654  0.000422  3.983621  0.0  -0.039997  0.000305  4.005479  0.0  -0.013953  -0.025529  0.000493  3.968925  0.0
C  C64  1  0.94730513  0.31807429  0.67889622  1  -0.067446  -0.000244  3.709511  0.0  -0.002409  0.000391  -0.094924  0.000218  3.966085  0.0  -0.095077  0.000202  3.984826  0.0  -0.081315  -0.095007  0.000209  3.953678  0.001
C  C65  1  0.05268120  0.18192065  0.17889557  1  -0.067262  -0.000278  3.709357  0.0  -0.001728  0.000392  -0.094743  0.000219  3.965917  0.0  -0.094906  0.0002  3.984693  0.0  -0.081263  -0.094828  0.000209  3.953508  0.001
C  C66  1  0.05271196  0.68193710  0.32110863  1  -0.06775  0.000226  3.709557  0.0  -0.002715  -0.000391  -0.095141  -0.000218  3.966072  0.0  -0.095294  -0.000201  3.984815  0.0  -0.081359  -0.095217  -0.000211  3.953655  -0.001
C  C67  1  0.94730356  0.81807438  0.82109965  1  -0.067343  0.000295  3.709574  0.0  -0.001806  -0.000392  -0.094856  -0.000219  3.966175  0.0  -0.095016  -0.0002  3.984945  0.0  -0.081305  -0.094944  -0.000211  3.953774  -0.001
C  C68  1  0.81627183  0.25279996  0.74103307  1  -0.072951  -8.6e-05  3.730652  0.0  -0.017185  -0.000714  -0.097361  -0.000396  3.984103  -0.001  -0.098046  -0.000335  4.004429  -0.001  -0.083815  -0.097056  -0.000419  3.970634  -0.001
C  C69  1  0.18372313  0.24719423  0.24103324  1  -0.072967  -5.6e-05  3.730507  0.0  -0.017315  -0.000715  -0.097385  -0.000396  3.983937  -0.001  -0.098067  -0.000335  4.004243  -0.001  -0.083767  -0.097081  -0.000419  3.97046  -0.001
C  C70  1  0.18374656  0.74720867  0.25897041  1  -0.072746  0.000107  3.73059  0.0  -0.01687  0.000714  -0.097206  0.000396  3.984019  0.001  -0.097894  0.000335  4.004351  0.001  -0.083737  -0.096901  0.000421  3.970542  0.001
C  C71  1  0.81626681  0.75279801  0.75896336  1  -0.072878  3.8e-05  3.730523  0.0  -0.017127  0.000714  -0.09734  0.000396  3.984013  0.001  -0.098024  0.000334  4.004333  0.001  -0.083788  -0.097032  0.000419  3.97054  0.001
C  C72  1  0.71773448  0.10192764  0.87050118  1  0.637156  0.000843  3.877869  0.001  1.579268  0.000429  0.59929  0.000274  4.173909  0.001  0.64115  0.000301  4.165596  0.001  0.213951  0.570726  0.000224  4.17852  0.001
C  C73  1  0.28227780  0.39807325  0.37050674  1  0.636984  0.000854  3.877882  0.001  1.578073  0.000429  0.599116  0.000273  4.173943  0.001  0.64102  0.0003  4.165643  0.001  0.213976  0.570552  0.000225  4.178531  0.001
C  C74  1  0.28228220  0.89807179  0.12949541  1  0.636964  -0.000843  3.878093  -0.001  1.577854  -0.000429  0.599057  -0.000272  4.174199  -0.001  0.640916  -0.000301  4.165897  -0.001  0.213911  0.570491  -0.000224  4.178803  -0.001
C  C75  1  0.71773111  0.60192347  0.62948780  1  0.637234  -0.000847  3.877768  -0.001  1.578587  -0.000431  0.599251  -0.000273  4.17398  -0.001  0.641156  -0.000302  4.165679  -0.001  0.214017  0.570689  -0.000222  4.17857  -0.001
C  C76  1  0.26212738  0.37317149  0.61265764  1  0.636515  6.7e-05  3.874235  0.0  1.584926  -8.4e-05  0.598543  -0.000125  4.172756  0.0  0.640062  -9.5e-05  4.164712  0.0  0.214164  0.57026  -0.000137  4.17725  0.0
C  C77  1  0.73787483  0.12684344  0.11265569  1  0.63636  5.6e-05  3.874318  0.0  1.584477  -8.4e-05  0.598526  -0.000126  4.17263  0.0  0.639996  -9.6e-05  4.164578  0.0  0.214127  0.570245  -0.00014  4.177146  0.0
C  C78  1  0.73787591  0.62684091  0.38734171  1  0.636447  -5.8e-05  3.874014  0.0  1.584617  8.4e-05  0.598558  0.000125  4.172428  0.0  0.640075  9.4e-05  4.164376  0.0  0.214228  0.57028  0.000141  4.176921  0.0
C  C79  1  0.26211164  0.87317184  0.88733747  1  0.636927  -6.4e-05  3.874574  0.0  1.585332  8.3e-05  0.598982  0.000123  4.173004  0.0  0.640456  9.2e-05  4.164946  0.0  0.21441  0.5707  0.000137  4.177519  0.0
C  C80  1  0.39081372  0.32951014  0.93358411  1  0.384185  -0.000216  3.830836  0.0  1.412391  -0.000233  0.313487  -0.000214  4.120855  0.0  0.342111  -0.000183  4.120547  0.0  0.168613  0.294475  -0.000224  4.120083  0.0
C  C81  1  0.60915846  0.17049121  0.43358933  1  0.384514  -0.000233  3.831235  0.0  1.412826  -0.000233  0.313747  -0.000214  4.121257  0.0  0.342421  -0.000183  4.120965  0.0  0.168699  0.29475  -0.000225  4.120465  0.0
C  C82  1  0.60916458  0.67047666  0.06641524  1  0.384459  0.000212  3.831051  0.0  1.412528  0.000234  0.313642  0.000214  4.121086  0.0  0.342266  0.000181  4.120771  0.0  0.168704  0.294625  0.000224  4.120313  0.0
C  C83  1  0.39083622  0.82950836  0.56640865  1  0.384573  0.000209  3.83125  0.0  1.412814  0.000233  0.313795  0.000213  4.121336  0.0  0.34242  0.000183  4.12101  0.0  0.168743  0.294784  0.000224  4.120535  0.0
C  C84  1  0.42839122  0.51748587  0.84727866  1  -0.180699  -2.9e-05  3.661536  0.0  0.239322  -3.8e-05  -0.283387  -3.2e-05  3.914265  0.0  -0.280234  -1e-05  3.924763  0.0  -0.133813  -0.28523  -5.5e-05  3.907104  0.0
C  C85  1  0.57160355  0.98251624  0.34727953  1  -0.180659  -2.5e-05  3.661493  0.0  0.239402  -3.8e-05  -0.283363  -3.2e-05  3.914263  0.0  -0.280198  -1e-05  3.92476  0.0  -0.133892  -0.285207  -5.5e-05  3.907093  0.0
C  C86  1  0.57161167  0.48250352  0.15272412  1  -0.180654  6e-06  3.661476  0.0  0.239249  3.8e-05  -0.283409  3.2e-05  3.914181  0.0  -0.280228  1e-05  3.92468  0.0  -0.133877  -0.285251  5.2e-05  3.907019  0.0
C  C87  1  0.42839243  0.01748056  0.65272257  1  -0.180838  3.3e-05  3.661521  0.0  0.23936  3.9e-05  -0.283493  3.3e-05  3.9143  0.0  -0.280321  1e-05  3.924795  0.0  -0.133893  -0.285336  5.2e-05  3.907144  0.0
C  C88  1  0.16554830  0.43712877  0.95403893  1  -0.169044  2.2e-05  3.658263  0.0  0.238771  -8e-06  -0.266869  -5e-06  3.897295  0.0  -0.263495  -4e-06  3.907067  0.0  -0.131452  -0.268894  -7e-06  3.890658  0.0
C  C89  1  0.83442976  0.06287599  0.45404495  1  -0.168942  1.2e-05  3.658611  0.0  0.23807  -9e-06  -0.26673  -6e-06  3.897656  0.0  -0.263343  -4e-06  3.90741  0.0  -0.131426  -0.268764  -6e-06  3.891018  0.0
C  C90  1  0.83444250  0.56286530  0.04596661  1  -0.16881  -5e-06  3.658494  0.0  0.238748  9e-06  -0.266757  6e-06  3.897513  0.0  -0.263379  4e-06  3.907289  0.0  -0.13148  -0.268788  5e-06  3.890876  0.0
C  C91  1  0.16555370  0.93711906  0.54596265  1  -0.169068  -2.1e-05  3.658377  0.0  0.238582  8e-06  -0.26685  5e-06  3.897442  0.0  -0.263471  4e-06  3.907219  0.0  -0.131536  -0.26888  5e-06  3.890808  0.0
N  N92  1  0.33295219  0.42606487  0.91431060  1  -0.098268  -5.8e-05  3.517881  0.0  -1.260688  -0.000148  0.006809  -7.6e-05  3.750643  0.0  -0.013477  -6.2e-05  3.776877  0.0  -0.287257  0.020419  -8.5e-05  3.732424  0.0
N  N93  1  0.66702835  0.07393572  0.41431081  1  -0.0984  -5.4e-05  3.517815  0.0  -1.260774  -0.000148  0.006635  -7.6e-05  3.750641  0.0  -0.013643  -6.2e-05  3.776835  0.0  -0.287219  0.02025  -8.3e-05  3.732413  0.0
N  N94  1  0.66703775  0.57392737  0.08569287  1  -0.098403  6.6e-05  3.518125  0.0  -1.260817  0.000147  0.006921  7.5e-05  3.750606  0.0  -0.013363  6.4e-05  3.776835  0.0  -0.287173  0.020534  8.5e-05  3.732387  0.0
N  N95  1  0.33295728  0.92605839  0.58569404  1  -0.098357  6.5e-05  3.517764  0.0  -1.260664  0.000147  0.006671  7.6e-05  3.750586  0.0  -0.01362  6.3e-05  3.77682  0.0  -0.287191  0.020278  8.4e-05  3.732367  0.0
O  O96  1  0.59867219  0.15274512  0.89451239  1  -0.593096  0.071211  2.115117  0.094  -1.151499  0.076271  -0.568021  0.049156  2.390456  0.071  -0.611314  0.039156  2.381773  0.06  -0.31337  -0.538506  0.052167  2.39597  0.073
O  O97  1  0.40133871  0.34724906  0.39451354  1  -0.59291  0.071222  2.115151  0.094  -1.150614  0.076295  -0.56786  0.049173  2.390544  0.071  -0.611333  0.039171  2.381951  0.06  -0.313286  -0.538319  0.052174  2.396022  0.073
O  O98  1  0.40133888  0.84725343  0.10548077  1  -0.592901  -0.07123  2.115165  -0.094  -1.150641  -0.076292  -0.567826  -0.049171  2.39051  -0.071  -0.6111  -0.039166  2.381849  -0.06  -0.313303  -0.538303  -0.052181  2.396033  -0.073
O  O99  1  0.59866848  0.65274675  0.60548100  1  -0.593079  -0.071223  2.115035  -0.094  -1.150996  -0.076288  -0.567942  -0.049169  2.390381  -0.071  -0.611198  -0.039167  2.381752  -0.06  -0.313386  -0.538408  -0.052178  2.395889  -0.073
O  O100  1  0.73184391  0.00073871  0.90078651  1  -0.553509  -0.080313  2.092203  -0.106  -1.135456  -0.083231  -0.526543  -0.05345  2.361516  -0.078  -0.569416  -0.042397  2.35258  -0.065  -0.301309  -0.497625  -0.056498  2.367428  -0.079
O  O101  1  0.26815714  0.49926191  0.40078696  1  -0.553509  -0.0803  2.092273  -0.106  -1.135112  -0.083218  -0.526544  -0.053442  2.361574  -0.078  -0.569393  -0.042395  2.352678  -0.065  -0.301335  -0.497619  -0.056489  2.367465  -0.079
O  O102  1  0.26817750  0.99926253  0.09921009  1  -0.553416  0.080306  2.092217  0.106  -1.135091  0.083222  -0.526431  0.053445  2.361536  0.078  -0.569327  0.042395  2.352607  0.065  -0.301314  -0.497518  0.056496  2.367428  0.079
O  O103  1  0.73185048  0.50073482  0.59920758  1  -0.553491  0.080303  2.092236  0.106  -1.13535  0.083226  -0.526529  0.053446  2.361619  0.078  -0.569606  0.042397  2.352766  0.065  -0.301288  -0.497617  0.056481  2.367528  0.079
O  O104  1  0.25077852  0.47826261  0.58986962  1  -0.563918  -0.079541  2.091766  -0.105  -1.138422  -0.08228  -0.539857  -0.052908  2.365743  -0.077  -0.582899  -0.042068  2.357248  -0.065  -0.305559  -0.510765  -0.055768  2.37128  -0.078
O  O105  1  0.74920914  0.02175267  0.08986523  1  -0.563834  -0.079522  2.091779  -0.105  -1.138262  -0.082261  -0.539808  -0.052895  2.365698  -0.077  -0.582881  -0.042055  2.357186  -0.064  -0.305456  -0.510713  -0.055755  2.371243  -0.078
O  O106  1  0.74922305  0.52174889  0.41013111  1  -0.56391  0.079533  2.091691  0.105  -1.138267  0.082274  -0.539832  0.052903  2.365608  0.077  -0.583105  0.042063  2.357161  0.065  -0.305544  -0.510744  0.055753  2.371142  0.078
O  O107  1  0.25075534  0.97825446  0.91013618  1  -0.5641  0.079537  2.091752  0.105  -1.138466  0.082272  -0.540017  0.052902  2.365696  0.077  -0.583112  0.042061  2.357175  0.065  -0.305707  -0.510916  0.055769  2.371187  0.078
O  O108  1  0.38299433  0.32511192  0.58658289  1  -0.57964  0.075132  2.075048  0.099  -1.148314  0.079109  -0.557676  0.05086  2.34651  0.074  -0.600265  0.040461  2.33812  0.062  -0.314039  -0.529005  0.05368  2.352097  0.075
O  O109  1  0.61700709  0.17489963  0.08657643  1  -0.579578  0.075155  2.075109  0.099  -1.148065  0.07912  -0.557682  0.050869  2.346554  0.074  -0.600093  0.040467  2.338093  0.062  -0.314099  -0.529007  0.053698  2.352129  0.075
O  O110  1  0.61700206  0.67489685  0.41341096  1  -0.579587  -0.075135  2.075031  -0.099  -1.148075  -0.079112  -0.557669  -0.050863  2.346468  -0.074  -0.600035  -0.040463  2.338048  -0.062  -0.314045  -0.528984  -0.053695  2.352038  -0.075
O  O111  1  0.38299403  0.82513028  0.91341261  1  -0.579836  -0.075131  2.075582  -0.099  -1.148638  -0.079098  -0.55791  -0.050854  2.347066  -0.074  -0.6003  -0.040454  2.33861  -0.062  -0.314128  -0.529229  -0.053689  2.352652  -0.075
O  O112  1  0.31313091  0.24450732  0.98743956  1  -0.516311  -0.001117  2.051132  -0.001  -1.186565  -0.00164  -0.473777  -0.000788  2.305363  0.0  -0.499901  -0.000842  2.29576  0.0  -0.309234  -0.45547  -0.000691  2.311555  0.0
O  O113  1  0.68682262  0.25548249  0.48744032  1  -0.516352  -0.001112  2.051916  -0.001  -1.186626  -0.00164  -0.473782  -0.000787  2.306119  0.0  -0.500063  -0.000842  2.296597  0.0  -0.309254  -0.455472  -0.000694  2.312312  0.0
O  O114  1  0.68683920  0.75547860  0.01256253  1  -0.516442  0.001114  2.051372  0.001  -1.186252  0.001639  -0.473875  0.000787  2.3056  0.0  -0.499981  0.000842  2.296002  0.0  -0.309369  -0.455556  0.000688  2.311795  0.0
O  O115  1  0.31317550  0.74452166  0.51255490  1  -0.516393  0.001114  2.052039  0.001  -1.186593  0.00164  -0.473795  0.000788  2.306231  0.0  -0.499865  0.000842  2.296631  0.0  -0.309272  -0.455476  0.000687  2.312416  0.0
