# generated using pymatgen
data_GaP2H11C12(NO4)2
_symmetry_space_group_name_H-M   'P 1'
_cell_length_a   6.44996490
_cell_length_b   13.83048885
_cell_length_c   18.02018294
_cell_angle_alpha   78.05905603
_cell_angle_beta   79.70096491
_cell_angle_gamma   76.49570318
_symmetry_Int_Tables_number   1
_chemical_formula_structural   GaP2H11C12(NO4)2
_chemical_formula_sum   'Ga4 P8 H44 C48 N8 O32'
_cell_volume   1514.79465769
_cell_formula_units_Z   4
loop_
 _symmetry_equiv_pos_site_id
 _symmetry_equiv_pos_as_xyz
  1  'x, y, z'
loop_
 _atom_site_type_symbol
 _atom_site_label
 _atom_site_symmetry_multiplicity
 _atom_site_fract_x
 _atom_site_fract_y
 _atom_site_fract_z
 _atom_site_occupancy
 _atom_site_hle17_bader_spin_density
 _atom_site_hle17_ddec_charge
 _atom_site_hle17_ddec_spin_density
 _atom_site_hle17_ddec_sum_bond_order
 _atom_site_hle17_magmom
 _atom_site_hse06_10hf_bader_spin_density
 _atom_site_hse06_10hf_ddec_charge
 _atom_site_hse06_10hf_ddec_spin_density
 _atom_site_hse06_10hf_ddec_sum_bond_order
 _atom_site_hse06_10hf_magmom
 _atom_site_hse06_bader_spin_density
 _atom_site_hse06_ddec_charge
 _atom_site_hse06_ddec_spin_density
 _atom_site_hse06_ddec_sum_bond_order
 _atom_site_hse06_magmom
 _atom_site_pbe_bader_spin_density
 _atom_site_pbe_cm5_charge
 _atom_site_pbe_ddec_charge
 _atom_site_pbe_ddec_spin_density
 _atom_site_pbe_ddec_sum_bond_order
 _atom_site_pbe_magmom
Ga  Ga0  1  0.94326707  0.87987616  0.78741092  1  0  1.59952  0  2.349861  0  0  1.422741  0  2.782281  0  0  1.475735  0  2.735814  0  0  0.618543  1.385979  0  2.813712  0
Ga  Ga1  1  0.61071336  0.62010609  0.71253730  1  0  1.599432  0  2.349421  0  0  1.423029  0  2.781452  0  0  1.475966  0  2.735026  0  0  0.619217  1.38634  0  2.812885  0
Ga  Ga2  1  0.05673676  0.12012218  0.21258719  1  0  1.599482  0  2.349949  0  0  1.422708  0  2.782363  0  0  1.475706  0  2.735898  0  0  0.618563  1.385947  0  2.813819  0
Ga  Ga3  1  0.38928718  0.37988986  0.28746553  1  0  1.599439  0  2.349357  0  0  1.423015  0  2.78139  0  0  1.475954  0  2.734959  0  0  0.619247  1.38632  0  2.81283  0
P  P4  1  0.46034969  0.82274596  0.80097838  1  0  1.830971  0  4.802611  0  0  1.63482  0  5.343783  0  0  1.695983  0  5.281808  0  0  0.458058  1.591994  0  5.386331  0
P  P5  1  0.08412593  0.67729543  0.69893839  1  0  1.833846  0  4.802691  0  0  1.638127  0  5.343409  0  0  1.69931  0  5.281399  0  0  0.459075  1.59536  0  5.385924  0
P  P6  1  0.53965341  0.17725456  0.19902246  1  0  1.830849  0  4.802723  0  0  1.634711  0  5.343881  0  0  1.695869  0  5.281903  0  0  0.458021  1.591913  0  5.386375  0
P  P7  1  0.91587629  0.32270286  0.30106140  1  0  1.833667  0  4.802925  0  0  1.637909  0  5.343682  0  0  1.699107  0  5.281663  0  0  0.458986  1.595142  0  5.386198  0
P  P8  1  0.85908814  0.99261985  0.61914815  1  0  1.768936  0  4.802533  0  0  1.576542  0  5.341858  0  0  1.635156  0  5.284656  0  0  0.4546  1.535572  0  5.380961  0
P  P9  1  0.47112960  0.50738814  0.88079468  1  0  1.768757  0  4.801657  0  0  1.576514  0  5.340817  0  0  1.635088  0  5.283682  0  0  0.454088  1.535572  0  5.37989  0
P  P10  1  0.14092289  0.00737771  0.38085109  1  0  1.768895  0  4.802318  0  0  1.576481  0  5.341641  0  0  1.635091  0  5.284446  0  0  0.454655  1.53552  0  5.380725  0
P  P11  1  0.52886778  0.49261316  0.11920513  1  0  1.76876  0  4.801838  0  0  1.576492  0  5.341021  0  0  1.635035  0  5.284003  0  0  0.454038  1.535547  0  5.380105  0
H  H12  1  0.45199441  0.69517537  0.89920259  1  0  0.446588  0  0.85705  0  0  0.410249  0  0.928366  0  0  0.421724  0  0.911951  0  0  0.308408  0.4022  0  0.939854  0
H  H13  1  0.04635423  0.80488240  0.60071383  1  0  0.446948  0  0.856652  0  0  0.411011  0  0.927334  0  0  0.422476  0  0.910921  0  0  0.309271  0.40297  0  0.938819  0
H  H14  1  0.54801017  0.30482514  0.10079834  1  0  0.446523  0  0.85714  0  0  0.410162  0  0.928483  0  0  0.421639  0  0.912066  0  0  0.308376  0.402113  0  0.939973  0
H  H15  1  0.95365176  0.19511443  0.39928456  1  0  0.446946  0  0.856648  0  0  0.411006  0  0.927327  0  0  0.422472  0  0.910913  0  0  0.309267  0.402969  0  0.938807  0
H  H16  1  0.58315806  0.97101470  0.70127708  1  0  0.435437  0  0.862733  0  0  0.403221  0  0.930919  0  0  0.415168  0  0.913508  0  0  0.314892  0.394832  0  0.943126  0
H  H17  1  0.25577549  0.52893270  0.79861734  1  0  0.43528  0  0.86384  0  0  0.402592  0  0.932113  0  0  0.41454  0  0.914703  0  0  0.314509  0.394212  0  0.944313  0
H  H18  1  0.41685210  0.02898360  0.29872263  1  0  0.435445  0  0.862706  0  0  0.40321  0  0.930937  0  0  0.415157  0  0.913528  0  0  0.314922  0.394826  0  0.943135  0
H  H19  1  0.74422034  0.47106788  0.20138124  1  0  0.435231  0  0.863899  0  0  0.402534  0  0.932199  0  0  0.414483  0  0.914787  0  0  0.314487  0.39416  0  0.944387  0
H  H20  1  0.97153882  0.09026426  0.51490635  1  0  0.452535  0  0.846965  0  0  0.415297  0  0.91961  0  0  0.427117  0  0.902741  0  0  0.309358  0.407011  0  0.931401  0
H  H21  1  0.57693737  0.40974047  0.98510009  1  0  0.452255  0  0.847478  0  0  0.415381  0  0.919433  0  0  0.427195  0  0.90259  0  0  0.310125  0.407098  0  0.931209  0
H  H22  1  0.02847160  0.90973256  0.48509232  1  0  0.452612  0  0.846874  0  0  0.415379  0  0.919516  0  0  0.427204  0  0.902638  0  0  0.309403  0.407097  0  0.9313  0
H  H23  1  0.42305430  0.59026004  0.01490118  1  0  0.452217  0  0.847541  0  0  0.415343  0  0.919494  0  0  0.427157  0  0.902648  0  0  0.3101  0.407065  0  0.931259  0
H  H24  1  0.82446230  0.12003635  0.75948575  1  0  0.084587  0  0.938511  0  0  0.093953  0  1.000244  0  0  0.096726  0  0.996858  0  0  0.124694  0.09186  0  1.002778  0
H  H25  1  0.70461093  0.37994918  0.74054465  1  0  0.084237  0  0.938723  0  0  0.093331  0  1.000913  0  0  0.096124  0  0.997519  0  0  0.123938  0.091217  0  1.003457  0
H  H26  1  0.17554153  0.87996357  0.24050986  1  0  0.084554  0  0.938617  0  0  0.093983  0  1.000262  0  0  0.096742  0  0.99689  0  0  0.124695  0.091892  0  1.002797  0
H  H27  1  0.29540904  0.62004611  0.25945478  1  0  0.084195  0  0.938792  0  0  0.093301  0  1.000966  0  0  0.096094  0  0.997573  0  0  0.123938  0.091173  0  1.003524  0
H  H28  1  0.70039010  0.25324949  0.84566444  1  0  0.108584  0  0.953846  0  0  0.119837  0  1.011036  0  0  0.122605  0  1.010621  0  0  0.11002  0.117851  0  1.011481  0
H  H29  1  0.80015000  0.24666292  0.65443588  1  0  0.108241  0  0.954214  0  0  0.118951  0  1.011998  0  0  0.121767  0  1.011509  0  0  0.109446  0.11694  0  1.012494  0
H  H30  1  0.29960997  0.74675348  0.15433007  1  0  0.108592  0  0.953732  0  0  0.119832  0  1.010949  0  0  0.122606  0  1.010524  0  0  0.110021  0.117848  0  1.011391  0
H  H31  1  0.19986372  0.75333314  0.34556308  1  0  0.108243  0  0.954165  0  0  0.118952  0  1.011949  0  0  0.12177  0  1.011453  0  0  0.109445  0.11694  0  1.012448  0
H  H32  1  0.65055980  0.19749419  0.98709206  1  0  0.125265  0  0.931843  0  0  0.135217  0  0.990513  0  0  0.138191  0  0.98856  0  0  0.116531  0.133054  0  0.991943  0
H  H33  1  0.83541658  0.30229272  0.51300016  1  0  0.124694  0  0.931513  0  0  0.134319  0  0.990896  0  0  0.137261  0  0.989011  0  0  0.115904  0.132172  0  0.992311  0
H  H34  1  0.34943302  0.80251181  0.01290172  1  0  0.125231  0  0.931808  0  0  0.135213  0  0.990477  0  0  0.138198  0  0.988499  0  0  0.116515  0.133049  0  0.991916  0
H  H35  1  0.16457790  0.69770634  0.48699905  1  0  0.124696  0  0.931463  0  0  0.13426  0  0.99094  0  0  0.137204  0  0.989054  0  0  0.115899  0.132112  0  0.992343  0
H  H36  1  0.67602925  0.05090818  0.09979709  1  0  0.121402  0  0.969787  0  0  0.128296  0  1.036222  0  0  0.131937  0  1.033271  0  0  0.112671  0.125659  0  1.038335  0
H  H37  1  0.82658812  0.44879824  0.40025729  1  0  0.121141  0  0.970493  0  0  0.128184  0  1.03678  0  0  0.131828  0  1.033841  0  0  0.112548  0.125532  0  1.038937  0
H  H38  1  0.32395934  0.94909998  0.90019977  1  0  0.121343  0  0.969798  0  0  0.128306  0  1.036167  0  0  0.131949  0  1.033215  0  0  0.112687  0.125671  0  1.03827  0
H  H39  1  0.17339002  0.55120310  0.59974124  1  0  0.121189  0  0.970465  0  0  0.128231  0  1.036759  0  0  0.131876  0  1.033817  0  0  0.112538  0.125578  0  1.038918  0
H  H40  1  0.74031365  0.86798096  0.14680067  1  0  0.099027  0  0.930208  0  0  0.113963  0  0.98195  0  0  0.11641  0  0.981896  0  0  0.108009  0.112218  0  0.982134  0
H  H41  1  0.75538502  0.63169011  0.35316199  1  0  0.099178  0  0.930611  0  0  0.113843  0  0.982673  0  0  0.116319  0  0.98262  0  0  0.108006  0.112081  0  0.982842  0
H  H42  1  0.25967285  0.13202785  0.85319955  1  0  0.099217  0  0.930309  0  0  0.114131  0  0.982055  0  0  0.116576  0  0.982005  0  0  0.108086  0.112386  0  0.98224  0
H  H43  1  0.24460241  0.36831117  0.64683835  1  0  0.099174  0  0.930631  0  0  0.113828  0  0.982706  0  0  0.116301  0  0.982655  0  0  0.108034  0.112068  0  0.982879  0
H  H44  1  0.83935874  0.68634123  0.11666817  1  0  0.110804  0  0.92172  0  0  0.124129  0  0.975072  0  0  0.127255  0  0.972533  0  0  0.115047  0.121856  0  0.976905  0
H  H45  1  0.64329882  0.81340475  0.38322052  1  0  0.109582  0  0.922126  0  0  0.123302  0  0.975246  0  0  0.126397  0  0.972725  0  0  0.114739  0.121054  0  0.977067  0
H  H46  1  0.16061713  0.31366453  0.88333338  1  0  0.110782  0  0.921736  0  0  0.124113  0  0.975083  0  0  0.127239  0  0.972541  0  0  0.115006  0.121839  0  0.976916  0
H  H47  1  0.35670630  0.18659420  0.61678236  1  0  0.109607  0  0.922096  0  0  0.123282  0  0.975264  0  0  0.126377  0  0.972744  0  0  0.114731  0.121037  0  0.977081  0
H  H48  1  0.94521587  0.57762528  0.01771521  1  0  0.112998  0  0.942099  0  0  0.124881  0  0.996684  0  0  0.127622  0  0.995992  0  0  0.116019  0.122883  0  0.997398  0
H  H49  1  0.54119875  0.92221351  0.48210177  1  0  0.113562  0  0.941747  0  0  0.12492  0  0.996614  0  0  0.127619  0  0.995989  0  0  0.116446  0.122937  0  0.997298  0
H  H50  1  0.05476256  0.42237893  0.98228783  1  0  0.112949  0  0.942085  0  0  0.124835  0  0.99666  0  0  0.127576  0  0.995969  0  0  0.115982  0.122835  0  0.997379  0
H  H51  1  0.45882298  0.07778466  0.51790227  1  0  0.113498  0  0.941819  0  0  0.124845  0  0.996713  0  0  0.127557  0  0.996069  0  0  0.116424  0.122864  0  0.997396  0
H  H52  1  0.98312168  0.65733100  0.87821718  1  0  0.099615  0  0.933675  0  0  0.106776  0  0.995838  0  0  0.109301  0  0.992702  0  0  0.132148  0.104802  0  0.998269  0
H  H53  1  0.51864881  0.84259436  0.62163520  1  0  0.099454  0  0.934401  0  0  0.106757  0  0.996465  0  0  0.10925  0  0.993405  0  0  0.132734  0.10481  0  0.998843  0
H  H54  1  0.01686939  0.34267173  0.12178504  1  0  0.099553  0  0.933782  0  0  0.106758  0  0.995916  0  0  0.10929  0  0.992775  0  0  0.132157  0.10478  0  0.998343  0
H  H55  1  0.48136915  0.15740230  0.37836872  1  0  0.099497  0  0.934526  0  0  0.106836  0  0.996537  0  0  0.109324  0  0.99349  0  0  0.132772  0.104894  0  0.998913  0
C  C56  1  0.79798467  0.10026615  0.82177334  1  0  0.153132  0  3.674668  0  0  0.11659  0  3.93225  0  0  0.125941  0  3.947817  0  0  0.07004  0.110532  0  3.921664  0
C  C57  1  0.72053927  0.39966163  0.67825961  1  0  0.152507  0  3.674372  0  0  0.116176  0  3.931761  0  0  0.125461  0  3.947352  0  0  0.069439  0.110197  0  3.921152  0
C  C58  1  0.20201487  0.89973522  0.17822423  1  0  0.153091  0  3.674721  0  0  0.116532  0  3.932278  0  0  0.125895  0  3.947854  0  0  0.070049  0.110485  0  3.92169  0
C  C59  1  0.27947156  0.60033515  0.32174028  1  0  0.152618  0  3.674444  0  0  0.116261  0  3.931809  0  0  0.125546  0  3.947402  0  0  0.069479  0.110282  0  3.921194  0
C  C60  1  0.73061281  0.17309095  0.86980654  1  0  -0.129129  0  3.7348  0  0  -0.143807  0  3.996047  0  0  -0.151908  0  4.017696  0  0  -0.082817  -0.13863  0  3.981557  0
C  C61  1  0.77408480  0.32679629  0.63026732  1  0  -0.128341  0  3.734977  0  0  -0.1421  0  3.995625  0  0  -0.150218  0  4.017239  0  0  -0.0809  -0.136908  0  3.981141  0
C  C62  1  0.26938323  0.82691199  0.13018889  1  0  -0.129118  0  3.734513  0  0  -0.143763  0  3.995786  0  0  -0.151868  0  4.017435  0  0  -0.082841  -0.138584  0  3.981294  0
C  C63  1  0.22592044  0.67320133  0.36972976  1  0  -0.128275  0  3.734809  0  0  -0.142043  0  3.99544  0  0  -0.150161  0  4.017056  0  0  -0.080873  -0.136852  0  3.980955  0
C  C64  1  0.70312114  0.14253065  0.94856767  1  0  -0.025052  0  3.647447  0  0  -0.054272  0  3.902636  0  0  -0.050153  0  3.919506  0  0  -0.054664  -0.056783  0  3.891528  0
C  C65  1  0.79449836  0.35728351  0.55150726  1  0  -0.024708  0  3.648446  0  0  -0.054267  0  3.904727  0  0  -0.050142  0  3.921594  0  0  -0.054647  -0.056788  0  3.893624  0
C  C66  1  0.29687295  0.85747299  0.05142935  1  0  -0.024931  0  3.647268  0  0  -0.054264  0  3.902532  0  0  -0.050144  0  3.91941  0  0  -0.054649  -0.056778  0  3.891427  0
C  C67  1  0.20549848  0.64271481  0.44849157  1  0  -0.024731  0  3.648223  0  0  -0.054242  0  3.904545  0  0  -0.050117  0  3.921409  0  0  -0.054625  -0.056759  0  3.893433  0
C  C68  1  0.74227519  0.03848689  0.97914105  1  0  0.020863  0  3.789831  0  0  0.036992  0  4.023337  0  0  0.033955  0  4.047137  0  0  0.001268  0.038703  0  4.007872  0
C  C69  1  0.76000739  0.46131623  0.52088627  1  0  0.022455  0  3.785576  0  0  0.038157  0  4.019691  0  0  0.035123  0  4.04346  0  0  0.001412  0.039886  0  4.004223  0
C  C70  1  0.25771823  0.96151826  0.02085579  1  0  0.020669  0  3.789773  0  0  0.036866  0  4.023237  0  0  0.033827  0  4.04704  0  0  0.001273  0.038584  0  4.007767  0
C  C71  1  0.23998299  0.53868209  0.47911274  1  0  0.02238  0  3.785808  0  0  0.038069  0  4.019877  0  0  0.035033  0  4.043647  0  0  0.001367  0.039798  0  4.004402  0
C  C72  1  0.72041770  0.99863226  0.05947394  1  0  -0.085193  0  3.691482  0  0  -0.112877  0  3.955538  0  0  -0.114599  0  3.976561  0  0  -0.080482  -0.111482  0  3.94167  0
C  C73  1  0.77849340  0.50114071  0.44054188  1  0  -0.084641  0  3.690486  0  0  -0.112248  0  3.954743  0  0  -0.113938  0  3.975707  0  0  -0.080214  -0.110898  0  3.940917  0
C  C74  1  0.27957620  0.00137515  0.94052274  1  0  -0.085026  0  3.691398  0  0  -0.112787  0  3.955401  0  0  -0.114511  0  3.976426  0  0  -0.0805  -0.111392  0  3.941534  0
C  C75  1  0.22149006  0.49885831  0.55945898  1  0  -0.084599  0  3.690612  0  0  -0.112191  0  3.954826  0  0  -0.113881  0  3.97579  0  0  -0.080132  -0.110838  0  3.941002  0
C  C76  1  0.75781830  0.89686146  0.08544686  1  0  -0.098225  0  3.749571  0  0  -0.123378  0  4.009099  0  0  -0.127636  0  4.033756  0  0  -0.083504  -0.120542  0  3.992755  0
C  C77  1  0.74026676  0.60288342  0.41452998  1  0  -0.098712  0  3.752024  0  0  -0.12367  0  4.01157  0  0  -0.128008  0  4.036295  0  0  -0.083263  -0.120783  0  3.995197  0
C  C78  1  0.24217365  0.10314665  0.91455141  1  0  -0.098606  0  3.749806  0  0  -0.123732  0  4.009374  0  0  -0.127992  0  4.034029  0  0  -0.083597  -0.120892  0  3.993021  0
C  C79  1  0.25972175  0.39711632  0.58547174  1  0  -0.098811  0  3.752089  0  0  -0.123776  0  4.011662  0  0  -0.12811  0  4.036383  0  0  -0.083381  -0.120899  0  3.995308  0
C  C80  1  0.82043431  0.82630649  0.03350260  1  0  0.015236  0  3.811924  0  0  0.033318  0  4.043249  0  0  0.030547  0  4.068749  0  0  0.000145  0.035035  0  4.026197  0
C  C81  1  0.68053564  0.67348930  0.46642321  1  0  0.016247  0  3.810739  0  0  0.034371  0  4.042714  0  0  0.031622  0  4.068169  0  0  0.000929  0.03608  0  4.02568  0
C  C82  1  0.17955925  0.17370010  0.96649651  1  0  0.015331  0  3.811822  0  0  0.033392  0  4.043172  0  0  0.030621  0  4.068667  0  0  0.00015  0.035117  0  4.026108  0
C  C83  1  0.31946335  0.32650889  0.53357992  1  0  0.016436  0  3.810572  0  0  0.034536  0  4.042514  0  0  0.031787  0  4.067962  0  0  0.001043  0.03625  0  4.025483  0
C  C84  1  0.85827563  0.72027376  0.05623477  1  0  -0.02499  0  3.647688  0  0  -0.052794  0  3.897416  0  0  -0.04981  0  3.914544  0  0  -0.050555  -0.054479  0  3.885652  0
C  C85  1  0.63531902  0.77950412  0.44365898  1  0  -0.023938  0  3.648466  0  0  -0.052364  0  3.898611  0  0  -0.04936  0  3.915668  0  0  -0.052418  -0.054067  0  3.88688  0
C  C86  1  0.14170980  0.27973205  0.94376505  1  0  -0.02489  0  3.647555  0  0  -0.052719  0  3.897276  0  0  -0.049733  0  3.914399  0  0  -0.050477  -0.054404  0  3.885511  0
C  C87  1  0.36468663  0.22049484  0.55634334  1  0  -0.024117  0  3.648576  0  0  -0.052487  0  3.898719  0  0  -0.049483  0  3.915782  0  0  -0.052438  -0.05419  0  3.886988  0
C  C88  1  0.91671757  0.65922919  0.00115630  1  0  -0.077665  0  3.672227  0  0  -0.094429  0  3.931987  0  0  -0.100852  0  3.951404  0  0  -0.066153  -0.090407  0  3.919077  0
C  C89  1  0.57757703  0.84059746  0.49868947  1  0  -0.07957  0  3.670078  0  0  -0.095173  0  3.929652  0  0  -0.101517  0  3.948954  0  0  -0.065081  -0.091185  0  3.916786  0
C  C90  1  0.08326677  0.34077501  0.99884714  1  0  -0.077698  0  3.672027  0  0  -0.094392  0  3.931792  0  0  -0.100817  0  3.951209  0  0  -0.066102  -0.090375  0  3.918883  0
C  C91  1  0.42243838  0.15940076  0.50131296  1  0  -0.079346  0  3.670161  0  0  -0.094958  0  3.92977  0  0  -0.10131  0  3.949069  0  0  -0.065056  -0.090974  0  3.916912  0
C  C92  1  0.93922918  0.70283427  0.92329810  1  0  0.197455  0  3.615629  0  0  0.157251  0  3.877759  0  0  0.167896  0  3.890859  0  0  0.08632  0.150239  0  3.869032  0
C  C93  1  0.56549071  0.79705785  0.57657498  1  0  0.198001  0  3.61438  0  0  0.157158  0  3.877098  0  0  0.167826  0  3.890177  0  0  0.084444  0.150142  0  3.868347  0
C  C94  1  0.06076114  0.29716925  0.07670282  1  0  0.197567  0  3.615591  0  0  0.157244  0  3.877837  0  0  0.167886  0  3.890937  0  0  0.086295  0.150243  0  3.869105  0
C  C95  1  0.43452402  0.20293733  0.42342826  1  0  0.197928  0  3.6145  0  0  0.157042  0  3.87728  0  0  0.167711  0  3.890362  0  0  0.084493  0.150025  0  3.868534  0
C  C96  1  0.84677446  0.86370446  0.95385085  1  0  0.141869  0  3.747044  0  0  0.131727  0  3.984103  0  0  0.136284  0  4.004947  0  0  0.132454  0.128674  0  3.970112  0
C  C97  1  0.66435547  0.63614949  0.54609607  1  0  0.139806  0  3.747838  0  0  0.129173  0  3.985422  0  0  0.13377  0  4.006233  0  0  0.131087  0.126091  0  3.971452  0
C  C98  1  0.15322071  0.13630060  0.04614908  1  0  0.141878  0  3.74683  0  0  0.131741  0  3.983895  0  0  0.136296  0  4.004751  0  0  0.132449  0.128688  0  3.969901  0
C  C99  1  0.33564520  0.36384651  0.45390499  1  0  0.139843  0  3.747523  0  0  0.129254  0  3.98503  0  0  0.133857  0  4.005835  0  0  0.131108  0.126167  0  3.971067  0
C  C100  1  0.80750822  0.97049281  0.92635222  1  0  0.133095  0  3.764351  0  0  0.123924  0  4.0018  0  0  0.129255  0  4.022526  0  0  0.132644  0.120369  0  3.988094  0
C  C101  1  0.70444254  0.52937343  0.57363350  1  0  0.131982  0  3.764923  0  0  0.123762  0  4.001847  0  0  0.12907  0  4.022542  0  0  0.13347  0.120237  0  3.988157  0
C  C102  1  0.19249052  0.02951002  0.07364695  1  0  0.133214  0  3.76431  0  0  0.124095  0  4.001678  0  0  0.129427  0  4.022401  0  0  0.132686  0.120542  0  3.987979  0
C  C103  1  0.29555417  0.47062483  0.42636711  1  0  0.1319  0  3.764892  0  0  0.123683  0  4.001739  0  0  0.12899  0  4.022434  0  0  0.133391  0.120155  0  3.988039  0
N  N104  1  0.83487793  0.00177799  0.84963712  1  0  -0.336996  0  3.294525  0  0  -0.266661  0  3.546937  0  0  -0.285134  0  3.566099  0  0  -0.274447  -0.254362  0  3.533969  0
N  N105  1  0.68653205  0.49813791  0.65035672  1  0  -0.335924  0  3.294292  0  0  -0.265969  0  3.546649  0  0  -0.28435  0  3.56574  0  0  -0.274434  -0.253765  0  3.533755  0
N  N106  1  0.16512026  0.99822186  0.15036109  1  0  -0.337001  0  3.294576  0  0  -0.26675  0  3.547074  0  0  -0.285224  0  3.566234  0  0  -0.27447  -0.254472  0  3.534135  0
N  N107  1  0.31347347  0.50185962  0.34964335  1  0  -0.335986  0  3.2943  0  0  -0.265982  0  3.54661  0  0  -0.284364  0  3.565701  0  0  -0.274447  -0.253755  0  3.533677  0
N  N108  1  0.90657252  0.80235591  0.90087402  1  0  -0.360437  0  3.319396  0  0  -0.288801  0  3.571929  0  0  -0.308282  0  3.591176  0  0  -0.279181  -0.275761  0  3.558874  0
N  N109  1  0.60982964  0.69753601  0.59904407  1  0  -0.358541  0  3.319116  0  0  -0.286506  0  3.571435  0  0  -0.306057  0  3.590773  0  0  -0.277346  -0.2734  0  3.55829  0
N  N110  1  0.09342527  0.19764536  0.09912699  1  0  -0.360477  0  3.319397  0  0  -0.288836  0  3.571988  0  0  -0.308317  0  3.591234  0  0  -0.2792  -0.275799  0  3.558938  0
N  N111  1  0.39017459  0.30246071  0.40095776  1  0  -0.35861  0  3.319141  0  0  -0.286568  0  3.571463  0  0  -0.306123  0  3.590802  0  0  -0.277451  -0.273464  0  3.558324  0
O  O112  1  0.61885980  0.89642338  0.78167761  1  0  -0.927394  0  2.022607  0  0  -0.836434  0  2.285152  0  0  -0.866421  0  2.263592  0  0  -0.332401  -0.815254  0  2.29946  0
O  O113  1  0.29712030  0.60360553  0.71826615  1  0  -0.928059  0  2.024179  0  0  -0.836971  0  2.286599  0  0  -0.866967  0  2.26507  0  0  -0.332451  -0.815905  0  2.300987  0
O  O114  1  0.38114142  0.10357717  0.21832191  1  0  -0.927352  0  2.022636  0  0  -0.836391  0  2.285195  0  0  -0.866374  0  2.263632  0  0  -0.332383  -0.815216  0  2.299488  0
O  O115  1  0.70288104  0.39639054  0.28173258  1  0  -0.927998  0  2.024233  0  0  -0.836906  0  2.286671  0  0  -0.866897  0  2.26513  0  0  -0.332464  -0.815851  0  2.301072  0
O  O116  1  0.23438562  0.88868877  0.79826413  1  0  -0.907411  0  2.020017  0  0  -0.825263  0  2.301929  0  0  -0.85328  0  2.278125  0  0  -0.338475  -0.805428  0  2.317786  0
O  O117  1  0.92149620  0.61135150  0.70162629  1  0  -0.907829  0  2.021133  0  0  -0.826021  0  2.303193  0  0  -0.85403  0  2.279368  0  0  -0.338518  -0.806173  0  2.318989  0
O  O118  1  0.76561794  0.11130946  0.20173753  1  0  -0.907435  0  2.020018  0  0  -0.825264  0  2.301893  0  0  -0.853278  0  2.278085  0  0  -0.338503  -0.805439  0  2.317752  0
O  O119  1  0.07850407  0.38864750  0.29837508  1  0  -0.907814  0  2.021069  0  0  -0.826004  0  2.303155  0  0  -0.854018  0  2.27933  0  0  -0.338542  -0.806155  0  2.318954  0
O  O120  1  0.51000768  0.74714683  0.74638627  1  0  -0.93566  0  2.114788  0  0  -0.844952  0  2.407046  0  0  -0.872031  0  2.380242  0  0  -0.327491  -0.825967  0  2.425179  0
O  O121  1  0.00345097  0.75289008  0.75352631  1  0  -0.936784  0  2.114917  0  0  -0.845861  0  2.40715  0  0  -0.873027  0  2.380372  0  0  -0.326703  -0.826662  0  2.424887  0
O  O122  1  0.48999144  0.25284984  0.25361759  1  0  -0.935644  0  2.114856  0  0  -0.844958  0  2.407128  0  0  -0.87202  0  2.380314  0  0  -0.327517  -0.825986  0  2.425258  0
O  O123  1  0.99655804  0.24710746  0.24647340  1  0  -0.936667  0  2.115069  0  0  -0.845698  0  2.407249  0  0  -0.872907  0  2.380529  0  0  -0.326586  -0.826493  0  2.424981  0
O  O124  1  0.48356370  0.76648715  0.88593723  1  0  -0.800338  0  1.987545  0  0  -0.72852  0  2.221523  0  0  -0.74989  0  2.195032  0  0  -0.387379  -0.713445  0  2.239736  0
O  O125  1  0.13603256  0.73354245  0.61398634  1  0  -0.80128  0  1.985627  0  0  -0.730321  0  2.219819  0  0  -0.751716  0  2.193457  0  0  -0.389342  -0.715244  0  2.237922  0
O  O126  1  0.51644384  0.23351336  0.11406390  1  0  -0.800203  0  1.987658  0  0  -0.728369  0  2.221643  0  0  -0.749734  0  2.195152  0  0  -0.387308  -0.713293  0  2.239839  0
O  O127  1  0.86396676  0.26645360  0.38601286  1  0  -0.80126  0  1.985574  0  0  -0.730297  0  2.219786  0  0  -0.751688  0  2.193418  0  0  -0.389349  -0.71522  0  2.23789  0
O  O128  1  0.97447567  0.97091506  0.68982872  1  0  -0.887844  0  2.005306  0  0  -0.801782  0  2.277522  0  0  -0.828189  0  2.252215  0  0  -0.330365  -0.783233  0  2.294512  0
O  O129  1  0.63550387  0.52909233  0.81013325  1  0  -0.889089  0  2.005082  0  0  -0.802899  0  2.277137  0  0  -0.829267  0  2.251814  0  0  -0.330953  -0.784414  0  2.294181  0
O  O130  1  0.02553912  0.02908103  0.31016912  1  0  -0.887778  0  2.00518  0  0  -0.80172  0  2.277402  0  0  -0.828119  0  2.252091  0  0  -0.330387  -0.783178  0  2.294405  0
O  O131  1  0.36449761  0.47090675  0.18986523  1  0  -0.889111  0  2.005097  0  0  -0.802922  0  2.277164  0  0  -0.829285  0  2.251852  0  0  -0.330952  -0.784433  0  2.294204  0
O  O132  1  0.60690891  0.01136428  0.64739953  1  0  -0.77661  0  1.947328  0  0  -0.711366  0  2.172097  0  0  -0.73198  0  2.143486  0  0  -0.387461  -0.696835  0  2.191763  0
O  O133  1  0.26607823  0.48855253  0.85249324  1  0  -0.776302  0  1.946392  0  0  -0.710381  0  2.170942  0  0  -0.73101  0  2.142364  0  0  -0.386336  -0.695839  0  2.190569  0
O  O134  1  0.39310723  0.98863472  0.35260170  1  0  -0.776555  0  1.947185  0  0  -0.711342  0  2.172014  0  0  -0.731955  0  2.143403  0  0  -0.387516  -0.696816  0  2.191674  0
O  O135  1  0.73391357  0.51144803  0.14750625  1  0  -0.776229  0  1.946521  0  0  -0.71031  0  2.171088  0  0  -0.730934  0  2.142524  0  0  -0.386296  -0.695773  0  2.190714  0
O  O136  1  0.89706541  0.09642117  0.56951297  1  0  -0.781519  0  1.955763  0  0  -0.710626  0  2.185328  0  0  -0.733317  0  2.159486  0  0  -0.385774  -0.694588  0  2.202927  0
O  O137  1  0.56342343  0.40359256  0.93046983  1  0  -0.77997  0  1.955499  0  0  -0.710071  0  2.18585  0  0  -0.732705  0  2.159887  0  0  -0.386373  -0.694045  0  2.203498  0
O  O138  1  0.10295214  0.90357415  0.43048571  1  0  -0.781612  0  1.955723  0  0  -0.710696  0  2.185254  0  0  -0.733389  0  2.159411  0  0  -0.385818  -0.694667  0  2.202856  0
O  O139  1  0.43656978  0.59640570  0.06953114  1  0  -0.779948  0  1.955624  0  0  -0.710043  0  2.185991  0  0  -0.732674  0  2.160049  0  0  -0.386342  -0.694014  0  2.203625  0
O  O140  1  0.92746341  0.91039793  0.56943890  1  0  -0.903551  0  1.987195  0  0  -0.813878  0  2.227037  0  0  -0.841391  0  2.205205  0  0  -0.361317  -0.794383  0  2.241671  0
O  O141  1  0.40733211  0.58964044  0.93047972  1  0  -0.903786  0  1.987409  0  0  -0.814092  0  2.227186  0  0  -0.841613  0  2.205405  0  0  -0.361244  -0.794575  0  2.241775  0
O  O142  1  0.07254325  0.08960035  0.43056118  1  0  -0.90361  0  1.98722  0  0  -0.813891  0  2.22703  0  0  -0.8414  0  2.2052  0  0  -0.361323  -0.794399  0  2.24166  0
O  O143  1  0.59267126  0.41036315  0.06951910  1  0  -0.903838  0  1.987434  0  0  -0.814099  0  2.227197  0  0  -0.84162  0  2.205429  0  0  -0.361265  -0.794581  0  2.241793  0
