# generated using pymatgen
data_NiH11C5SNO7
_symmetry_space_group_name_H-M   'P 1'
_cell_length_a   7.55213820
_cell_length_b   11.36715822
_cell_length_c   11.86800000
_cell_angle_alpha   110.82480453
_cell_angle_beta   90.00000000
_cell_angle_gamma   90.00000000
_symmetry_Int_Tables_number   1
_chemical_formula_structural   NiH11C5SNO7
_chemical_formula_sum   'Ni4 H44 C20 S4 N4 O28'
_cell_volume   952.26656725
_cell_formula_units_Z   4
loop_
 _symmetry_equiv_pos_site_id
 _symmetry_equiv_pos_as_xyz
  1  'x, y, z'
loop_
 _atom_site_type_symbol
 _atom_site_label
 _atom_site_symmetry_multiplicity
 _atom_site_fract_x
 _atom_site_fract_y
 _atom_site_fract_z
 _atom_site_occupancy
 _atom_site_hle17_ddec_charge
 _atom_site_hle17_ddec_spin_density
 _atom_site_hle17_ddec_sum_bond_order
 _atom_site_hle17_magmom
 _atom_site_hse06_10hf_ddec_charge
 _atom_site_hse06_10hf_ddec_spin_density
 _atom_site_hse06_10hf_ddec_sum_bond_order
 _atom_site_hse06_10hf_magmom
 _atom_site_hse06_ddec_charge
 _atom_site_hse06_ddec_spin_density
 _atom_site_hse06_ddec_sum_bond_order
 _atom_site_hse06_magmom
 _atom_site_pbe_bader_charge
 _atom_site_pbe_bader_spin_density
 _atom_site_pbe_cm5_charge
 _atom_site_pbe_ddec_charge
 _atom_site_pbe_ddec_spin_density
 _atom_site_pbe_ddec_sum_bond_order
 _atom_site_pbe_magmom
Ni  Ni0  1  0.58975086  0.21025806  0.65707414  1  1.02228  1.790713  1.783088  1.556  1.024027  1.84042  2.166471  1.671  1.098167  1.886443  2.109186  1.746  1.23204  1.617021  0.645857  0.958129  1.799103  2.222544  1.605
Ni  Ni1  1  0.08975339  0.28974180  0.34292906  1  1.022243  1.79072  1.783262  1.556  1.023964  1.840419  2.166651  1.671  1.098122  1.886443  2.109349  1.746  1.232027  1.617011  0.645833  0.958084  1.799091  2.222697  1.605
Ni  Ni2  1  0.41024938  0.78974261  0.34292584  1  1.022247  1.790709  1.783103  1.556  1.023994  1.840418  2.166431  1.671  1.098144  1.88645  2.109166  1.746  1.232144  1.617027  0.645821  0.958094  1.799117  2.222521  1.605
Ni  Ni3  1  0.91025082  0.71025793  0.65707144  1  1.022256  1.790715  1.783163  1.556  1.024023  1.840425  2.166485  1.671  1.098119  1.886451  2.109286  1.746  1.232171  1.617014  0.645833  0.95813  1.799105  2.222544  1.605
H  H4  1  0.25670081  0.12652662  0.61478125  1  0.421218  -0.000187  0.868759  0.0  0.390834  0.000364  0.942031  0.001  0.401806  0.000209  0.926008  0.0  0.660468  0.000373  0.296858  0.382695  0.000516  0.953797  0.001
H  H5  1  0.75670225  0.37347513  0.38522090  1  0.421236  -0.000186  0.868786  0.0  0.390839  0.000364  0.942041  0.001  0.401811  0.000209  0.92602  0.0  0.660482  0.000373  0.296855  0.382699  0.000516  0.953809  0.001
H  H6  1  0.74330605  0.87347405  0.38522125  1  0.421227  -0.000187  0.868749  0.0  0.390824  0.000364  0.942064  0.001  0.401795  0.000209  0.926044  0.0  0.660422  0.000373  0.29683  0.382684  0.000516  0.953831  0.001
H  H7  1  0.24330460  0.62652648  0.61477855  1  0.421142  -0.000186  0.868868  0.0  0.390738  0.000364  0.942179  0.001  0.401713  0.000208  0.926153  0.0  0.660424  0.000373  0.29681  0.382599  0.000516  0.953946  0.001
H  H8  1  0.38532796  0.01292383  0.60321176  1  0.427052  -0.000375  0.876349  -0.001  0.400159  0.00013  0.934662  0.0  0.410856  -2.4e-05  0.919245  0.0  0.651128  0.000168  0.295323  0.392217  0.000287  0.946002  0.0
H  H9  1  0.88532675  0.48707416  0.39678742  1  0.427008  -0.000376  0.876399  -0.001  0.40013  0.00013  0.934683  0.0  0.410828  -2.3e-05  0.919266  0.0  0.651131  0.000168  0.295334  0.392189  0.000287  0.946023  0.0
H  H10  1  0.61467493  0.98707967  0.39678749  1  0.427102  -0.000375  0.876247  -0.001  0.400217  0.00013  0.934571  0.0  0.410914  -2.4e-05  0.919154  0.0  0.651105  0.000168  0.295311  0.392275  0.000287  0.945912  0.0
H  H11  1  0.11467746  0.51292275  0.60321127  1  0.427053  -0.000375  0.876348  -0.001  0.400154  0.00013  0.934673  0.0  0.410852  -2.4e-05  0.919254  0.0  0.651112  0.000168  0.295301  0.392209  0.000287  0.946018  0.0
H  H12  1  0.32383544  0.36711910  0.69521115  1  0.422827  -0.000665  0.878523  -0.001  0.394924  -7.9e-05  0.940777  0.0  0.405909  -0.000196  0.925045  0.0  0.667313  -5.6e-05  0.296868  0.386968  5.4e-05  0.952065  0.0
H  H13  1  0.82383821  0.13288264  0.30478848  1  0.422816  -0.000664  0.878573  -0.001  0.394916  -7.8e-05  0.940793  0.0  0.405903  -0.000195  0.925057  0.0  0.667338  -5.6e-05  0.296806  0.386958  5.4e-05  0.952082  0.0
H  H14  1  0.67616612  0.63288439  0.30478810  1  0.422793  -0.000666  0.87856  -0.001  0.394896  -7.9e-05  0.940815  0.0  0.405883  -0.000196  0.92508  0.0  0.66737  -5.6e-05  0.296847  0.386939  5.4e-05  0.952104  0.0
H  H15  1  0.17616468  0.86711897  0.69521182  1  0.422836  -0.000665  0.878496  -0.001  0.394946  -7.9e-05  0.940741  0.0  0.405932  -0.000196  0.925008  0.0  0.667328  -5.6e-05  0.296873  0.38699  5.4e-05  0.952029  0.0
H  H16  1  0.45024070  0.37711010  0.59014250  1  0.41983  -0.000521  0.863465  -0.001  0.390765  0.000197  0.938795  0.0  0.401122  2.4e-05  0.92408  0.0  0.626613  0.000161  0.299426  0.383036  0.000376  0.947022  0.0
H  H17  1  0.95023950  0.12289070  0.40985597  1  0.419848  -0.00052  0.863427  -0.001  0.39078  0.000197  0.938763  0.0  0.401136  2.4e-05  0.924061  0.0  0.626626  0.000162  0.29943  0.383052  0.000376  0.946988  0.0
H  H18  1  0.54975954  0.62289151  0.40985780  1  0.419826  -0.00052  0.86346  -0.001  0.39075  0.000197  0.938814  0.0  0.401109  2.4e-05  0.924103  0.0  0.626613  0.000162  0.299402  0.383021  0.000376  0.947042  0.0
H  H19  1  0.04975677  0.87711091  0.59014264  1  0.419824  -0.00052  0.863503  -0.001  0.390746  0.000197  0.938851  0.0  0.401105  2.4e-05  0.924117  0.0  0.626585  0.000162  0.299414  0.383017  0.000376  0.947078  0.0
H  H20  1  0.73340289  0.97111948  0.63276174  1  0.442571  0.001413  0.851871  0.003  0.417108  0.001248  0.906843  0.003  0.427992  0.000985  0.890988  0.002  0.675066  0.002043  0.300433  0.408874  0.001478  0.918817  0.003
H  H21  1  0.23340410  0.52887823  0.36723879  1  0.442632  0.001413  0.851791  0.003  0.417175  0.001248  0.906749  0.003  0.428059  0.000985  0.890894  0.002  0.675081  0.002043  0.300473  0.408942  0.001478  0.91872  0.003
H  H22  1  0.26659999  0.02888401  0.36724004  1  0.442573  0.001414  0.851852  0.003  0.417118  0.001248  0.90681  0.003  0.428003  0.000985  0.890954  0.002  0.675542  0.002041  0.300417  0.408885  0.001478  0.918782  0.003
H  H23  1  0.76659879  0.47112056  0.63276139  1  0.442618  0.001413  0.851805  0.003  0.417144  0.001248  0.906793  0.003  0.428027  0.000985  0.89094  0.002  0.675027  0.002043  0.300439  0.408912  0.001478  0.918762  0.003
H  H24  1  0.87061701  0.07038878  0.60773611  1  0.432825  0.000243  0.864117  0.001  0.404455  0.000414  0.923607  0.001  0.415499  0.000241  0.907365  0.0  0.650109  0.000696  0.297807  0.396386  0.000582  0.935423  0.001
H  H25  1  0.37061425  0.42961485  0.39226753  1  0.432788  0.000241  0.864163  0.001  0.404465  0.000414  0.923585  0.001  0.415509  0.000241  0.907342  0.0  0.650112  0.000696  0.297836  0.396397  0.000582  0.935398  0.001
H  H26  1  0.12938323  0.92961566  0.39227189  1  0.432759  0.000242  0.864197  0.001  0.404477  0.000414  0.923572  0.001  0.415523  0.000241  0.907325  0.0  0.650078  0.000696  0.297835  0.396405  0.000582  0.935392  0.001
H  H27  1  0.62938467  0.57038676  0.60773108  1  0.43275  0.000243  0.864209  0.001  0.404413  0.000414  0.92366  0.001  0.415455  0.000241  0.907419  0.0  0.650164  0.000695  0.297789  0.396346  0.000582  0.935471  0.001
H  H28  1  0.69209009  0.44621224  0.85340527  1  0.089386  0.001037  0.941715  0.003  0.093998  0.000704  1.00935  0.002  0.095668  0.000462  1.007273  0.001  0.108557  0.002618  0.118898  0.092612  0.00093  1.011063  0.002
H  H29  1  0.19209527  0.05379045  0.14659636  1  0.089345  0.001037  0.941693  0.003  0.093944  0.000704  1.009345  0.002  0.095635  0.000462  1.007245  0.001  0.108508  0.002618  0.118861  0.092562  0.00093  1.01105  0.002
H  H30  1  0.30789956  0.55378843  0.14659555  1  0.089306  0.001037  0.941705  0.003  0.093942  0.000704  1.00933  0.002  0.095635  0.000462  1.007227  0.001  0.108667  0.002618  0.118853  0.092556  0.00093  1.011042  0.002
H  H31  1  0.80790894  0.94620740  0.85340181  1  0.08943  0.001038  0.941676  0.003  0.09398  0.000704  1.009376  0.002  0.095665  0.000462  1.007281  0.001  0.108364  0.002618  0.118864  0.092598  0.00093  1.011079  0.002
H  H32  1  0.72045557  0.52142757  0.07875132  1  0.112047  0.000497  0.958449  0.001  0.121789  0.000442  1.016059  0.001  0.124062  0.000301  1.0167  0.0  0.131165  0.001306  0.108852  0.120055  0.000587  1.015889  0.001
H  H33  1  0.22045809  0.97857202  0.92124985  1  0.112002  0.000496  0.958448  0.001  0.121747  0.000442  1.01606  0.001  0.124019  0.000301  1.016703  0.0  0.131174  0.001306  0.108834  0.120012  0.000587  1.015892  0.001
H  H34  1  0.27953673  0.47857498  0.92124845  1  0.112026  0.000499  0.958571  0.001  0.121768  0.000442  1.016175  0.001  0.124041  0.000301  1.016818  0.0  0.130924  0.001306  0.108838  0.120032  0.000587  1.016007  0.001
H  H35  1  0.77954347  0.02142300  0.07874821  1  0.112048  0.000495  0.958498  0.001  0.121797  0.000442  1.016098  0.001  0.124069  0.000301  1.01674  0.0  0.13122  0.001306  0.10884  0.120075  0.000587  1.015916  0.001
H  H36  1  0.64969680  0.37120210  0.18464914  1  0.108071  0.000585  0.948714  0.001  0.116398  0.000224  1.010659  0.0  0.119547  0.000121  1.007394  0.0  0.132388  0.000516  0.107173  0.113616  0.000343  1.013731  0.0
H  H37  1  0.14969800  0.12879683  0.81535121  1  0.108101  0.000585  0.948692  0.001  0.116408  0.000224  1.010672  0.0  0.11956  0.000121  1.007406  0.0  0.132411  0.000516  0.107183  0.113635  0.000344  1.013733  0.0
H  H38  1  0.35029947  0.62879763  0.81535052  1  0.108051  0.000585  0.948738  0.001  0.116362  0.000224  1.010728  0.0  0.119511  0.000121  1.007464  0.0  0.132497  0.000516  0.107128  0.113588  0.000344  1.013789  0.0
H  H39  1  0.85030356  0.87119914  0.18464716  1  0.10811  0.000585  0.948723  0.001  0.116429  0.000224  1.010668  0.0  0.119582  0.000121  1.007399  0.0  0.132419  0.000516  0.107192  0.113653  0.000344  1.013733  0.0
H  H40  1  0.55366307  0.15292017  0.06137971  1  0.1099  0.000497  0.964809  0.0  0.117527  0.000498  1.026862  0.0  0.120221  0.00034  1.026762  0.0  0.099887  0.001423  0.105427  0.115499  0.000653  1.027174  0.001
H  H41  1  0.05366295  0.34708063  0.93861875  1  0.109913  0.000497  0.964802  0.0  0.117524  0.000498  1.026868  0.0  0.120216  0.00034  1.026773  0.0  0.099946  0.001423  0.105432  0.115496  0.000653  1.027178  0.001
H  H42  1  0.44633320  0.84707861  0.93861962  1  0.109921  0.000495  0.964871  0.0  0.117531  0.000498  1.026936  0.0  0.120223  0.00034  1.026838  0.0  0.100027  0.001422  0.10543  0.115503  0.000652  1.027247  0.001
H  H43  1  0.94633464  0.65291627  0.06137826  1  0.109876  0.000497  0.964847  0.0  0.117524  0.000498  1.026877  0.0  0.120218  0.00034  1.026776  0.0  0.100016  0.001423  0.105423  0.115497  0.000653  1.027187  0.001
H  H44  1  0.53469758  0.09144000  0.83623133  1  0.089508  0.001071  0.93887  0.003  0.09513  0.000687  1.004565  0.002  0.09668  0.00044  1.002551  0.001  0.115309  0.002662  0.118616  0.093782  0.000926  1.006277  0.002
H  H45  1  0.03470011  0.40856081  0.16376966  1  0.089528  0.00107  0.938813  0.003  0.09511  0.000687  1.004564  0.002  0.096658  0.00044  1.002553  0.001  0.115325  0.002662  0.118608  0.093762  0.000926  1.006272  0.002
H  H46  1  0.46529604  0.90856067  0.16376781  1  0.089548  0.001071  0.938794  0.003  0.095162  0.000686  1.004497  0.002  0.096712  0.00044  1.002483  0.001  0.115345  0.002662  0.118623  0.093812  0.000926  1.006207  0.002
H  H47  1  0.96530013  0.59143327  0.83622891  1  0.089567  0.001071  0.938843  0.003  0.095165  0.000687  1.004565  0.002  0.096713  0.00044  1.002554  0.001  0.115258  0.002662  0.118623  0.093824  0.000926  1.006268  0.002
C  C48  1  0.66430988  0.38463512  0.90360136  1  0.122849  -0.01895  3.698535  -0.012  0.096093  -0.004701  3.957528  -0.003  0.105489  -0.005761  3.976131  -0.004  0.441802  -0.003533  0.046608  0.089478  -0.004368  3.944544  -0.002
C  C49  1  0.16431770  0.11536569  0.09640132  1  0.122933  -0.018945  3.698619  -0.012  0.096172  -0.004701  3.957589  -0.003  0.105552  -0.00576  3.97619  -0.004  0.441761  -0.003533  0.046639  0.089556  -0.004368  3.944608  -0.002
C  C50  1  0.33567712  0.61536461  0.09639830  1  0.123056  -0.018951  3.698478  -0.012  0.096241  -0.004701  3.957489  -0.003  0.105624  -0.005761  3.976086  -0.004  0.441541  -0.003533  0.0467  0.089626  -0.004368  3.944503  -0.002
C  C51  1  0.83568518  0.88463216  0.90359938  1  0.122872  -0.018952  3.698575  -0.012  0.096164  -0.004701  3.957534  -0.003  0.105551  -0.005761  3.97613  -0.004  0.4424  -0.003534  0.046626  0.089547  -0.004368  3.944557  -0.002
C  C52  1  0.67875612  0.42545562  0.02842795  1  -0.132157  0.011562  3.745564  0.015  -0.142942  0.003437  3.994403  0.005  -0.151233  0.003195  4.01651  0.004  -0.04756  0.007027  -0.084167  -0.137627  0.003922  3.980358  0.006
C  C53  1  0.17876129  0.07454424  0.97157524  1  -0.132058  0.011557  3.745484  0.015  -0.142828  0.003437  3.994307  0.005  -0.151121  0.003196  4.016421  0.004  -0.047583  0.007026  -0.084097  -0.137515  0.003921  3.980266  0.006
C  C54  1  0.32123353  0.57454411  0.97157002  1  -0.132214  0.011556  3.745562  0.015  -0.142979  0.003436  3.994432  0.005  -0.151274  0.003196  4.016547  0.004  -0.047906  0.007027  -0.084159  -0.137662  0.003922  3.980392  0.006
C  C55  1  0.82124027  0.92545266  0.02842598  1  -0.132171  0.011563  3.745758  0.015  -0.142972  0.003436  3.994573  0.005  -0.151265  0.003195  4.016685  0.004  -0.047957  0.007027  -0.084136  -0.137667  0.003921  3.980526  0.006
C  C56  1  0.63875950  0.34207149  0.08710268  1  0.013716  -0.021896  3.688101  -0.013  -0.006093  -0.00668  3.935631  -0.004  -0.001049  -0.006658  3.952417  -0.004  -0.050669  -0.006675  -0.06321  -0.010073  -0.00755  3.925656  -0.004
C  C57  1  0.13876467  0.15792556  0.91289872  1  0.013724  -0.021886  3.688008  -0.013  -0.006098  -0.00668  3.935593  -0.004  -0.001052  -0.00666  3.95237  -0.004  -0.050607  -0.006675  -0.063217  -0.010085  -0.007549  3.925615  -0.004
C  C58  1  0.36123280  0.65792636  0.91289549  1  0.01387  -0.021885  3.687908  -0.013  -0.005969  -0.006679  3.935512  -0.004  -0.000924  -0.006659  3.952295  -0.004  -0.050262  -0.006674  -0.063132  -0.009955  -0.007549  3.925536  -0.004
C  C59  1  0.86123556  0.84207135  0.08710166  1  0.013753  -0.021892  3.688062  -0.013  -0.00603  -0.006679  3.935581  -0.004  -0.000984  -0.00666  3.952359  -0.004  -0.050649  -0.006675  -0.063174  -0.010014  -0.007549  3.925608  -0.004
C  C60  1  0.58707877  0.21989893  0.01820746  1  -0.124281  0.011342  3.732207  0.015  -0.137188  0.003249  3.981017  0.005  -0.14551  0.00305  4.003935  0.004  -0.003042  0.006678  -0.084764  -0.131785  0.003696  3.966282  0.005
C  C61  1  0.08708395  0.28009999  0.98179289  1  -0.124245  0.011341  3.732081  0.015  -0.13713  0.003248  3.980899  0.005  -0.145451  0.00305  4.003816  0.004  -0.003025  0.006678  -0.084735  -0.131726  0.003696  3.966163  0.005
C  C62  1  0.41291617  0.78009986  0.98178935  1  -0.12437  0.011345  3.732134  0.015  -0.137252  0.003248  3.980948  0.005  -0.145574  0.00305  4.003863  0.004  -0.003235  0.006678  -0.084806  -0.131849  0.003696  3.966215  0.005
C  C63  1  0.91291497  0.71989503  0.01820685  1  -0.124272  0.011343  3.732076  0.015  -0.137213  0.003248  3.980902  0.005  -0.145534  0.00305  4.003818  0.004  -0.003185  0.006678  -0.084806  -0.131811  0.003696  3.96617  0.005
C  C64  1  0.57638908  0.18544010  0.89366806  1  0.12238  -0.020408  3.699315  -0.013  0.098314  -0.005715  3.95373  -0.004  0.107108  -0.006665  3.973441  -0.004  0.444195  -0.004368  0.046845  0.09208  -0.005484  3.94005  -0.003
C  C65  1  0.07639691  0.31455977  0.10633429  1  0.122442  -0.020395  3.699224  -0.013  0.09838  -0.005714  3.953632  -0.004  0.107172  -0.006666  3.973352  -0.004  0.444095  -0.004369  0.046876  0.092147  -0.005484  3.939954  -0.003
C  C66  1  0.42360189  0.81456151  0.10632802  1  0.122475  -0.020401  3.699081  -0.013  0.098411  -0.005713  3.953456  -0.004  0.107205  -0.006665  3.973165  -0.004  0.444213  -0.004366  0.04691  0.09218  -0.005482  3.939773  -0.003
C  C67  1  0.92360466  0.68543620  0.89366745  1  0.122361  -0.020403  3.699169  -0.013  0.098296  -0.005713  3.953612  -0.004  0.107088  -0.006666  3.973327  -0.004  0.444201  -0.004366  0.046857  0.092056  -0.005482  3.93994  -0.003
S  S68  1  0.51163921  0.20427946  0.37765886  1  1.565389  0.000178  5.774421  0.001  1.443241  0.002783  6.312657  0.004  1.50081  0.002011  6.277625  0.003  3.80319  0.004263  0.581585  1.402423  0.00359  6.334506  0.004
S  S69  1  0.01164041  0.29572228  0.62234161  1  1.565508  0.000176  5.774509  0.001  1.443333  0.002783  6.312753  0.004  1.500895  0.002012  6.277734  0.003  3.803162  0.004263  0.581572  1.402514  0.003591  6.3346  0.004
S  S70  1  0.48836236  0.79572309  0.62234344  1  1.565292  0.000173  5.774071  0.001  1.443183  0.002783  6.312292  0.004  1.500751  0.00201  6.277264  0.003  3.802535  0.004263  0.581613  1.402363  0.003591  6.334139  0.004
S  S71  1  0.98835850  0.70428215  0.37765881  1  1.565361  0.000176  5.774055  0.001  1.44322  0.002781  6.3123  0.004  1.500795  0.002009  6.277272  0.003  3.803141  0.004265  0.581589  1.402399  0.003592  6.334148  0.004
N  N72  1  0.61327268  0.26674227  0.83751158  1  -0.302822  0.074822  3.333313  0.119  -0.268572  0.042078  3.628965  0.069  -0.299587  0.032296  3.651587  0.056  -1.208082  0.089299  -0.334385  -0.245151  0.049957  3.612497  0.078
N  N73  1  0.11328183  0.23325760  0.16249162  1  -0.303125  0.074817  3.333526  0.119  -0.268788  0.042077  3.629076  0.069  -0.299812  0.032295  3.651711  0.056  -1.208009  0.089302  -0.334488  -0.245371  0.049958  3.612615  0.078
N  N74  1  0.38671565  0.73325840  0.16248671  1  -0.303115  0.07482  3.333315  0.119  -0.268793  0.042077  3.628899  0.069  -0.299814  0.032296  3.651532  0.056  -1.207836  0.089295  -0.334491  -0.245371  0.049955  3.612434  0.078
N  N75  1  0.88671974  0.76673931  0.83750960  1  -0.302994  0.074821  3.333321  0.119  -0.268701  0.042076  3.628892  0.069  -0.299712  0.032295  3.651521  0.056  -1.208077  0.089299  -0.334406  -0.245282  0.049956  3.612432  0.078
O  O76  1  0.58059054  0.14270799  0.46220891  1  -0.762092  0.025781  2.10933  0.044  -0.711966  0.018592  2.384931  0.031  -0.741351  0.01386  2.367005  0.024  -1.330733  0.043196  -0.353875  -0.688196  0.023461  2.396331  0.037
O  O77  1  0.08058645  0.35728811  0.53778879  1  -0.762129  0.025782  2.109318  0.044  -0.711998  0.018591  2.384915  0.031  -0.741397  0.01386  2.366998  0.024  -1.330741  0.043196  -0.353858  -0.688223  0.023461  2.396312  0.037
O  O78  1  0.41941235  0.85730021  0.53779278  1  -0.761984  0.025786  2.109284  0.044  -0.711847  0.018593  2.384828  0.031  -0.741238  0.01386  2.366915  0.024  -1.330288  0.043196  -0.353839  -0.688076  0.023461  2.396227  0.037
O  O79  1  0.91940849  0.64270691  0.46221011  1  -0.76202  0.025785  2.109352  0.044  -0.711892  0.018593  2.38493  0.031  -0.741283  0.013862  2.367017  0.024  -1.330677  0.043198  -0.353834  -0.688119  0.023462  2.396329  0.037
O  O80  1  0.31846213  0.17514226  0.35761185  1  -0.731086  0.024025  2.058687  0.04  -0.684761  0.017904  2.338004  0.029  -0.713392  0.013348  2.320113  0.022  -1.32188  0.041344  -0.339453  -0.661529  0.022534  2.34953  0.035
O  O81  1  0.81846622  0.32486137  0.64239348  1  -0.731112  0.024023  2.058652  0.04  -0.684732  0.017902  2.33793  0.029  -0.713355  0.013348  2.320038  0.022  -1.32185  0.041339  -0.339452  -0.661504  0.02253  2.349461  0.035
O  O82  1  0.68154341  0.82486311  0.64238805  1  -0.731086  0.024026  2.058666  0.04  -0.684768  0.017904  2.33797  0.029  -0.713386  0.013349  2.320078  0.022  -1.32188  0.041345  -0.339509  -0.661533  0.022534  2.349497  0.035
O  O83  1  0.18153799  0.67513836  0.35761208  1  -0.731039  0.024025  2.058558  0.04  -0.684729  0.017903  2.337886  0.029  -0.713358  0.013348  2.32  0.022  -1.321856  0.041341  -0.339465  -0.661494  0.022531  2.349413  0.035
O  O84  1  0.61156720  0.15415128  0.26378830  1  -0.69532  0.006057  1.921271  0.01  -0.634893  0.004009  2.154682  0.006  -0.656701  0.002603  2.138703  0.004  -1.349149  0.010768  -0.340341  -0.618864  0.005649  2.16522  0.009
O  O85  1  0.11156575  0.34584764  0.73621374  1  -0.695374  0.006057  1.921258  0.01  -0.634928  0.00401  2.154648  0.006  -0.65673  0.002602  2.138674  0.004  -1.349172  0.010769  -0.340355  -0.6189  0.005649  2.165186  0.009
O  O86  1  0.38843172  0.84585504  0.73621528  1  -0.695285  0.006055  1.921113  0.009  -0.634899  0.004009  2.154555  0.006  -0.656702  0.002603  2.138576  0.004  -1.349102  0.010767  -0.340361  -0.618872  0.005648  2.165094  0.009
O  O87  1  0.88843448  0.65415585  0.26378299  1  -0.695335  0.006055  1.921269  0.009  -0.634902  0.004009  2.154651  0.006  -0.656722  0.002602  2.138697  0.004  -1.349194  0.010768  -0.340322  -0.618874  0.005648  2.165189  0.009
O  O88  1  0.53658843  0.34415251  0.43560788  1  -0.739819  0.000107  1.973784  0.001  -0.667717  -2.8e-05  2.201577  0.001  -0.691887  -0.000433  2.184335  0.0  -1.345086  0.002024  -0.339206  -0.650307  0.000581  2.212922  0.002
O  O89  1  0.03658037  0.15584924  0.56439512  1  -0.739827  0.000107  1.973919  0.001  -0.667722  -2.7e-05  2.201723  0.001  -0.691885  -0.000432  2.184479  0.0  -1.345012  0.002024  -0.339183  -0.650312  0.000581  2.213068  0.002
O  O90  1  0.46341445  0.65584157  0.56438732  1  -0.739841  0.000107  1.97364  0.001  -0.667725  -2.7e-05  2.201406  0.001  -0.691903  -0.000433  2.184183  0.0  -1.344955  0.002025  -0.339183  -0.650309  0.000581  2.212742  0.002
O  O91  1  0.96341590  0.84416461  0.43561693  1  -0.73985  0.000106  1.973529  0.001  -0.667765  -2.7e-05  2.20133  0.001  -0.691927  -0.000432  2.184072  0.0  -1.345104  0.002026  -0.339222  -0.650347  0.000582  2.212666  0.002
O  O92  1  0.36306407  0.10359579  0.65116927  1  -0.801868  0.042724  1.942912  0.073  -0.778995  0.028753  2.162685  0.05  -0.806894  0.021012  2.129708  0.039  -1.258972  0.067108  -0.570592  -0.755388  0.036013  2.186354  0.059
O  O93  1  0.86306551  0.39640407  0.34883562  1  -0.801802  0.042719  1.942957  0.073  -0.778935  0.028751  2.162744  0.05  -0.8068  0.02101  2.129684  0.039  -1.258939  0.067105  -0.570588  -0.755333  0.036012  2.186412  0.059
O  O94  1  0.63694544  0.89640676  0.34883135  1  -0.80193  0.042723  1.942742  0.073  -0.779042  0.028752  2.16252  0.05  -0.806942  0.02101  2.129537  0.039  -1.258906  0.067105  -0.570565  -0.755434  0.036011  2.186195  0.059
O  O95  1  0.13694532  0.60359377  0.65116424  1  -0.801781  0.042717  1.94295  0.073  -0.778887  0.02875  2.162736  0.05  -0.806752  0.021009  2.129707  0.039  -1.258912  0.067104  -0.570532  -0.755283  0.036011  2.186411  0.059
O  O96  1  0.44965808  0.37260921  0.67176882  1  -0.791754  0.04244  1.937868  0.071  -0.764227  0.029033  2.160031  0.049  -0.791722  0.021667  2.127944  0.039  -1.24045  0.065772  -0.567963  -0.741429  0.035784  2.180596  0.057
O  O97  1  0.94965688  0.12739536  0.32823261  1  -0.791727  0.04244  1.937876  0.071  -0.764198  0.029034  2.160046  0.049  -0.7917  0.021667  2.127966  0.039  -1.240442  0.065777  -0.567894  -0.741402  0.035787  2.180611  0.057
O  O98  1  0.55034348  0.62738958  0.32823052  1  -0.79172  0.04244  1.937895  0.071  -0.764195  0.029033  2.160069  0.049  -0.791693  0.021665  2.127989  0.039  -1.240496  0.065771  -0.567915  -0.741397  0.035783  2.180637  0.057
O  O99  1  0.05034336  0.87261002  0.67176897  1  -0.79175  0.042443  1.937868  0.071  -0.764229  0.029035  2.160058  0.049  -0.79172  0.021667  2.127962  0.039  -1.240429  0.065777  -0.567947  -0.741431  0.035787  2.180624  0.057
O  O100  1  0.75374945  0.05951304  0.63969679  1  -0.840656  0.027903  1.94605  0.048  -0.807424  0.022041  2.157175  0.037  -0.831643  0.017129  2.121286  0.03  -1.283723  0.048156  -0.588614  -0.787524  0.026367  2.18339  0.042
O  O101  1  0.25374800  0.44048965  0.36031074  1  -0.840639  0.027902  1.946042  0.048  -0.807458  0.02204  2.157137  0.037  -0.831678  0.017127  2.121234  0.03  -1.283735  0.048155  -0.58867  -0.787555  0.026367  2.183339  0.042
O  O102  1  0.24625344  0.94049234  0.36031321  1  -0.840582  0.027902  1.946065  0.048  -0.807459  0.02204  2.157082  0.037  -0.831677  0.017128  2.121184  0.03  -1.284135  0.048153  -0.588647  -0.787562  0.026365  2.183311  0.042
O  O103  1  0.74625356  0.55950820  0.63968406  1  -0.840615  0.0279  1.946017  0.048  -0.807426  0.02204  2.157118  0.037  -0.831636  0.017128  2.121231  0.03  -1.283764  0.048154  -0.588621  -0.787528  0.026365  2.183335  0.042
