# generated using pymatgen
data_CdH12C14(N5O3)2
_symmetry_space_group_name_H-M   'P 1'
_cell_length_a   8.91264680
_cell_length_b   8.42331088
_cell_length_c   11.92398836
_cell_angle_alpha   89.99570393
_cell_angle_beta   105.40132208
_cell_angle_gamma   89.99379714
_symmetry_Int_Tables_number   1
_chemical_formula_structural   CdH12C14(N5O3)2
_chemical_formula_sum   'Cd2 H24 C28 N20 O12'
_cell_volume   863.03481636
_cell_formula_units_Z   2
loop_
 _symmetry_equiv_pos_site_id
 _symmetry_equiv_pos_as_xyz
  1  'x, y, z'
loop_
 _atom_site_type_symbol
 _atom_site_label
 _atom_site_symmetry_multiplicity
 _atom_site_fract_x
 _atom_site_fract_y
 _atom_site_fract_z
 _atom_site_occupancy
 _atom_site_hle17_bader_spin_density
 _atom_site_hle17_ddec_charge
 _atom_site_hle17_ddec_spin_density
 _atom_site_hle17_ddec_sum_bond_order
 _atom_site_hle17_magmom
 _atom_site_hse06_10hf_bader_spin_density
 _atom_site_hse06_10hf_ddec_charge
 _atom_site_hse06_10hf_ddec_spin_density
 _atom_site_hse06_10hf_ddec_sum_bond_order
 _atom_site_hse06_10hf_magmom
 _atom_site_hse06_bader_spin_density
 _atom_site_hse06_ddec_charge
 _atom_site_hse06_ddec_spin_density
 _atom_site_hse06_ddec_sum_bond_order
 _atom_site_hse06_magmom
 _atom_site_pbe_bader_spin_density
 _atom_site_pbe_cm5_charge
 _atom_site_pbe_ddec_charge
 _atom_site_pbe_ddec_spin_density
 _atom_site_pbe_ddec_sum_bond_order
 _atom_site_pbe_magmom
Cd  Cd0  1  0.00000306  0.50000292  0.00000696  1  0  1.107676  0  1.676667  0  0  0.895277  0  2.137597  0  0  0.945603  0  2.092122  0  0  0.829434  0.858967  0  2.169014  0
Cd  Cd1  1  0.50000244  0.99999393  0.99999697  1  0  1.10768  0  1.676553  0  0  0.895228  0  2.137538  0  0  0.945558  0  2.092048  0  0  0.82953  0.858911  0  2.168971  0
H  H2  1  0.06234724  0.08471091  0.77722215  1  0  0.113963  0  0.942275  0  0  0.122507  0  1.004808  0  0  0.126062  0  1.002576  0  0  0.110633  0.119854  0  1.006653  0
H  H3  1  0.43769857  0.58471228  0.22271439  1  0  0.114051  0  0.942024  0  0  0.122488  0  1.00464  0  0  0.126041  0  1.002427  0  0  0.11059  0.119836  0  1.006481  0
H  H4  1  0.93764808  0.91529237  0.22277221  1  0  0.113972  0  0.942277  0  0  0.122527  0  1.004776  0  0  0.126083  0  1.002544  0  0  0.11067  0.119872  0  1.006615  0
H  H5  1  0.56229171  0.41528626  0.77727069  1  0  0.114059  0  0.941973  0  0  0.122511  0  1.004582  0  0  0.126067  0  1.002369  0  0  0.110609  0.119857  0  1.006421  0
H  H6  1  0.17090449  0.05488904  0.60603056  1  0  0.113857  0  0.966387  0  0  0.115974  0  1.037304  0  0  0.119649  0  1.03476  0  0  0.109764  0.113373  0  1.039174  0
H  H7  1  0.32914519  0.55496969  0.39390755  1  0  0.113755  0  0.966783  0  0  0.116034  0  1.037543  0  0  0.119648  0  1.035073  0  0  0.109756  0.113429  0  1.039425  0
H  H8  1  0.82907738  0.94511899  0.39394719  1  0  0.113757  0  0.966578  0  0  0.115903  0  1.037448  0  0  0.119568  0  1.034894  0  0  0.109757  0.113309  0  1.03931  0
H  H9  1  0.67085940  0.44505972  0.60608758  1  0  0.113717  0  0.966798  0  0  0.11596  0  1.037612  0  0  0.119577  0  1.035113  0  0  0.109718  0.113351  0  1.039502  0
H  H10  1  0.04132852  0.56054102  0.57978126  1  0  0.126299  0  0.966963  0  0  0.12954  0  1.037088  0  0  0.133486  0  1.032718  0  0  0.114588  0.126675  0  1.040514  0
H  H11  1  0.45858483  0.06057814  0.42021997  1  0  0.126377  0  0.966795  0  0  0.129758  0  1.036749  0  0  0.133792  0  1.032263  0  0  0.114715  0.126874  0  1.040201  0
H  H12  1  0.95867168  0.43944090  0.42021899  1  0  0.126375  0  0.967027  0  0  0.129703  0  1.037006  0  0  0.13365  0  1.032622  0  0  0.114674  0.126852  0  1.040416  0
H  H13  1  0.54142401  0.93943583  0.57979270  1  0  0.126435  0  0.966772  0  0  0.129734  0  1.036781  0  0  0.133754  0  1.03233  0  0  0.114751  0.12685  0  1.040224  0
H  H14  1  0.93016927  0.59078794  0.74771038  1  0  0.10463  0  0.962542  0  0  0.118456  0  1.021002  0  0  0.120731  0  1.020584  0  0  0.108442  0.116648  0  1.021876  0
H  H15  1  0.56973391  0.09072525  0.25229215  1  0  0.104741  0  0.962632  0  0  0.118465  0  1.021174  0  0  0.12073  0  1.020791  0  0  0.108553  0.116667  0  1.022022  0
H  H16  1  0.06985485  0.40919991  0.25230831  1  0  0.104662  0  0.962711  0  0  0.118464  0  1.021154  0  0  0.12074  0  1.020749  0  0  0.108459  0.116657  0  1.022027  0
H  H17  1  0.43024203  0.90928160  0.74770721  1  0  0.104773  0  0.962583  0  0  0.118484  0  1.021148  0  0  0.120748  0  1.020761  0  0  0.108524  0.116683  0  1.022007  0
H  H18  1  0.84358929  0.22209051  0.85230834  1  0  0.407584  0  0.89537  0  0  0.362799  0  0.98607  0  0  0.374317  0  0.968965  0  0  0.285075  0.354523  0  0.998332  0
H  H19  1  0.65645257  0.72202488  0.14771162  1  0  0.407479  0  0.895899  0  0  0.362687  0  0.986326  0  0  0.374213  0  0.969207  0  0  0.284948  0.354409  0  0.998569  0
H  H20  1  0.15641910  0.77791397  0.14769417  1  0  0.407594  0  0.895424  0  0  0.362802  0  0.986094  0  0  0.374323  0  0.968984  0  0  0.28508  0.354527  0  0.998332  0
H  H21  1  0.34354535  0.27796060  0.85228907  1  0  0.407564  0  0.895743  0  0  0.362763  0  0.986225  0  0  0.374289  0  0.969109  0  0  0.284964  0.354489  0  0.998467  0
H  H22  1  0.89447861  0.31191247  0.75239002  1  0  0.412783  0  0.881815  0  0  0.380674  0  0.950547  0  0  0.391311  0  0.934605  0  0  0.289823  0.373186  0  0.961764  0
H  H23  1  0.60560249  0.81186623  0.24762822  1  0  0.412757  0  0.881945  0  0  0.380722  0  0.950502  0  0  0.391377  0  0.93455  0  0  0.289819  0.373231  0  0.961723  0
H  H24  1  0.10552257  0.68808725  0.24760621  1  0  0.41281  0  0.881794  0  0  0.380666  0  0.95058  0  0  0.391306  0  0.934634  0  0  0.28984  0.373182  0  0.961802  0
H  H25  1  0.39440233  0.18813705  0.75237200  1  0  0.412777  0  0.88203  0  0  0.38073  0  0.950516  0  0  0.391386  0  0.934591  0  0  0.289848  0.373243  0  0.96173  0
C  C26  1  0.89585148  0.85597218  0.85788615  1  0  0.269514  0  3.774022  0  0  0.243891  0  4.0462  0  0  0.25303  0  4.063795  0  0  0.215507  0.237979  0  4.033892  0
C  C27  1  0.60412746  0.35592034  0.14208985  1  0  0.269369  0  3.774452  0  0  0.243554  0  4.046895  0  0  0.25269  0  4.064501  0  0  0.215623  0.237639  0  4.034582  0
C  C28  1  0.10414896  0.14402042  0.14211917  1  0  0.269026  0  3.774226  0  0  0.243535  0  4.046259  0  0  0.252672  0  4.063862  0  0  0.215432  0.237622  0  4.033944  0
C  C29  1  0.39586767  0.64406752  0.85790028  1  0  0.269222  0  3.774269  0  0  0.24345  0  4.046619  0  0  0.252586  0  4.064227  0  0  0.215521  0.237541  0  4.034298  0
C  C30  1  0.98189961  0.84124712  0.77001364  1  0  0.050913  0  3.736027  0  0  0.060787  0  3.977976  0  0  0.062683  0  3.998406  0  0  0.014048  0.059884  0  3.963856  0
C  C31  1  0.51808556  0.34121161  0.22998193  1  0  0.051145  0  3.736102  0  0  0.061045  0  3.978054  0  0  0.062945  0  3.998566  0  0  0.014219  0.060137  0  3.96393  0
C  C32  1  0.01809792  0.15875736  0.23000376  1  0  0.051101  0  3.73578  0  0  0.060906  0  3.977721  0  0  0.062804  0  3.998169  0  0  0.014068  0.060003  0  3.9636  0
C  C33  1  0.48192151  0.65880118  0.77001700  1  0  0.051145  0  3.736364  0  0  0.061107  0  3.978206  0  0  0.063006  0  3.998662  0  0  0.014211  0.060196  0  3.964086  0
C  C34  1  0.05432951  0.97131753  0.73227123  1  0  -0.063778  0  3.664306  0  0  -0.089914  0  3.921904  0  0  -0.093276  0  3.941017  0  0  -0.077418  -0.087859  0  3.909117  0
C  C35  1  0.44566084  0.47131944  0.26768179  1  0  -0.063669  0  3.664438  0  0  -0.089623  0  3.922043  0  0  -0.092974  0  3.941223  0  0  -0.077249  -0.087574  0  3.909258  0
C  C36  1  0.94567337  0.02867388  0.26773704  1  0  -0.063798  0  3.664407  0  0  -0.089939  0  3.922043  0  0  -0.093305  0  3.941157  0  0  -0.077494  -0.087883  0  3.909249  0
C  C37  1  0.55431692  0.52868266  0.73230699  1  0  -0.063787  0  3.664523  0  0  -0.089806  0  3.922131  0  0  -0.093145  0  3.941219  0  0  -0.077288  -0.08775  0  3.909341  0
C  C38  1  0.11628638  0.95521350  0.63762265  1  0  -0.095689  0  3.720683  0  0  -0.122372  0  3.98724  0  0  -0.122552  0  4.007695  0  0  -0.081217  -0.121507  0  3.973221  0
C  C39  1  0.38374612  0.45527934  0.36234957  1  0  -0.096074  0  3.721715  0  0  -0.122989  0  3.98854  0  0  -0.122861  0  4.007991  0  0  -0.081542  -0.122115  0  3.974506  0
C  C40  1  0.88371131  0.04477554  0.36237296  1  0  -0.095585  0  3.721082  0  0  -0.122351  0  3.9877  0  0  -0.122533  0  4.00813  0  0  -0.08121  -0.121489  0  3.973674  0
C  C41  1  0.61625889  0.54474175  0.63765487  1  0  -0.095897  0  3.721673  0  0  -0.122778  0  3.988347  0  0  -0.122866  0  4.008703  0  0  -0.081461  -0.121914  0  3.974328  0
C  C42  1  0.10380862  0.80885901  0.58038991  1  0  0.0703  0  3.722744  0  0  0.052867  0  3.97783  0  0  0.048007  0  4.002112  0  0  0.075022  0.055688  0  3.961782  0
C  C43  1  0.39615670  0.30890572  0.41957238  1  0  0.070365  0  3.722871  0  0  0.052776  0  3.97831  0  0  0.052925  0  4.005487  0  0  0.075105  0.055604  0  3.962262  0
C  C44  1  0.89618279  0.19113004  0.41959454  1  0  0.070342  0  3.722952  0  0  0.052944  0  3.977886  0  0  0.048088  0  4.002177  0  0  0.074996  0.055759  0  3.961851  0
C  C45  1  0.60384284  0.69110826  0.58043865  1  0  0.070411  0  3.722753  0  0  0.052883  0  3.977853  0  0  0.048024  0  4.002148  0  0  0.075056  0.055707  0  3.961807  0
C  C46  1  0.04282425  0.67509471  0.62148672  1  0  -0.069466  0  3.692644  0  0  -0.100871  0  3.959478  0  0  -0.098781  0  3.976958  0  0  -0.076687  -0.102705  0  3.948578  0
C  C47  1  0.45710394  0.17512319  0.37850204  1  0  -0.069233  0  3.69311  0  0  -0.100733  0  3.959963  0  0  -0.098478  0  3.976452  0  0  -0.076589  -0.102537  0  3.949055  0
C  C48  1  0.95718344  0.32489077  0.37852574  1  0  -0.0695  0  3.693324  0  0  -0.100995  0  3.960073  0  0  -0.098903  0  3.977555  0  0  -0.076733  -0.102844  0  3.949173  0
C  C49  1  0.54288145  0.82489553  0.62150233  1  0  -0.069357  0  3.693118  0  0  -0.100859  0  3.960046  0  0  -0.098817  0  3.977476  0  0  -0.07664  -0.102655  0  3.949134  0
C  C50  1  0.98307775  0.69233326  0.71679902  1  0  -0.081727  0  3.68838  0  0  -0.105357  0  3.939471  0  0  -0.109816  0  3.961375  0  0  -0.081224  -0.102802  0  3.925447  0
C  C51  1  0.51685015  0.19229246  0.28319438  1  0  -0.082069  0  3.688973  0  0  -0.105573  0  3.940128  0  0  -0.110031  0  3.962112  0  0  -0.081529  -0.103006  0  3.926098  0
C  C52  1  0.01693264  0.30766765  0.28322231  1  0  -0.081818  0  3.68896  0  0  -0.105399  0  3.940051  0  0  -0.109853  0  3.961977  0  0  -0.081272  -0.102849  0  3.926031  0
C  C53  1  0.48312455  0.80772151  0.71680309  1  0  -0.081964  0  3.689085  0  0  -0.105498  0  3.940185  0  0  -0.109957  0  3.962109  0  0  -0.081472  -0.10293  0  3.926163  0
N  N54  1  0.87450394  0.73348722  0.92585103  1  0  -0.342695  0  3.183006  0  0  -0.277553  0  3.47235  0  0  -0.297192  0  3.490995  0  0  -0.231226  -0.263862  0  3.45953  0
N  N55  1  0.62549713  0.23346242  0.07411583  1  0  -0.342723  0  3.183509  0  0  -0.277518  0  3.47288  0  0  -0.297157  0  3.491531  0  0  -0.231303  -0.263831  0  3.460065  0
N  N56  1  0.12551271  0.26650419  0.07415544  1  0  -0.342578  0  3.18314  0  0  -0.277471  0  3.472422  0  0  -0.297119  0  3.49109  0  0  -0.231152  -0.263779  0  3.459604  0
N  N57  1  0.37448735  0.76653375  0.92586825  1  0  -0.342523  0  3.183317  0  0  -0.277334  0  3.472653  0  0  -0.296973  0  3.491302  0  0  -0.231186  -0.263644  0  3.459836  0
N  N58  1  0.77368658  0.78376723  0.98286005  1  0  -0.06022  0  2.997921  0  0  -0.055896  0  3.283737  0  0  -0.054289  0  3.300266  0  0  -0.093438  -0.05665  0  3.272097  0
N  N59  1  0.72631021  0.28374501  0.01710314  1  0  -0.059943  0  2.997691  0  0  -0.055565  0  3.283465  0  0  -0.053958  0  3.299992  0  0  -0.093354  -0.056321  0  3.271833  0
N  N60  1  0.22631909  0.21622418  0.01713360  1  0  -0.060021  0  2.997801  0  0  -0.055663  0  3.283604  0  0  -0.054056  0  3.300129  0  0  -0.093358  -0.05642  0  3.271975  0
N  N61  1  0.27369825  0.71624879  0.98290107  1  0  -0.060058  0  2.997844  0  0  -0.055686  0  3.283628  0  0  -0.054079  0  3.300154  0  0  -0.093389  -0.056443  0  3.272002  0
N  N62  1  0.73441144  0.93117519  0.95004846  1  0  -0.134986  0  3.163778  0  0  -0.082947  0  3.464944  0  0  -0.09338  0  3.482318  0  0  -0.110983  -0.074819  0  3.452066  0
N  N63  1  0.76558097  0.43113562  0.04992720  1  0  -0.135376  0  3.163708  0  0  -0.083417  0  3.464987  0  0  -0.09385  0  3.48236  0  0  -0.111012  -0.075293  0  3.452111  0
N  N64  1  0.26560125  0.06881979  0.04994726  1  0  -0.135207  0  3.163546  0  0  -0.083212  0  3.464783  0  0  -0.093644  0  3.482153  0  0  -0.111064  -0.075091  0  3.451922  0
N  N65  1  0.23442532  0.56885817  0.95007998  1  0  -0.135544  0  3.163945  0  0  -0.083605  0  3.465265  0  0  -0.094038  0  3.482635  0  0  -0.11113  -0.075482  0  3.452397  0
N  N66  1  0.80973553  0.98180811  0.87270476  1  0  -0.279478  0  2.93065  0  0  -0.255064  0  3.203562  0  0  -0.264644  0  3.217538  0  0  -0.202734  -0.248182  0  3.193552  0
N  N67  1  0.69024703  0.48174317  0.12727210  1  0  -0.279379  0  2.930597  0  0  -0.254826  0  3.20343  0  0  -0.26441  0  3.217417  0  0  -0.20285  -0.247936  0  3.193386  0
N  N68  1  0.19028442  0.01819161  0.12729810  1  0  -0.279247  0  2.930495  0  0  -0.254851  0  3.203345  0  0  -0.264432  0  3.217325  0  0  -0.202736  -0.24797  0  3.193316  0
N  N69  1  0.30973306  0.51825537  0.87271708  1  0  -0.279163  0  2.930438  0  0  -0.25463  0  3.20327  0  0  -0.264216  0  3.217264  0  0  -0.202706  -0.247745  0  3.193231  0
N  N70  1  0.14957959  0.79702805  0.47266269  1  0  0.463216  0  3.941492  0  0  0.521308  0  4.193456  0  0  0.54322  0  4.201505  0  0  0.050033  0.506561  0  4.187912  0
N  N71  1  0.35042159  0.29715212  0.52731914  1  0  0.464059  0  3.940027  0  0  0.522273  0  4.191808  0  0  0.52648  0  4.227005  0  0  0.050735  0.507525  0  4.186275  0
N  N72  1  0.85040252  0.20295387  0.52732013  1  0  0.463179  0  3.941675  0  0  0.521525  0  4.19324  0  0  0.543425  0  4.201294  0  0  0.050309  0.506782  0  4.187697  0
N  N73  1  0.64958478  0.70288085  0.47268973  1  0  0.463608  0  3.939994  0  0  0.522247  0  4.191229  0  0  0.544161  0  4.199262  0  0  0.050752  0.507503  0  4.185689  0
O  O74  1  0.23575056  0.89973928  0.44890305  1  0  -0.338468  0  1.807765  0  0  -0.331267  0  2.015447  0  0  -0.342079  0  2.013306  0  0  -0.115965  -0.323613  0  2.016945  0
O  O75  1  0.26439808  0.39995389  0.55110779  1  0  -0.338727  0  1.807698  0  0  -0.331566  0  2.015378  0  0  -0.336254  0  2.02174  0  0  -0.116315  -0.32392  0  2.016897  0
O  O76  1  0.76426004  0.10025095  0.55109734  1  0  -0.338322  0  1.808316  0  0  -0.331242  0  2.015922  0  0  -0.342055  0  2.013797  0  0  -0.115974  -0.323588  0  2.017412  0
O  O77  1  0.73561330  0.60008145  0.44888433  1  0  -0.338444  0  1.807532  0  0  -0.331503  0  2.015107  0  0  -0.342311  0  2.012934  0  0  -0.116226  -0.323855  0  2.016621  0
O  O78  1  0.09451167  0.68383328  0.40582598  1  0  -0.382649  0  1.821602  0  0  -0.354115  0  2.016319  0  0  -0.36948  0  2.011551  0  0  -0.123253  -0.344173  0  2.019947  0
O  O79  1  0.40536279  0.18388488  0.59417302  1  0  -0.383172  0  1.82061  0  0  -0.354682  0  2.015249  0  0  -0.364069  0  2.018855  0  0  -0.123663  -0.344743  0  2.018876  0
O  O80  1  0.90545294  0.31613677  0.59417811  1  0  -0.382769  0  1.821354  0  0  -0.35439  0  2.016033  0  0  -0.369727  0  2.011229  0  0  -0.123477  -0.344447  0  2.019653  0
O  O81  1  0.59464343  0.81613147  0.40583247  1  0  -0.383044  0  1.820609  0  0  -0.354755  0  2.015163  0  0  -0.37014  0  2.010416  0  0  -0.123758  -0.344822  0  2.018791  0
O  O82  1  0.88262365  0.32481023  0.83143265  1  0  -0.837722  0  1.893222  0  0  -0.781021  0  2.102731  0  0  -0.799735  0  2.068011  0  0  -0.59353  -0.767629  0  2.127179  0
O  O83  1  0.61747448  0.82477662  0.16859033  1  0  -0.837633  0  1.893821  0  0  -0.780959  0  2.102884  0  0  -0.7997  0  2.06808  0  0  -0.593388  -0.767546  0  2.127389  0
O  O84  1  0.11739389  0.67518950  0.16856811  1  0  -0.837777  0  1.893254  0  0  -0.781063  0  2.102754  0  0  -0.799778  0  2.068022  0  0  -0.59356  -0.767668  0  2.127222  0
O  O85  1  0.38253376  0.17521480  0.83140881  1  0  -0.837759  0  1.89379  0  0  -0.781099  0  2.102894  0  0  -0.799842  0  2.068094  0  0  -0.59345  -0.767695  0  2.127386  0
