# generated using pymatgen
data_KH6C6SNCl2O3
_symmetry_space_group_name_H-M   'P 1'
_cell_length_a   6.73065748
_cell_length_b   9.90527235
_cell_length_c   15.50421510
_cell_angle_alpha   90.00012368
_cell_angle_beta   100.41849056
_cell_angle_gamma   89.99984040
_symmetry_Int_Tables_number   1
_chemical_formula_structural   KH6C6SNCl2O3
_chemical_formula_sum   'K4 H24 C24 S4 N4 Cl8 O12'
_cell_volume   1016.60881843
_cell_formula_units_Z   4
loop_
 _symmetry_equiv_pos_site_id
 _symmetry_equiv_pos_as_xyz
  1  'x, y, z'
loop_
 _atom_site_type_symbol
 _atom_site_label
 _atom_site_symmetry_multiplicity
 _atom_site_fract_x
 _atom_site_fract_y
 _atom_site_fract_z
 _atom_site_occupancy
 _atom_site_hle17_bader_spin_density
 _atom_site_hle17_ddec_charge
 _atom_site_hle17_ddec_spin_density
 _atom_site_hle17_ddec_sum_bond_order
 _atom_site_hle17_magmom
 _atom_site_hse06_10hf_bader_spin_density
 _atom_site_hse06_10hf_ddec_charge
 _atom_site_hse06_10hf_ddec_spin_density
 _atom_site_hse06_10hf_ddec_sum_bond_order
 _atom_site_hse06_10hf_magmom
 _atom_site_hse06_bader_spin_density
 _atom_site_hse06_ddec_charge
 _atom_site_hse06_ddec_spin_density
 _atom_site_hse06_ddec_sum_bond_order
 _atom_site_hse06_magmom
 _atom_site_pbe_bader_spin_density
 _atom_site_pbe_cm5_charge
 _atom_site_pbe_ddec_charge
 _atom_site_pbe_ddec_spin_density
 _atom_site_pbe_ddec_sum_bond_order
 _atom_site_pbe_magmom
K  K0  1  0.88485133  0.61925214  0.56034337  1  0  0.937654  0  0.476327  0  0  0.895156  0  0.664919  0  0  0.908633  0  0.642093  0  0  0.783171  0.884718  0  0.681679  0
K  K1  1  0.61515033  0.11925080  0.43965613  1  0  0.937659  0  0.476328  0  0  0.895156  0  0.664921  0  0  0.908638  0  0.642093  0  0  0.783169  0.884708  0  0.68168  0
K  K2  1  0.11513606  0.38075342  0.43965370  1  0  0.937645  0  0.476332  0  0  0.895171  0  0.664877  0  0  0.908647  0  0.642052  0  0  0.783166  0.884726  0  0.681632  0
K  K3  1  0.38485823  0.88075577  0.56034451  1  0  0.937635  0  0.47635  0  0  0.895163  0  0.664891  0  0  0.908637  0  0.642071  0  0  0.783167  0.884731  0  0.681641  0
H  H4  1  0.47006099  0.76160437  0.77967113  1  0  0.106341  0  0.952862  0  0  0.113577  0  1.01766  0  0  0.116575  0  1.016312  0  0  0.109398  0.110903  0  1.019743  0
H  H5  1  0.02993678  0.26160143  0.22033040  1  0  0.106333  0  0.95289  0  0  0.113557  0  1.017683  0  0  0.116558  0  1.016329  0  0  0.109371  0.110882  0  1.019763  0
H  H6  1  0.52993703  0.23839716  0.22033321  1  0  0.106292  0  0.952875  0  0  0.11352  0  1.017676  0  0  0.116522  0  1.016321  0  0  0.109364  0.110843  0  1.019757  0
H  H7  1  0.97006420  0.73839706  0.77966643  1  0  0.106391  0  0.952838  0  0  0.113605  0  1.017657  0  0  0.116608  0  1.016299  0  0  0.109408  0.110931  0  1.019737  0
H  H8  1  0.38110093  0.78335171  0.92838891  1  0  0.104553  0  0.967721  0  0  0.109064  0  1.038964  0  0  0.112513  0  1.037341  0  0  0.094691  0.106134  0  1.04104  0
H  H9  1  0.11889677  0.28335214  0.07161394  1  0  0.104517  0  0.96777  0  0  0.109012  0  1.039031  0  0  0.112462  0  1.037408  0  0  0.09465  0.10609  0  1.041111  0
H  H10  1  0.61890012  0.21664376  0.07161631  1  0  0.104514  0  0.967829  0  0  0.109046  0  1.039035  0  0  0.112497  0  1.037411  0  0  0.094711  0.106121  0  1.041113  0
H  H11  1  0.88110119  0.71664636  0.92838330  1  0  0.104422  0  0.967765  0  0  0.108937  0  1.039024  0  0  0.112386  0  1.037402  0  0  0.094627  0.106015  0  1.041101  0
H  H12  1  0.18851307  0.36685751  0.91620196  1  0  0.101698  0  0.973791  0  0  0.105997  0  1.04701  0  0  0.109716  0  1.04469  0  0  0.091438  0.102927  0  1.049531  0
H  H13  1  0.31149035  0.86685941  0.08379886  1  0  0.101686  0  0.97384  0  0  0.106008  0  1.047036  0  0  0.109729  0  1.044709  0  0  0.091453  0.102937  0  1.049558  0
H  H14  1  0.81147886  0.63313795  0.08379610  1  0  0.101771  0  0.973806  0  0  0.106072  0  1.047005  0  0  0.109798  0  1.044663  0  0  0.091456  0.103002  0  1.049527  0
H  H15  1  0.68851820  0.13314010  0.91620048  1  0  0.101708  0  0.973895  0  0  0.106006  0  1.047094  0  0  0.109729  0  1.044762  0  0  0.091448  0.102936  0  1.049615  0
H  H16  1  0.27913906  0.34515157  0.76830517  1  0  0.106252  0  0.958835  0  0  0.111146  0  1.029618  0  0  0.114565  0  1.02689  0  0  0.098804  0.108398  0  1.032062  0
H  H17  1  0.22086896  0.84514908  0.23169533  1  0  0.106304  0  0.958713  0  0  0.111138  0  1.029605  0  0  0.114559  0  1.026875  0  0  0.098813  0.10839  0  1.032047  0
H  H18  1  0.72085437  0.65485097  0.23169237  1  0  0.106245  0  0.958759  0  0  0.111117  0  1.029585  0  0  0.114537  0  1.026856  0  0  0.098793  0.10837  0  1.032029  0
H  H19  1  0.77913959  0.15485042  0.76830401  1  0  0.106284  0  0.958781  0  0  0.111192  0  1.029571  0  0  0.114612  0  1.026841  0  0  0.09883  0.108445  0  1.032014  0
H  H20  1  0.25239897  0.66211351  0.41791977  1  0  0.390336  0  0.923198  0  0  0.360025  0  0.991138  0  0  0.369214  0  0.977651  0  0  0.280983  0.353549  0  1.000642  0
H  H21  1  0.24760218  0.16211543  0.58207995  1  0  0.390359  0  0.923165  0  0  0.360055  0  0.991095  0  0  0.369247  0  0.977602  0  0  0.280992  0.353576  0  1.000602  0
H  H22  1  0.74760053  0.33788700  0.58208016  1  0  0.390312  0  0.923229  0  0  0.360006  0  0.991163  0  0  0.369195  0  0.977675  0  0  0.280984  0.353528  0  1.000669  0
H  H23  1  0.75239883  0.83788913  0.41792011  1  0  0.390316  0  0.923219  0  0  0.360007  0  0.991163  0  0  0.369194  0  0.977678  0  0  0.280991  0.35353  0  1.000668  0
H  H24  1  0.06275301  0.75484710  0.40032634  1  0  0.405094  0  0.897532  0  0  0.373811  0  0.968416  0  0  0.383073  0  0.954679  0  0  0.285019  0.367208  0  0.978166  0
H  H25  1  0.43724478  0.25485074  0.59967454  1  0  0.405069  0  0.897562  0  0  0.373769  0  0.968483  0  0  0.383032  0  0.95475  0  0  0.284986  0.367164  0  0.978236  0
H  H26  1  0.93724650  0.24515341  0.59967489  1  0  0.405086  0  0.897542  0  0  0.373804  0  0.968422  0  0  0.383064  0  0.95469  0  0  0.285017  0.367201  0  0.978174  0
H  H27  1  0.56275170  0.74515482  0.40032581  1  0  0.40504  0  0.897602  0  0  0.373757  0  0.968485  0  0  0.383019  0  0.954749  0  0  0.284998  0.367153  0  0.978235  0
C  C28  1  0.37944932  0.55283581  0.76563447  1  0  -0.12783  0  3.749384  0  0  -0.106368  0  4.002901  0  0  -0.113274  0  4.024255  0  0  -0.023406  -0.102015  0  3.988456  0
C  C29  1  0.12055376  0.05283780  0.23436783  1  0  -0.127799  0  3.749271  0  0  -0.106326  0  4.002766  0  0  -0.113234  0  4.024124  0  0  -0.023392  -0.101973  0  3.98832  0
C  C30  1  0.62054565  0.44716066  0.23436641  1  0  -0.127889  0  3.749263  0  0  -0.106517  0  4.002913  0  0  -0.113424  0  4.024269  0  0  -0.023419  -0.102163  0  3.988467  0
C  C31  1  0.87945480  0.94716069  0.76563216  1  0  -0.127898  0  3.749298  0  0  -0.106429  0  4.002822  0  0  -0.113337  0  4.024183  0  0  -0.023402  -0.10208  0  3.988387  0
C  C32  1  0.40804477  0.67593495  0.80984440  1  0  -0.032054  0  3.726725  0  0  -0.056288  0  3.9784  0  0  -0.054213  0  3.997449  0  0  -0.075918  -0.057277  0  3.96538  0
C  C33  1  0.09195636  0.17593482  0.19015921  1  0  -0.03208  0  3.726814  0  0  -0.05628  0  3.978463  0  0  -0.054205  0  3.997512  0  0  -0.075877  -0.057264  0  3.965442  0
C  C34  1  0.59195475  0.32406455  0.19015748  1  0  -0.03194  0  3.726966  0  0  -0.056128  0  3.978631  0  0  -0.054054  0  3.997681  0  0  -0.075834  -0.057114  0  3.965609  0
C  C35  1  0.90804766  0.82406468  0.80984043  1  0  -0.031971  0  3.726919  0  0  -0.056194  0  3.978575  0  0  -0.05412  0  3.997624  0  0  -0.075869  -0.057177  0  3.965555  0
C  C36  1  0.35884150  0.68798629  0.89310330  1  0  -0.130672  0  3.734749  0  0  -0.15079  0  3.985265  0  0  -0.155651  0  4.006256  0  0  -0.095801  -0.147146  0  3.970658  0
C  C37  1  0.14115656  0.18798781  0.10690009  1  0  -0.130551  0  3.73474  0  0  -0.150659  0  3.98526  0  0  -0.155521  0  4.006251  0  0  -0.09575  -0.147009  0  3.970622  0
C  C38  1  0.64115655  0.31200816  0.10690427  1  0  -0.130564  0  3.734993  0  0  -0.150707  0  3.985526  0  0  -0.155569  0  4.006517  0  0  -0.095835  -0.147068  0  3.970911  0
C  C39  1  0.85884440  0.81201169  0.89309480  1  0  -0.130488  0  3.734821  0  0  -0.150611  0  3.985341  0  0  -0.155475  0  4.006338  0  0  -0.095775  -0.146957  0  3.970691  0
C  C40  1  0.28178864  0.57603999  0.93070430  1  0  0.145095  0  3.783538  0  0  0.158234  0  4.04309  0  0  0.16291  0  4.064323  0  0  0.014487  0.154949  0  4.028486  0
C  C41  1  0.21821284  0.07604123  0.06929856  1  0  0.145075  0  3.783477  0  0  0.158196  0  4.043069  0  0  0.162873  0  4.0643  0  0  0.014483  0.154905  0  4.028485  0
C  C42  1  0.71820333  0.42395144  0.06929829  1  0  0.145058  0  3.783406  0  0  0.158189  0  4.042993  0  0  0.162864  0  4.064229  0  0  0.01454  0.154908  0  4.02839  0
C  C43  1  0.78179418  0.92395524  0.93069938  1  0  0.144984  0  3.783404  0  0  0.158126  0  4.042974  0  0  0.162802  0  4.064205  0  0  0.014495  0.154837  0  4.028386  0
C  C44  1  0.24842580  0.45322858  0.88578418  1  0  -0.136185  0  3.752036  0  0  -0.159404  0  4.006386  0  0  -0.1638  0  4.026112  0  0  -0.10371  -0.15628  0  3.993097  0
C  C45  1  0.25157879  0.95322968  0.11421491  1  0  -0.136103  0  3.751994  0  0  -0.159324  0  4.006325  0  0  -0.163718  0  4.026052  0  0  -0.103662  -0.156201  0  3.993044  0
C  C46  1  0.75156765  0.54676790  0.11421529  1  0  -0.136408  0  3.752156  0  0  -0.15962  0  4.006501  0  0  -0.164015  0  4.02623  0  0  -0.103792  -0.156501  0  3.993218  0
C  C47  1  0.74842975  0.04677286  0.88578379  1  0  -0.136153  0  3.752052  0  0  -0.159344  0  4.006363  0  0  -0.163738  0  4.02609  0  0  -0.103702  -0.15622  0  3.993081  0
C  C48  1  0.29852659  0.44146799  0.80280078  1  0  -0.044565  0  3.743792  0  0  -0.069591  0  3.999462  0  0  -0.068001  0  4.018384  0  0  -0.084766  -0.070233  0  3.986556  0
C  C49  1  0.20147957  0.94146845  0.19720036  1  0  -0.044666  0  3.743435  0  0  -0.069692  0  3.999153  0  0  -0.068102  0  4.018072  0  0  -0.084827  -0.070335  0  3.986248  0
C  C50  1  0.70146686  0.55853151  0.19719869  1  0  -0.044428  0  3.743472  0  0  -0.069422  0  3.999142  0  0  -0.067831  0  4.018061  0  0  -0.084729  -0.070065  0  3.986238  0
C  C51  1  0.79852896  0.05853105  0.80279770  1  0  -0.044624  0  3.743485  0  0  -0.069691  0  3.999167  0  0  -0.068102  0  4.018085  0  0  -0.084802  -0.070335  0  3.986268  0
S  S52  1  0.45108221  0.53372252  0.66129177  1  0  1.192972  0  5.532766  0  0  1.110401  0  6.044016  0  0  1.15443  0  6.026832  0  0  0.513596  1.080047  0  6.054553  0
S  S53  1  0.04891791  0.03372095  0.33871027  1  0  1.192989  0  5.532842  0  0  1.110422  0  6.044097  0  0  1.154451  0  6.026906  0  0  0.513573  1.080068  0  6.054642  0
S  S54  1  0.54891729  0.46627800  0.33870946  1  0  1.19295  0  5.532624  0  0  1.110403  0  6.043895  0  0  1.15443  0  6.026706  0  0  0.513574  1.080052  0  6.054438  0
S  S55  1  0.95108459  0.96628057  0.66128861  1  0  1.193122  0  5.53258  0  0  1.11056  0  6.043818  0  0  1.154584  0  6.026632  0  0  0.513643  1.080207  0  6.054364  0
N  N56  1  0.59025548  0.40162708  0.66468446  1  0  -0.615031  0  2.725117  0  0  -0.567843  0  3.027723  0  0  -0.583953  0  3.022018  0  0  -0.375  -0.556252  0  3.031183  0
N  N57  1  0.90974667  0.90162863  0.33531611  1  0  -0.615041  0  2.725273  0  0  -0.567871  0  3.02789  0  0  -0.583978  0  3.022182  0  0  -0.374998  -0.556275  0  3.031332  0
N  N58  1  0.40973950  0.59837545  0.33531706  1  0  -0.615035  0  2.725184  0  0  -0.567852  0  3.027776  0  0  -0.583961  0  3.022074  0  0  -0.374996  -0.556259  0  3.031224  0
N  N59  1  0.09025584  0.09837592  0.66468342  1  0  -0.615042  0  2.725196  0  0  -0.567867  0  3.027806  0  0  -0.583974  0  3.0221  0  0  -0.374979  -0.556252  0  3.031205  0
Cl  Cl60  1  0.23230123  0.58814622  0.03626816  1  0  -0.09099  0  1.424264  0  0  -0.072247  0  1.671847  0  0  -0.077232  0  1.669326  0  0  0.016032  -0.068244  0  1.674512  0
Cl  Cl61  1  0.26769566  0.08814837  0.96373177  1  0  -0.091024  0  1.424165  0  0  -0.072279  0  1.671753  0  0  -0.077264  0  1.669234  0  0  0.016012  -0.068275  0  1.67442  0
Cl  Cl62  1  0.76769374  0.41184622  0.96373143  1  0  -0.090953  0  1.424068  0  0  -0.072204  0  1.671645  0  0  -0.077189  0  1.669124  0  0  0.016037  -0.068204  0  1.674309  0
Cl  Cl63  1  0.73230684  0.91185012  0.03626646  1  0  -0.091011  0  1.424196  0  0  -0.07227  0  1.67177  0  0  -0.077256  0  1.669248  0  0  0.016008  -0.068264  0  1.674435  0
Cl  Cl64  1  0.81114758  0.42509128  0.74376027  1  0  -0.038051  0  1.437963  0  0  -0.01388  0  1.702826  0  0  -0.015385  0  1.696013  0  0  0.054335  -0.012849  0  1.708491  0
Cl  Cl65  1  0.68885448  0.92509096  0.25624032  1  0  -0.038006  0  1.43797  0  0  -0.013824  0  1.70283  0  0  -0.015327  0  1.696014  0  0  0.054366  -0.012793  0  1.70849  0
Cl  Cl66  1  0.18885193  0.57490822  0.25624160  1  0  -0.038038  0  1.438042  0  0  -0.013858  0  1.702901  0  0  -0.01536  0  1.696085  0  0  0.054338  -0.012827  0  1.708562  0
Cl  Cl67  1  0.31114502  0.07490956  0.74375961  1  0  -0.03801  0  1.437974  0  0  -0.013832  0  1.702826  0  0  -0.015336  0  1.696012  0  0  0.054367  -0.0128  0  1.708481  0
O  O68  1  0.27005869  0.50024748  0.59747715  1  0  -0.678703  0  2.00267  0  0  -0.632384  0  2.264523  0  0  -0.65453  0  2.252199  0  0  -0.426179  -0.616389  0  2.272307  0
O  O69  1  0.22994307  0.00024579  0.40252433  1  0  -0.67875  0  2.0027  0  0  -0.632412  0  2.264518  0  0  -0.654574  0  2.25223  0  0  -0.426208  -0.616421  0  2.272303  0
O  O70  1  0.72994082  0.49975506  0.40252472  1  0  -0.678737  0  2.002682  0  0  -0.63238  0  2.264461  0  0  -0.654549  0  2.252193  0  0  -0.426215  -0.616391  0  2.272246  0
O  O71  1  0.77005943  0.99975574  0.59747391  1  0  -0.678794  0  2.002633  0  0  -0.632457  0  2.264441  0  0  -0.654619  0  2.252163  0  0  -0.426258  -0.616464  0  2.272226  0
O  O72  1  0.55255548  0.66011973  0.64537089  1  0  -0.709651  0  1.999111  0  0  -0.662931  0  2.259587  0  0  -0.683326  0  2.246724  0  0  -0.448476  -0.64844  0  2.268032  0
O  O73  1  0.94744908  0.16011949  0.35463212  1  0  -0.709719  0  1.999129  0  0  -0.663003  0  2.259616  0  0  -0.683396  0  2.246749  0  0  -0.44851  -0.648503  0  2.268038  0
O  O74  1  0.44744405  0.33988180  0.35463292  1  0  -0.70968  0  1.999054  0  0  -0.662962  0  2.259532  0  0  -0.683358  0  2.246669  0  0  -0.448502  -0.648449  0  2.267919  0
O  O75  1  0.05255643  0.83988305  0.64536570  1  0  -0.709778  0  1.999003  0  0  -0.663067  0  2.259489  0  0  -0.683458  0  2.246626  0  0  -0.448542  -0.648565  0  2.267912  0
O  O76  1  0.14264129  0.69765029  0.44616400  1  0  -0.886234  0  1.836581  0  0  -0.845672  0  2.013119  0  0  -0.862246  0  1.985217  0  0  -0.708669  -0.833713  0  2.032804  0
O  O77  1  0.35735973  0.19765191  0.55383705  1  0  -0.886229  0  1.836553  0  0  -0.845658  0  2.013087  0  0  -0.86224  0  1.985171  0  0  -0.708639  -0.8337  0  2.032777  0
O  O78  1  0.85735822  0.30235123  0.55383723  1  0  -0.886211  0  1.836638  0  0  -0.845655  0  2.013179  0  0  -0.862227  0  1.985277  0  0  -0.708677  -0.833697  0  2.032867  0
O  O79  1  0.64263977  0.80235366  0.44616354  1  0  -0.886175  0  1.836681  0  0  -0.84561  0  2.013208  0  0  -0.862183  0  1.985309  0  0  -0.708667  -0.833651  0  2.032895  0
