# generated using pymatgen
data_Zn2H21C41SN2(O2F3)4
_symmetry_space_group_name_H-M   'P 1'
_cell_length_a   8.12636699
_cell_length_b   21.45740704
_cell_length_c   26.38289497
_cell_angle_alpha   100.63448754
_cell_angle_beta   89.99988190
_cell_angle_gamma   90.00004847
_symmetry_Int_Tables_number   1
_chemical_formula_structural   Zn2H21C41SN2(O2F3)4
_chemical_formula_sum   'Zn8 H84 C164 S4 N8 O32 F48'
_cell_volume   4521.39104892
_cell_formula_units_Z   4
loop_
 _symmetry_equiv_pos_site_id
 _symmetry_equiv_pos_as_xyz
  1  'x, y, z'
loop_
 _atom_site_type_symbol
 _atom_site_label
 _atom_site_symmetry_multiplicity
 _atom_site_fract_x
 _atom_site_fract_y
 _atom_site_fract_z
 _atom_site_occupancy
 _atom_site_pbe_bader_charge
 _atom_site_pbe_bader_spin_density
 _atom_site_pbe_cm5_charge
 _atom_site_pbe_ddec_charge
 _atom_site_pbe_ddec_spin_density
 _atom_site_pbe_ddec_sum_bond_order
 _atom_site_pbe_magmom
Zn  Zn0  1  0.87427760  0.05668438  0.36123101  1  1.290189  0  0.704069  0.861668  0  2.386836  0
Zn  Zn1  1  0.87428124  0.44331401  0.13876624  1  1.290264  0  0.704081  0.861655  0  2.386862  0
Zn  Zn2  1  0.12572175  0.94331217  0.63876653  1  1.290219  0  0.704024  0.861568  0  2.386995  0
Zn  Zn3  1  0.12571934  0.55668539  0.86123247  1  1.290223  0  0.704026  0.861648  0  2.386974  0
Zn  Zn4  1  0.19645092  0.01599287  0.28854909  1  1.328995  0  0.686508  0.937515  0  2.382142  0
Zn  Zn5  1  0.19645170  0.48401109  0.21145205  1  1.328906  0  0.686559  0.937578  0  2.382092  0
Zn  Zn6  1  0.80353736  0.98400653  0.71144961  1  1.329015  0  0.686548  0.937569  0  2.382087  0
Zn  Zn7  1  0.80354150  0.51599307  0.78855152  1  1.329024  0  0.686544  0.937559  0  2.382062  0
H  H8  1  0.74524542  0.86414621  0.36721403  1  0.101123  0  0.111366  0.11945  0  0.984089  0
H  H9  1  0.74523980  0.63585376  0.13278512  1  0.101042  0  0.11136  0.119448  0  0.984078  0
H  H10  1  0.25476132  0.13585132  0.63279048  1  0.10094  0  0.111313  0.119413  0  0.984156  0
H  H11  1  0.25475586  0.36414849  0.86721552  1  0.101019  0  0.11132  0.119415  0  0.984125  0
H  H12  1  0.73561242  0.75132896  0.37739510  1  0.115894  0  0.102683  0.111776  0  0.999117  0
H  H13  1  0.73560958  0.74867053  0.12260171  1  0.116013  0  0.102698  0.1118  0  0.999062  0
H  H14  1  0.26439801  0.24866619  0.62260564  1  0.11622  0  0.10265  0.111716  0  0.999099  0
H  H15  1  0.26438977  0.25133122  0.87739545  1  0.115997  0  0.102683  0.111762  0  0.999162  0
H  H16  1  0.26418162  0.74025844  0.36240676  1  0.109541  0  0.099118  0.110138  0  1.016999  0
H  H17  1  0.26417501  0.75974095  0.13758881  1  0.109675  0  0.099104  0.110129  0  1.017043  0
H  H18  1  0.73583250  0.25973811  0.63759115  1  0.109705  0  0.099117  0.110137  0  1.017031  0
H  H19  1  0.73582065  0.24025986  0.86240934  1  0.109611  0  0.099074  0.110115  0  1.017065  0
H  H20  1  0.26824389  0.84932483  0.34415198  1  0.108478  0  0.110928  0.121853  0  0.985719  0
H  H21  1  0.26823938  0.65067599  0.15584570  1  0.108421  0  0.110953  0.121891  0  0.985751  0
H  H22  1  0.73176408  0.15067363  0.65584811  1  0.108237  0  0.110925  0.121832  0  0.985793  0
H  H23  1  0.73175751  0.34932769  0.84415667  1  0.107949  0  0.110909  0.121896  0  0.985718  0
H  H24  1  0.72390705  0.58802190  0.40179753  1  0.056237  0  0.093695  0.106872  0  1.021487  0
H  H25  1  0.72389735  0.91197664  0.09819953  1  0.056151  0  0.093658  0.106763  0  1.021542  0
H  H26  1  0.27610461  0.41197466  0.59820190  1  0.05625  0  0.09371  0.106866  0  1.02152  0
H  H27  1  0.27610077  0.08802371  0.90180008  1  0.056181  0  0.09367  0.106766  0  1.021539  0
H  H28  1  0.51964618  0.53456183  0.33969769  1  0.107453  0  0.102199  0.111787  0  1.006276  0
H  H29  1  0.51964111  0.96543905  0.16030173  1  0.107433  0  0.1022  0.111765  0  1.006319  0
H  H30  1  0.48035563  0.46543901  0.66030426  1  0.107509  0  0.102209  0.111766  0  1.006327  0
H  H31  1  0.48035578  0.03456035  0.83969812  1  0.107461  0  0.102206  0.111763  0  1.006276  0
H  H32  1  0.74042061  0.61413775  0.21873392  1  0.075579  0  0.09774  0.09674  0  1.04608  0
H  H33  1  0.74042685  0.88586507  0.28126564  1  0.075618  0  0.097734  0.096718  0  1.046116  0
H  H34  1  0.25957382  0.38586071  0.78126616  1  0.075586  0  0.097747  0.096755  0  1.045992  0
H  H35  1  0.25958358  0.11413955  0.71873648  1  0.075645  0  0.097705  0.096688  0  1.046087  0
H  H36  1  0.94483038  0.67096267  0.28060211  1  0.088289  0  0.099866  0.108689  0  1.004966  0
H  H37  1  0.94482584  0.82903543  0.21939436  1  0.088329  0  0.099875  0.108724  0  1.004915  0
H  H38  1  0.05517513  0.32903340  0.71939535  1  0.088241  0  0.0999  0.108773  0  1.004849  0
H  H39  1  0.05517844  0.17096586  0.78060538  1  0.088271  0  0.09988  0.108757  0  1.004904  0
H  H40  1  0.56881312  0.10893264  0.25036828  1  0.121017  0  0.108746  0.115105  0  1.000836  0
H  H41  1  0.56881466  0.39106617  0.24963150  1  0.121031  0  0.108752  0.115105  0  1.000827  0
H  H42  1  0.43117516  0.89106675  0.74963043  1  0.121022  0  0.108779  0.11518  0  1.000873  0
H  H43  1  0.43117484  0.60893181  0.75036852  1  0.121069  0  0.108788  0.115199  0  1.00081  0
H  H44  1  0.42004212  0.13709444  0.17593259  1  0.097779  0  0.105585  0.115582  0  0.989722  0
H  H45  1  0.42004064  0.36290386  0.32406646  1  0.097741  0  0.105589  0.115575  0  0.989654  0
H  H46  1  0.57995354  0.86290590  0.82406588  1  0.097844  0  0.105585  0.115579  0  0.989752  0
H  H47  1  0.57995502  0.63709317  0.67593342  1  0.09786  0  0.105595  0.115601  0  0.989729  0
H  H48  1  0.84752492  0.08373962  0.08019839  1  0.098965  0  0.097473  0.11001  0  1.019607  0
H  H49  1  0.84751800  0.41626209  0.41980126  1  0.099057  0  0.097457  0.110006  0  1.01967  0
H  H50  1  0.15246827  0.91625931  0.91980100  1  0.098948  0  0.097499  0.110049  0  1.019721  0
H  H51  1  0.15246905  0.58374204  0.58019739  1  0.098925  0  0.097522  0.110145  0  1.019701  0
H  H52  1  0.99616794  0.05950440  0.15563634  1  0.125725  0  0.105685  0.118082  0  1.001396  0
H  H53  1  0.99615789  0.44050351  0.34436526  1  0.125695  0  0.1057  0.118074  0  1.001372  0
H  H54  1  0.00382895  0.94049406  0.84436375  1  0.125676  0  0.105677  0.118022  0  1.001458  0
H  H55  1  0.00382916  0.55950443  0.65563508  1  0.12568  0  0.105674  0.118034  0  1.001428  0
H  H56  1  0.62756930  0.23547095  0.13380860  1  0.073162  0  0.105477  0.115417  0  0.990834  0
H  H57  1  0.62755502  0.26453023  0.36618883  1  0.073287  0  0.105479  0.115303  0  0.990986  0
H  H58  1  0.37244235  0.76452842  0.86618669  1  0.07324  0  0.10545  0.11529  0  0.990974  0
H  H59  1  0.37243941  0.73547013  0.63381191  1  0.073247  0  0.105457  0.115275  0  0.990909  0
H  H60  1  0.48758305  0.33977421  0.15504499  1  0.091056  0  0.109317  0.118354  0  1.000825  0
H  H61  1  0.48757606  0.16022648  0.34495436  1  0.091056  0  0.109358  0.118375  0  1.000773  0
H  H62  1  0.51243229  0.66022519  0.84495334  1  0.091088  0  0.109328  0.11833  0  1.00072  0
H  H63  1  0.51243313  0.83977292  0.65504586  1  0.091111  0  0.109345  0.118342  0  1.000755  0
H  H64  1  0.05253519  0.25880191  0.07664528  1  0.099091  0  0.102767  0.109739  0  1.007632  0
H  H65  1  0.05252539  0.24119729  0.42335526  1  0.099054  0  0.102811  0.109836  0  1.007421  0
H  H66  1  0.94747524  0.74120272  0.92335609  1  0.09903  0  0.102817  0.109829  0  1.00751  0
H  H67  1  0.94747888  0.75879739  0.57664617  1  0.099018  0  0.102814  0.109865  0  1.007448  0
H  H68  1  0.19147916  0.15555499  0.05348179  1  0.077408  0  0.093377  0.101935  0  1.041071  0
H  H69  1  0.19146328  0.34444563  0.44651508  1  0.077614  0  0.093351  0.101982  0  1.040985  0
H  H70  1  0.80852511  0.84444819  0.94651595  1  0.0774  0  0.093355  0.101918  0  1.041097  0
H  H71  1  0.80852868  0.65555186  0.55348221  1  0.077402  0  0.093366  0.101983  0  1.040938  0
H  H72  1  0.50431756  0.01925897  0.38867612  1  0.223218  0  0.141554  0.130292  0  1.013756  0
H  H73  1  0.50431285  0.48074078  0.11132384  1  0.223205  0  0.141518  0.130299  0  1.013707  0
H  H74  1  0.49567687  0.98074088  0.61131963  1  0.2233  0  0.141603  0.130398  0  1.013722  0
H  H75  1  0.49567666  0.51926054  0.88867932  1  0.223304  0  0.141562  0.130304  0  1.013765  0
H  H76  1  0.81424443  0.16991390  0.45632326  1  0.14678  0  0.124245  0.128088  0  0.998642  0
H  H77  1  0.81423861  0.33008731  0.04367254  1  0.146881  0  0.124248  0.128107  0  0.998692  0
H  H78  1  0.18575861  0.83008263  0.54367124  1  0.146832  0  0.124244  0.128038  0  0.998759  0
H  H79  1  0.18575212  0.66991824  0.95632441  1  0.146624  0  0.12423  0.128064  0  0.998842  0
H  H80  1  0.52548790  0.17585557  0.51412643  1  0.156693  0  0.132875  0.140708  0  0.979286  0
H  H81  1  0.52547664  0.32414188  0.98587336  1  0.156765  0  0.132845  0.140653  0  0.979223  0
H  H82  1  0.47452129  0.82413955  0.48587051  1  0.156645  0  0.132859  0.140671  0  0.979315  0
H  H83  1  0.47451164  0.67586462  0.01412639  1  0.156673  0  0.132861  0.14065  0  0.979186  0
H  H84  1  0.21349119  0.17110882  0.50582102  1  0.132363  0  0.109359  0.132241  0  1.006223  0
H  H85  1  0.21347249  0.32889238  0.99418179  1  0.132435  0  0.109348  0.132161  0  1.006432  0
H  H86  1  0.78652416  0.82889296  0.49418069  1  0.132432  0  0.109321  0.132126  0  1.006422  0
H  H87  1  0.78652440  0.67111035  0.00581968  1  0.132401  0  0.109332  0.132249  0  1.006214  0
H  H88  1  0.94868919  0.11341857  0.53126168  1  0.1019  0  0.103774  0.117728  0  1.016234  0
H  H89  1  0.94867695  0.38658278  0.96874296  1  0.101801  0  0.103773  0.117736  0  1.016376  0
H  H90  1  0.05132001  0.88658703  0.46874437  1  0.101863  0  0.103744  0.117757  0  1.016414  0
H  H91  1  0.05131748  0.61341473  0.03125737  1  0.101908  0  0.103736  0.11768  0  1.016466  0
C  C92  1  0.01429162  0.92940007  0.34501220  1  1.575128  0  0.223493  0.591373  0  4.207723  0
C  C93  1  0.01429063  0.57059881  0.15498498  1  1.574944  0  0.223582  0.591397  0  4.207904  0
C  C94  1  0.98570527  0.07059553  0.65498596  1  1.574849  0  0.223522  0.591258  0  4.207793  0
C  C95  1  0.98570134  0.42940297  0.84501522  1  1.57495  0  0.223572  0.591329  0  4.207584  0
C  C96  1  0.00772523  0.86341193  0.35522763  1  -0.035522  0  -0.015617  -0.030718  0  3.979751  0
C  C97  1  0.00772200  0.63658790  0.14477007  1  -0.035202  0  -0.015687  -0.030873  0  3.979762  0
C  C98  1  0.99228273  0.13658511  0.64477339  1  -0.035806  0  -0.015614  -0.030681  0  3.979651  0
C  C99  1  0.99227366  0.36341577  0.85523040  1  -0.03538  0  -0.015701  -0.030881  0  3.979734  0
C  C100  1  0.85781845  0.83617004  0.36553217  1  -0.030799  0  -0.080005  -0.083956  0  3.962735  0
C  C101  1  0.85781288  0.66382852  0.13446519  1  -0.030817  0  -0.080023  -0.083969  0  3.962718  0
C  C102  1  0.14219443  0.16382511  0.63446971  1  -0.030708  0  -0.079935  -0.084025  0  3.962647  0
C  C103  1  0.14218400  0.33617515  0.86553490  1  -0.031064  0  -0.079922  -0.083852  0  3.962706  0
C  C104  1  0.85346094  0.77339330  0.37206212  1  -0.034633  0  -0.092058  -0.131598  0  3.971508  0
C  C105  1  0.85345309  0.72660478  0.12793365  1  -0.034923  0  -0.092012  -0.131521  0  3.971497  0
C  C106  1  0.14655564  0.22660468  0.62793752  1  -0.035136  0  -0.091983  -0.13141  0  3.971345  0
C  C107  1  0.14654749  0.27339698  0.87206426  1  -0.034786  0  -0.092064  -0.13157  0  3.971552  0
C  C108  1  0.99894043  0.73788793  0.37160355  1  -0.051455  0  -0.013741  0.089042  0  3.946723  0
C  C109  1  0.99893143  0.76211018  0.12839289  1  -0.051577  0  -0.013723  0.089204  0  3.946673  0
C  C110  1  0.00107246  0.26210673  0.62839485  1  -0.051279  0  -0.013846  0.089037  0  3.946821  0
C  C111  1  0.00106793  0.23789206  0.87160661  1  -0.05131  0  -0.013693  0.089266  0  3.946692  0
C  C112  1  0.14912408  0.76619367  0.36289541  1  -0.034987  0  -0.096919  -0.141124  0  3.982461  0
C  C113  1  0.14911742  0.73380522  0.13709941  1  -0.034686  0  -0.096931  -0.141233  0  3.982535  0
C  C114  1  0.85089004  0.23380288  0.63710288  1  -0.034883  0  -0.096867  -0.141071  0  3.982538  0
C  C115  1  0.85087947  0.26619560  0.86290027  1  -0.034964  0  -0.096909  -0.141211  0  3.982585  0
C  C116  1  0.15274696  0.82793702  0.35324560  1  -0.073146  0  -0.081029  -0.084791  0  3.956825  0
C  C117  1  0.15274132  0.67206425  0.14675107  1  -0.073329  0  -0.08104  -0.084766  0  3.956818  0
C  C118  1  0.84726224  0.17206096  0.64675441  1  -0.072772  0  -0.080998  -0.084746  0  3.956896  0
C  C119  1  0.84725434  0.32793896  0.85325084  1  -0.072534  0  -0.080971  -0.084758  0  3.956776  0
C  C120  1  0.98226005  0.66961780  0.38152188  1  0.050518  0  -0.010951  -0.272243  0  3.851553  0
C  C121  1  0.98224511  0.83038174  0.11847630  1  0.050607  0  -0.011026  -0.272613  0  3.852144  0
C  C122  1  0.01775653  0.33037686  0.61847765  1  0.050341  0  -0.011005  -0.27265  0  3.8522  0
C  C123  1  0.01775793  0.16962098  0.88152366  1  0.050405  0  -0.01105  -0.272876  0  3.852367  0
C  C124  1  0.94046504  0.67623082  0.43999380  1  1.700567  0  0.304273  0.68128  0  3.951384  0
C  C125  1  0.94046156  0.82377108  0.06000361  1  1.700681  0  0.304338  0.681371  0  3.951727  0
C  C126  1  0.05953800  0.32376384  0.56000383  1  1.70032  0  0.304365  0.681498  0  3.950896  0
C  C127  1  0.05953656  0.17623638  0.93999742  1  1.700369  0  0.304373  0.681613  0  3.951079  0
C  C128  1  0.14433086  0.63019052  0.37042349  1  1.728277  0  0.301755  0.6763  0  3.975374  0
C  C129  1  0.14431225  0.86981218  0.12957530  1  1.72775  0  0.301806  0.676293  0  3.975648  0
C  C130  1  0.85568448  0.36980557  0.62957625  1  1.728597  0  0.301836  0.676398  0  3.975369  0
C  C131  1  0.85569079  0.13019196  0.87042562  1  1.728182  0  0.301759  0.676376  0  3.975301  0
C  C132  1  0.84940617  0.63404290  0.34582845  1  -0.043578  0  -0.021656  0.075256  0  3.962313  0
C  C133  1  0.84939600  0.86595613  0.15416860  1  -0.043991  0  -0.021642  0.075405  0  3.962292  0
C  C134  1  0.15059933  0.36595745  0.65417116  1  -0.044136  0  -0.021667  0.075412  0  3.962318  0
C  C135  1  0.15060458  0.13404421  0.84582949  1  -0.043961  0  -0.021636  0.075484  0  3.962283  0
C  C136  1  0.72978189  0.59497177  0.36201156  1  -0.008766  0  -0.099787  -0.141582  0  3.982533  0
C  C137  1  0.72977314  0.90502629  0.13798504  1  -0.008633  0  -0.099779  -0.141507  0  3.982513  0
C  C138  1  0.27022730  0.40502525  0.63798642  1  -0.008445  0  -0.099783  -0.141612  0  3.98256  0
C  C139  1  0.27022867  0.09497501  0.86201508  1  -0.008642  0  -0.099781  -0.141502  0  3.982458  0
C  C140  1  0.61428510  0.56416321  0.32699835  1  0.004161  0  -0.083531  -0.077881  0  3.961522  0
C  C141  1  0.61427988  0.93583531  0.17299916  1  0.004197  0  -0.083482  -0.0779  0  3.9616  0
C  C142  1  0.38571917  0.43583762  0.67300323  1  0.004205  0  -0.083483  -0.077808  0  3.961562  0
C  C143  1  0.38572194  0.06416551  0.82699976  1  0.004254  0  -0.083498  -0.077867  0  3.961499  0
C  C144  1  0.61850611  0.57062683  0.27518388  1  -0.046545  0  -0.016646  -0.026362  0  3.957587  0
C  C145  1  0.61850052  0.92937027  0.22481341  1  -0.046269  0  -0.016617  -0.026179  0  3.957315  0
C  C146  1  0.38149447  0.42937067  0.72481569  1  -0.046315  0  -0.016688  -0.02644  0  3.957616  0
C  C147  1  0.38149637  0.07062819  0.77518629  1  -0.046142  0  -0.016636  -0.026307  0  3.957324  0
C  C148  1  0.73924651  0.60905471  0.25901300  1  -0.011238  0  -0.087849  -0.084576  0  3.976259  0
C  C149  1  0.73925303  0.89094716  0.24098605  1  -0.011373  0  -0.087849  -0.084657  0  3.976206  0
C  C150  1  0.26075161  0.39094469  0.74098685  1  -0.011425  0  -0.08781  -0.084535  0  3.97616  0
C  C151  1  0.26075739  0.10905699  0.75901486  1  -0.011458  0  -0.087805  -0.08445  0  3.97607  0
C  C152  1  0.85279532  0.64072387  0.29385164  1  -0.072664  0  -0.096819  -0.129542  0  3.98057  0
C  C153  1  0.85278848  0.85927375  0.20614558  1  -0.072598  0  -0.096828  -0.129544  0  3.980513  0
C  C154  1  0.14721018  0.35927315  0.70614558  1  -0.072612  0  -0.096911  -0.129731  0  3.980508  0
C  C155  1  0.14721580  0.14072708  0.79385410  1  -0.072753  0  -0.096831  -0.129713  0  3.980667  0
C  C156  1  0.49479286  0.53814172  0.23685723  1  1.567914  0  0.19952  0.576538  0  4.213968  0
C  C157  1  0.49479817  0.96186105  0.26314210  1  1.567943  0  0.199548  0.576536  0  4.213827  0
C  C158  1  0.50520157  0.46185817  0.76314496  1  1.568117  0  0.199667  0.576823  0  4.213633  0
C  C159  1  0.50520857  0.03814263  0.73685913  1  1.56807  0  0.199552  0.576719  0  4.213683  0
C  C160  1  0.88085902  0.06567838  0.25232746  1  1.574639  0  0.226438  0.601773  0  4.174674  0
C  C161  1  0.88085084  0.43432760  0.24767279  1  1.574118  0  0.226351  0.601495  0  4.174615  0
C  C162  1  0.11913663  0.93432481  0.74767256  1  1.57318  0  0.226432  0.601861  0  4.174569  0
C  C163  1  0.11913498  0.56567322  0.75232651  1  1.573793  0  0.22635  0.601783  0  4.17476  0
C  C164  1  0.79254421  0.08349498  0.20765305  1  -0.039129  0  -0.016622  -0.040503  0  3.982527  0
C  C165  1  0.79253937  0.41650814  0.29234759  1  -0.039168  0  -0.016593  -0.040475  0  3.98253  0
C  C166  1  0.20745145  0.91650583  0.79234586  1  -0.039286  0  -0.016682  -0.040626  0  3.982503  0
C  C167  1  0.20744521  0.58349316  0.70765291  1  -0.039144  0  -0.016559  -0.040542  0  3.982448  0
C  C168  1  0.62994634  0.10520846  0.21324324  1  0.000481  0  -0.075248  -0.066835  0  3.951825  0
C  C169  1  0.62994395  0.39479084  0.28675695  1  0.00057  0  -0.075307  -0.066852  0  3.951851  0
C  C170  1  0.37004563  0.89478999  0.78675495  1  0.000926  0  -0.075265  -0.066929  0  3.951953  0
C  C171  1  0.37004432  0.60520904  0.71324373  1  0.000842  0  -0.075379  -0.067032  0  3.951932  0
C  C172  1  0.54654022  0.12030302  0.17122199  1  0.013485  0  -0.089606  -0.129324  0  3.967172  0
C  C173  1  0.54653752  0.37969816  0.32877777  1  0.013394  0  -0.089566  -0.129294  0  3.967089  0
C  C174  1  0.45345298  0.87969732  0.82877610  1  0.012966  0  -0.089574  -0.129302  0  3.967085  0
C  C175  1  0.45345199  0.62030031  0.67122345  1  0.012972  0  -0.08957  -0.129309  0  3.967206  0
C  C176  1  0.62278970  0.11301641  0.12276826  1  -0.101689  0  -0.015369  0.085328  0  3.956908  0
C  C177  1  0.62278300  0.38698526  0.37723190  1  -0.10168  0  -0.015476  0.08526  0  3.956815  0
C  C178  1  0.37720596  0.88698488  0.87723034  1  -0.101444  0  -0.015357  0.085543  0  3.956668  0
C  C179  1  0.37720897  0.61301463  0.62276878  1  -0.101435  0  -0.01536  0.085554  0  3.956662  0
C  C180  1  0.78540357  0.09099158  0.11730698  1  -0.069507  0  -0.097162  -0.139865  0  3.976949  0
C  C181  1  0.78539688  0.40901392  0.38269440  1  -0.069557  0  -0.097145  -0.139924  0  3.97694  0
C  C182  1  0.21459332  0.90901115  0.88269373  1  -0.069436  0  -0.097194  -0.14001  0  3.976956  0
C  C183  1  0.21459140  0.59099165  0.61730635  1  -0.069464  0  -0.09724  -0.140214  0  3.977153  0
C  C184  1  0.87008455  0.07694323  0.15965645  1  -0.046451  0  -0.07829  -0.070998  0  3.951112  0
C  C185  1  0.87007817  0.42306132  0.34034398  1  -0.046435  0  -0.078269  -0.070857  0  3.951049  0
C  C186  1  0.12990865  0.92305805  0.84034177  1  -0.04654  0  -0.078284  -0.070878  0  3.951029  0
C  C187  1  0.12991134  0.57694092  0.65965591  1  -0.046574  0  -0.078348  -0.070893  0  3.951134  0
C  C188  1  0.51702305  0.12591103  0.07751903  1  0.057265  0  -0.012303  -0.277375  0  3.85999  0
C  C189  1  0.51701847  0.37408778  0.42248154  1  0.057391  0  -0.01226  -0.277433  0  3.860066  0
C  C190  1  0.48297507  0.87408931  0.92247943  1  0.057282  0  -0.012334  -0.277467  0  3.859946  0
C  C191  1  0.48297719  0.62591021  0.57751886  1  0.057253  0  -0.012305  -0.277485  0  3.859978  0
C  C192  1  0.40216605  0.06691891  0.06292350  1  1.708986  0  0.303575  0.68127  0  3.96235  0
C  C193  1  0.40216027  0.43307989  0.43707903  1  1.709052  0  0.303585  0.68106  0  3.962596  0
C  C194  1  0.59783823  0.93308238  0.93707510  1  1.709032  0  0.303554  0.681136  0  3.962339  0
C  C195  1  0.59783292  0.56691811  0.56292364  1  1.708979  0  0.303564  0.681107  0  3.962418  0
C  C196  1  0.62246886  0.13402226  0.02974642  1  1.717736  0  0.302199  0.682965  0  3.962002  0
C  C197  1  0.62246887  0.36597608  0.47025212  1  1.71769  0  0.302339  0.683273  0  3.961459  0
C  C198  1  0.37752926  0.86597714  0.97025229  1  1.71774  0  0.30235  0.683148  0  3.961804  0
C  C199  1  0.37752925  0.63402000  0.52974762  1  1.717426  0  0.302281  0.683182  0  3.961587  0
C  C200  1  0.41991571  0.18799377  0.09226407  1  -0.101488  0  -0.013031  0.091533  0  3.94833  0
C  C201  1  0.41990248  0.31200786  0.40773546  1  -0.101568  0  -0.013054  0.091649  0  3.947966  0
C  C202  1  0.58008979  0.81201037  0.90773495  1  -0.101648  0  -0.013051  0.091528  0  3.948072  0
C  C203  1  0.58009195  0.68799107  0.59226470  1  -0.101577  0  -0.013057  0.091611  0  3.94788  0
C  C204  1  0.50188342  0.24051419  0.12083765  1  -0.002725  0  -0.089856  -0.128945  0  3.972836  0
C  C205  1  0.50187765  0.25948746  0.37916258  1  -0.002728  0  -0.089859  -0.128886  0  3.972506  0
C  C206  1  0.49812331  0.75948711  0.87916171  1  -0.00267  0  -0.089798  -0.128856  0  3.972532  0
C  C207  1  0.49812416  0.74051289  0.62083702  1  -0.00264  0  -0.089837  -0.128847  0  3.972557  0
C  C208  1  0.42394333  0.29893976  0.13294024  1  -0.013986  0  -0.08081  -0.07649  0  3.955777  0
C  C209  1  0.42393259  0.20106234  0.36705936  1  -0.013872  0  -0.080861  -0.076407  0  3.955547  0
C  C210  1  0.57607325  0.70106295  0.86705820  1  -0.014508  0  -0.080922  -0.076478  0  3.955442  0
C  C211  1  0.57607292  0.79893660  0.63294232  1  -0.014264  0  -0.080914  -0.076515  0  3.955618  0
C  C212  1  0.26164946  0.30573901  0.11686129  1  -0.045121  0  -0.021496  -0.04194  0  3.985347  0
C  C213  1  0.26164106  0.19426212  0.38313903  1  -0.045115  0  -0.021589  -0.042151  0  3.985485  0
C  C214  1  0.73836465  0.69426372  0.88314056  1  -0.044485  0  -0.021472  -0.041897  0  3.985145  0
C  C215  1  0.73836567  0.80573445  0.61686116  1  -0.044819  0  -0.02143  -0.041767  0  3.985226  0
C  C216  1  0.17913169  0.25344882  0.08865372  1  -0.045568  0  -0.084642  -0.079455  0  3.968401  0
C  C217  1  0.17912445  0.24655134  0.41134498  1  -0.04559  0  -0.084686  -0.079561  0  3.968379  0
C  C218  1  0.82087750  0.74655532  0.91134530  1  -0.046288  0  -0.084646  -0.079529  0  3.96821  0
C  C219  1  0.82087983  0.75344476  0.58865590  1  -0.046397  0  -0.084711  -0.079688  0  3.968216  0
C  C220  1  0.25790611  0.19508856  0.07610128  1  0.069767  0  -0.097808  -0.139516  0  3.988538  0
C  C221  1  0.25789153  0.30491160  0.42389586  1  0.069429  0  -0.097714  -0.139567  0  3.988449  0
C  C222  1  0.74210186  0.80491604  0.92389591  1  0.070401  0  -0.097781  -0.139483  0  3.988391  0
C  C223  1  0.74210536  0.69508449  0.57610350  1  0.070441  0  -0.09772  -0.139503  0  3.988213  0
C  C224  1  0.17738428  0.36807440  0.13118721  1  1.558371  0  0.21957  0.593278  0  4.195654  0
C  C225  1  0.17738199  0.13192388  0.36881463  1  1.558244  0  0.219588  0.593489  0  4.195455  0
C  C226  1  0.82262615  0.63192646  0.86881739  1  1.558946  0  0.219432  0.593243  0  4.19521  0
C  C227  1  0.82262598  0.86807220  0.63118359  1  1.558863  0  0.219438  0.593133  0  4.195548  0
C  C228  1  0.55257647  0.05947399  0.41596667  1  0.964013  0  0.154533  0.112063  0  3.845825  0
C  C229  1  0.55256816  0.44052339  0.08403178  1  0.964025  0  0.154607  0.112107  0  3.845812  0
C  C230  1  0.44742411  0.94052208  0.58402966  1  0.96414  0  0.154481  0.111882  0  3.846094  0
C  C231  1  0.44742627  0.55947886  0.91596962  1  0.964036  0  0.154548  0.11196  0  3.84601  0
C  C232  1  0.70727041  0.13930361  0.45174773  1  0.41563  0  0.005098  -0.025969  0  3.999723  0
C  C233  1  0.70726586  0.36069570  0.04825090  1  0.415607  0  0.004973  -0.026115  0  3.999809  0
C  C234  1  0.29273017  0.86069151  0.54824884  1  0.415598  0  0.005043  -0.026004  0  3.999799  0
C  C235  1  0.29271872  0.63930749  0.95174760  1  0.415778  0  0.005211  -0.025943  0  3.999952  0
C  C236  1  0.56609776  0.14291229  0.48034917  1  0.279574  0  0.003909  -0.103598  0  3.911611  0
C  C237  1  0.56608601  0.35708653  0.01965213  1  0.279485  0  0.004009  -0.103482  0  3.911626  0
C  C238  1  0.43390897  0.85708473  0.51964806  1  0.279445  0  0.003934  -0.103606  0  3.911513  0
C  C239  1  0.43389488  0.64291856  0.98034930  1  0.279494  0  0.003809  -0.103702  0  3.91157  0
C  C240  1  0.31242224  0.07766440  0.47441881  1  0.153788  0  0.083661  0.066196  0  4.044873  0
C  C241  1  0.31240690  0.42233391  0.02558258  1  0.153857  0  0.083741  0.06648  0  4.044639  0
C  C242  1  0.68758204  0.92233500  0.52557990  1  0.153993  0  0.083729  0.066414  0  4.044641  0
C  C243  1  0.68757276  0.57766789  0.97442141  1  0.154124  0  0.083598  0.066191  0  4.044927  0
C  C244  1  0.19710499  0.11991886  0.49862495  1  0.041314  0  -0.104261  -0.17454  0  4.024657  0
C  C245  1  0.19708972  0.38007991  0.00137885  1  0.040551  0  -0.104355  -0.174661  0  4.025082  0
C  C246  1  0.80290175  0.88008104  0.50137800  1  0.040817  0  -0.104273  -0.174506  0  4.024824  0
C  C247  1  0.80289856  0.61991903  0.99862320  1  0.040962  0  -0.104255  -0.174664  0  4.024912  0
C  C248  1  0.05413450  0.08869738  0.51155593  1  -0.003224  0  -0.103649  -0.134956  0  4.006929  0
C  C249  1  0.05411849  0.41130094  0.98844504  1  -0.002777  0  -0.103623  -0.134971  0  4.006989  0
C  C250  1  0.94587592  0.91130489  0.48844812  1  -0.003282  0  -0.103545  -0.135013  0  4.007238  0
C  C251  1  0.94586732  0.58869656  0.01155415  1  -0.003203  0  -0.103523  -0.13485  0  4.007102  0
C  C252  1  0.06096902  0.02333055  0.49693194  1  -0.185988  0  -0.015447  0.005831  0  4.037905  0
C  C253  1  0.06096011  0.47666725  0.00307333  1  -0.123682  0  -0.015503  0.005804  0  4.037921  0
C  C254  1  0.93903156  0.97666843  0.50307581  1  -0.123461  0  -0.015515  0.00582  0  4.038123  0
C  C255  1  0.93903063  0.52332978  0.99692731  1  -0.186025  0  -0.015482  0.005871  0  4.03778  0
S  S256  1  0.24849681  0.99977310  0.46780005  1  0.243548  0  0.10104  0.104449  0  2.791391  0
S  S257  1  0.24848541  0.50022493  0.03220595  1  0.243608  0  0.10105  0.104403  0  2.791422  0
S  S258  1  0.75150254  0.00022585  0.53220428  1  0.243507  0  0.101008  0.104354  0  2.791473  0
S  S259  1  0.75149179  0.49977498  0.96779927  1  0.24354  0  0.101011  0.104347  0  2.791354  0
N  N260  1  0.69747275  0.08709970  0.41228885  1  -1.260351  0  -0.35535  -0.276055  0  3.584095  0
N  N261  1  0.69746928  0.41290054  0.08770916  1  -1.260209  0  -0.355357  -0.276025  0  3.584056  0
N  N262  1  0.30252291  0.91289683  0.58770717  1  -1.260325  0  -0.355327  -0.275915  0  3.58427  0
N  N263  1  0.30252638  0.58710075  0.91228982  1  -1.260408  0  -0.355398  -0.276026  0  3.584205  0
N  N264  1  0.46880708  0.09210420  0.45733701  1  -1.274098  0  -0.22301  0.0175  0  3.873737  0
N  N265  1  0.46879528  0.40789127  0.04266159  1  -1.274185  0  -0.222989  0.017398  0  3.87382  0
N  N266  1  0.53119843  0.90789092  0.54265994  1  -1.274138  0  -0.223012  0.017533  0  3.873704  0
N  N267  1  0.53119176  0.59211100  0.95734095  1  -1.274134  0  -0.222932  0.017843  0  3.873707  0
O  O268  1  0.91301668  0.96943796  0.36972152  1  -1.169443  0  -0.313362  -0.54798  0  2.401675  0
O  O269  1  0.91302192  0.53056014  0.13027535  1  -1.169534  0  -0.313413  -0.547967  0  2.401744  0
O  O270  1  0.08697159  0.03055716  0.63027504  1  -1.169519  0  -0.313439  -0.547925  0  2.401758  0
O  O271  1  0.08697374  0.46944306  0.86972543  1  -1.169487  0  -0.313448  -0.547967  0  2.401724  0
O  O272  1  0.12075383  0.93962643  0.31246160  1  -1.16951  0  -0.303224  -0.542757  0  2.42307  0
O  O273  1  0.12075506  0.56037675  0.18753727  1  -1.16936  0  -0.303212  -0.542723  0  2.423146  0
O  O274  1  0.87924183  0.06037298  0.68753824  1  -1.169162  0  -0.30321  -0.542729  0  2.423024  0
O  O275  1  0.87924183  0.43962595  0.81245965  1  -1.169278  0  -0.303153  -0.542639  0  2.422852  0
O  O276  1  0.37989148  0.50806238  0.25699633  1  -1.15935  0  -0.339634  -0.565349  0  2.310158  0
O  O277  1  0.37988837  0.99193421  0.24300294  1  -1.159362  0  -0.339648  -0.565332  0  2.310085  0
O  O278  1  0.62010664  0.49193467  0.74300659  1  -1.159353  0  -0.339784  -0.565469  0  2.310048  0
O  O279  1  0.62011344  0.00806568  0.75699926  1  -1.159549  0  -0.339656  -0.565413  0  2.310092  0
O  O280  1  0.50520235  0.54186756  0.19018125  1  -1.178096  0  -0.336222  -0.56437  0  2.102629  0
O  O281  1  0.50521348  0.95813854  0.30981970  1  -1.178097  0  -0.336267  -0.564427  0  2.102467  0
O  O282  1  0.49478470  0.45813234  0.80982208  1  -1.178284  0  -0.336224  -0.564466  0  2.102517  0
O  O283  1  0.49479694  0.04186418  0.69018063  1  -1.178018  0  -0.336258  -0.564515  0  2.102335  0
O  O284  1  0.79690255  0.06745311  0.29349315  1  -1.168538  0  -0.312937  -0.53874  0  2.386338  0
O  O285  1  0.79689833  0.43253577  0.20650201  1  -1.168601  0  -0.312954  -0.538656  0  2.38606  0
O  O286  1  0.20309680  0.93254582  0.70650663  1  -1.168543  0  -0.312955  -0.538761  0  2.386228  0
O  O287  1  0.20309610  0.56745792  0.79349435  1  -1.168424  0  -0.312892  -0.538732  0  2.386202  0
O  O288  1  0.03162714  0.05014765  0.24595301  1  -1.172419  0  -0.310993  -0.544448  0  2.356027  0
O  O289  1  0.03161279  0.44986859  0.25404700  1  -1.171864  0  -0.310921  -0.544331  0  2.356048  0
O  O290  1  0.96837221  0.94985742  0.75404387  1  -1.170995  0  -0.310936  -0.544462  0  2.356215  0
O  O291  1  0.96837795  0.55014077  0.74595392  1  -1.171766  0  -0.310879  -0.544383  0  2.356299  0
O  O292  1  0.02730127  0.37147253  0.11765471  1  -1.176197  0  -0.314123  -0.546584  0  2.382586  0
O  O293  1  0.02730134  0.12852618  0.38234578  1  -1.176103  0  -0.314127  -0.54663  0  2.382621  0
O  O294  1  0.97270793  0.62853021  0.88234904  1  -1.176291  0  -0.314025  -0.546623  0  2.382417  0
O  O295  1  0.97270539  0.87146895  0.61765230  1  -1.176289  0  -0.314071  -0.546547  0  2.382558  0
O  O296  1  0.26190787  0.41357680  0.15605807  1  -1.184202  0  -0.314066  -0.570176  0  2.433639  0
O  O297  1  0.26191057  0.08642151  0.34394563  1  -1.18416  0  -0.313993  -0.570226  0  2.43354  0
O  O298  1  0.73810256  0.58642313  0.84395058  1  -1.184654  0  -0.313955  -0.570108  0  2.433499  0
O  O299  1  0.73810232  0.91357597  0.65604977  1  -1.184557  0  -0.313955  -0.570114  0  2.433616  0
F  F300  1  0.04259636  0.71876589  0.46960910  1  -0.61597  0  -0.106024  -0.216015  0  1.335116  0
F  F301  1  0.04259914  0.78123868  0.03038775  1  -0.615959  0  -0.106  -0.215987  0  1.335258  0
F  F302  1  0.95739561  0.28123020  0.53039026  1  -0.61571  0  -0.106118  -0.216107  0  1.334871  0
F  F303  1  0.95739775  0.21876830  0.96961131  1  -0.61582  0  -0.10609  -0.216075  0  1.335063  0
F  F304  1  0.78432761  0.69846248  0.45050451  1  -0.621984  0  -0.091795  -0.203095  0  1.348238  0
F  F305  1  0.78432661  0.80153465  0.04949307  1  -0.622011  0  -0.091836  -0.203132  0  1.348319  0
F  F306  1  0.21567297  0.30153028  0.54949323  1  -0.622059  0  -0.091824  -0.203168  0  1.34821  0
F  F307  1  0.21567028  0.19847470  0.95050672  1  -0.622113  0  -0.091828  -0.203208  0  1.348171  0
F  F308  1  0.95266964  0.62100528  0.45806664  1  -0.608839  0  -0.094078  -0.199898  0  1.338557  0
F  F309  1  0.95265286  0.87899807  0.04193400  1  -0.608892  0  -0.094083  -0.199887  0  1.338677  0
F  F310  1  0.04733217  0.37899033  0.54193151  1  -0.608686  0  -0.094035  -0.199861  0  1.338408  0
F  F311  1  0.04735510  0.12101037  0.95807133  1  -0.608667  0  -0.094023  -0.199879  0  1.338375  0
F  F312  1  0.26785707  0.65211760  0.40426646  1  -0.612792  0  -0.107222  -0.219987  0  1.344217  0
F  F313  1  0.26784479  0.84789035  0.09573340  1  -0.612749  0  -0.107287  -0.219983  0  1.344103  0
F  F314  1  0.73215459  0.34787897  0.59573525  1  -0.612636  0  -0.107267  -0.219996  0  1.344161  0
F  F315  1  0.73215826  0.15211570  0.90426742  1  -0.612819  0  -0.107326  -0.220043  0  1.34399  0
F  F316  1  0.20156694  0.63177898  0.32229193  1  -0.619821  0  -0.083355  -0.184243  0  1.339296  0
F  F317  1  0.20154923  0.86822041  0.17770596  1  -0.619715  0  -0.083361  -0.18425  0  1.339508  0
F  F318  1  0.79844964  0.36821710  0.67770743  1  -0.619813  0  -0.083446  -0.184319  0  1.339416  0
F  F319  1  0.79845013  0.13178327  0.82229565  1  -0.619705  0  -0.083372  -0.184241  0  1.33943  0
F  F320  1  0.12018592  0.56841117  0.37337764  1  -0.615268  0  -0.094967  -0.196325  0  1.33275  0
F  F321  1  0.12015885  0.93158918  0.12662499  1  -0.614847  0  -0.09495  -0.196281  0  1.332897  0
F  F322  1  0.87983065  0.43158158  0.62661896  1  -0.615557  0  -0.094903  -0.19625  0  1.332733  0
F  F323  1  0.87983311  0.06841404  0.87337882  1  -0.615112  0  -0.094861  -0.19624  0  1.332724  0
F  F324  1  0.48785496  0.01219497  0.06029937  1  -0.612676  0  -0.095716  -0.19967  0  1.376531  0
F  F325  1  0.48784683  0.48780576  0.43970681  1  -0.61264  0  -0.095669  -0.199567  0  1.376629  0
F  F326  1  0.51213947  0.98780681  0.93970197  1  -0.612712  0  -0.095636  -0.199598  0  1.376373  0
F  F327  1  0.51214514  0.51219415  0.56029842  1  -0.612708  0  -0.095646  -0.199573  0  1.376544  0
F  F328  1  0.28238669  0.06689783  0.09917588  1  -0.611083  0  -0.090176  -0.195965  0  1.320103  0
F  F329  1  0.28237624  0.43310428  0.40082912  1  -0.610992  0  -0.090189  -0.195888  0  1.320091  0
F  F330  1  0.71761266  0.93310441  0.90082287  1  -0.611146  0  -0.090189  -0.195971  0  1.320216  0
F  F331  1  0.71761696  0.56689609  0.59917314  1  -0.611035  0  -0.090203  -0.195936  0  1.320112  0
F  F332  1  0.32431345  0.06416851  0.01678802  1  -0.608361  0  -0.100104  -0.206099  0  1.353108  0
F  F333  1  0.32430245  0.43582649  0.48321439  1  -0.608558  0  -0.100148  -0.206088  0  1.353316  0
F  F334  1  0.67569205  0.93583136  0.98321000  1  -0.608311  0  -0.100134  -0.206042  0  1.353044  0
F  F335  1  0.67569321  0.56416819  0.51678742  1  -0.608408  0  -0.100151  -0.206102  0  1.353043  0
F  F336  1  0.69882895  0.07990831  0.00648550  1  -0.614763  0  -0.097413  -0.207066  0  1.365887  0
F  F337  1  0.69882646  0.42009100  0.49351276  1  -0.614695  0  -0.097462  -0.207183  0  1.36573  0
F  F338  1  0.30117163  0.92009015  0.99351383  1  -0.614746  0  -0.097467  -0.207123  0  1.365899  0
F  F339  1  0.30117535  0.57990509  0.50648661  1  -0.614563  0  -0.097417  -0.207108  0  1.365776  0
F  F340  1  0.74227886  0.17851370  0.04401543  1  -0.620498  0  -0.098769  -0.20918  0  1.339003  0
F  F341  1  0.74227763  0.32148559  0.45598015  1  -0.620529  0  -0.098789  -0.209231  0  1.33892  0
F  F342  1  0.25771926  0.82148569  0.95598290  1  -0.62053  0  -0.098786  -0.209204  0  1.339013  0
F  F343  1  0.25772541  0.67851143  0.54401784  1  -0.620443  0  -0.098776  -0.209209  0  1.338982  0
F  F344  1  0.52991383  0.15458388  0.99319125  1  -0.610791  0  -0.102748  -0.203046  0  1.348815  0
F  F345  1  0.52991691  0.34541405  0.50680861  1  -0.610774  0  -0.102798  -0.203131  0  1.348665  0
F  F346  1  0.47008921  0.84541409  0.00680725  1  -0.610746  0  -0.102831  -0.203154  0  1.348715  0
F  F347  1  0.47008490  0.65458299  0.49319089  1  -0.61072  0  -0.102799  -0.203156  0  1.348604  0
