# generated using pymatgen
data_GdP3H21C18(NO4)3
_symmetry_space_group_name_H-M   'P 1'
_cell_length_a   9.95932425
_cell_length_b   13.09138458
_cell_length_c   13.09376496
_cell_angle_alpha   113.85127530
_cell_angle_beta   104.67520178
_cell_angle_gamma   104.66866976
_symmetry_Int_Tables_number   1
_chemical_formula_structural   GdP3H21C18(NO4)3
_chemical_formula_sum   'Gd2 P6 H42 C36 N6 O24'
_cell_volume   1383.03069659
_cell_formula_units_Z   2
loop_
 _symmetry_equiv_pos_site_id
 _symmetry_equiv_pos_as_xyz
  1  'x, y, z'
loop_
 _atom_site_type_symbol
 _atom_site_label
 _atom_site_symmetry_multiplicity
 _atom_site_fract_x
 _atom_site_fract_y
 _atom_site_fract_z
 _atom_site_occupancy
 _atom_site_hle17_bader_spin_density
 _atom_site_hle17_ddec_charge
 _atom_site_hle17_ddec_spin_density
 _atom_site_hle17_ddec_sum_bond_order
 _atom_site_hle17_magmom
 _atom_site_hse06_10hf_bader_spin_density
 _atom_site_hse06_10hf_ddec_charge
 _atom_site_hse06_10hf_ddec_spin_density
 _atom_site_hse06_10hf_ddec_sum_bond_order
 _atom_site_hse06_10hf_magmom
 _atom_site_hse06_bader_spin_density
 _atom_site_hse06_ddec_charge
 _atom_site_hse06_ddec_spin_density
 _atom_site_hse06_ddec_sum_bond_order
 _atom_site_hse06_magmom
 _atom_site_pbe_bader_spin_density
 _atom_site_pbe_cm5_charge
 _atom_site_pbe_ddec_charge
 _atom_site_pbe_ddec_spin_density
 _atom_site_pbe_ddec_sum_bond_order
 _atom_site_pbe_magmom
Gd  Gd0  1  0.00000212  0.99999932  0.99999769  1  0  2.359099  0  1.861854  0  0  2.271128  0  2.25783  0  0  2.321771  0  2.194196  0  0  1.531492  2.2237  0  2.321458  0
Gd  Gd1  1  0.50000790  0.99999977  0.00000475  1  0  2.266967  0  1.843704  0  0  2.170257  0  2.219406  0  0  2.223867  0  2.154955  0  0  1.512711  2.126472  0  2.272778  0
P  P2  1  0.76938481  0.92633232  0.16248297  1  0  1.479018  0  4.882071  0  0  1.323135  0  5.396126  0  0  1.372742  0  5.356994  0  0  0.350717  1.288352  0  5.421757  0
P  P3  1  0.84329120  0.23638285  0.07373971  1  0  1.479732  0  4.878641  0  0  1.324344  0  5.392286  0  0  1.373878  0  5.353086  0  0  0.350563  1.289524  0  5.418121  0
P  P4  1  0.60682701  0.83746598  0.76343674  1  0  1.479489  0  4.880897  0  0  1.323753  0  5.394892  0  0  1.373299  0  5.355711  0  0  0.350597  1.288953  0  5.420566  0
P  P5  1  0.23062314  0.07366109  0.83751163  1  0  1.47925  0  4.88189  0  0  1.32341  0  5.395896  0  0  1.373016  0  5.356762  0  0  0.350737  1.288622  0  5.421512  0
P  P6  1  0.15671178  0.76361511  0.92625887  1  0  1.479728  0  4.878717  0  0  1.3244  0  5.392349  0  0  1.373936  0  5.353148  0  0  0.350547  1.289581  0  5.418176  0
P  P7  1  0.39317401  0.16253838  0.23656787  1  0  1.479452  0  4.881007  0  0  1.32371  0  5.394998  0  0  1.373275  0  5.355824  0  0  0.350617  1.288926  0  5.420683  0
H  H8  1  0.68406111  0.47759489  0.17733017  1  0  0.1017  0  0.950018  0  0  0.110575  0  1.008964  0  0  0.114163  0  1.00536  0  0  0.127438  0.107836  0  1.011719  0
H  H9  1  0.20739832  0.70005841  0.52258801  1  0  0.101865  0  0.950753  0  0  0.111216  0  1.009072  0  0  0.114844  0  1.005385  0  0  0.127557  0.10831  0  1.012075  0
H  H10  1  0.50782255  0.82267435  0.29987206  1  0  0.101712  0  0.950416  0  0  0.110574  0  1.009547  0  0  0.114169  0  1.005923  0  0  0.127667  0.107817  0  1.012324  0
H  H11  1  0.31594280  0.52240490  0.82267084  1  0  0.101742  0  0.94995  0  0  0.110598  0  1.008916  0  0  0.114188  0  1.005307  0  0  0.127426  0.107861  0  1.011671  0
H  H12  1  0.79258383  0.29994139  0.47741349  1  0  0.101806  0  0.950838  0  0  0.111247  0  1.009029  0  0  0.114888  0  1.005323  0  0  0.127569  0.108279  0  1.012106  0
H  H13  1  0.49218345  0.17732544  0.70013165  1  0  0.101736  0  0.950329  0  0  0.110579  0  1.00948  0  0  0.114181  0  1.005851  0  0  0.127652  0.10782  0  1.012259  0
H  H14  1  0.56900177  0.63126727  0.17864104  1  0  0.122259  0  0.941989  0  0  0.131231  0  0.999503  0  0  0.134877  0  0.998572  0  0  0.113953  0.128573  0  1.000406  0
H  H15  1  0.93858096  0.54783390  0.36920646  1  0  0.120928  0  0.942879  0  0  0.129738  0  1.000688  0  0  0.133408  0  0.99973  0  0  0.113519  0.127055  0  1.001628  0
H  H16  1  0.39115016  0.82094547  0.45187344  1  0  0.121644  0  0.941696  0  0  0.130201  0  0.999534  0  0  0.133799  0  0.998659  0  0  0.113405  0.127532  0  1.000467  0
H  H17  1  0.43100304  0.36873435  0.82135859  1  0  0.122161  0  0.941997  0  0  0.131131  0  0.999536  0  0  0.134774  0  0.998609  0  0  0.11391  0.128472  0  1.000442  0
H  H18  1  0.06140527  0.45215952  0.63079398  1  0  0.120947  0  0.943007  0  0  0.129713  0  1.000841  0  0  0.133382  0  0.999883  0  0  0.113497  0.127032  0  1.001781  0
H  H19  1  0.60885608  0.17905068  0.54812730  1  0  0.121638  0  0.94157  0  0  0.130201  0  0.999408  0  0  0.133832  0  0.998493  0  0  0.113413  0.127532  0  1.00034  0
H  H20  1  0.80821834  0.70073037  0.96452271  1  0  0.142563  0  0.927879  0  0  0.150224  0  0.984622  0  0  0.154487  0  0.982944  0  0  0.128073  0.147104  0  0.986077  0
H  H21  1  0.10763704  0.26361683  0.29891165  1  0  0.142344  0  0.928421  0  0  0.150469  0  0.984678  0  0  0.154729  0  0.983001  0  0  0.127723  0.147302  0  0.986232  0
H  H22  1  0.84402456  0.03586748  0.73624190  1  0  0.142579  0  0.927944  0  0  0.150432  0  0.984441  0  0  0.154786  0  0.982641  0  0  0.128053  0.14725  0  0.985989  0
H  H23  1  0.19178487  0.29926395  0.03547061  1  0  0.142576  0  0.927966  0  0  0.15024  0  0.984701  0  0  0.154501  0  0.98302  0  0  0.128081  0.147119  0  0.986155  0
H  H24  1  0.89236357  0.73638479  0.70108185  1  0  0.142381  0  0.928423  0  0  0.150536  0  0.984641  0  0  0.1548  0  0.982963  0  0  0.12776  0.147371  0  0.986193  0
H  H25  1  0.15596570  0.96414235  0.26376290  1  0  0.142652  0  0.927888  0  0  0.150511  0  0.98438  0  0  0.154864  0  0.982582  0  0  0.128096  0.147328  0  0.985926  0
H  H26  1  0.90914917  0.54708115  0.97052554  1  0  0.106816  0  0.942286  0  0  0.114847  0  1.002735  0  0  0.118148  0  0.999372  0  0  0.12699  0.112495  0  1.00502  0
H  H27  1  0.36204612  0.42301434  0.45316178  1  0  0.107807  0  0.943283  0  0  0.1161  0  1.003313  0  0  0.119449  0  0.999937  0  0  0.127865  0.113714  0  1.005614  0
H  H28  1  0.93931109  0.02990062  0.57684760  1  0  0.106313  0  0.944305  0  0  0.114996  0  1.003924  0  0  0.118449  0  1.000395  0  0  0.127496  0.112546  0  1.006311  0
H  H29  1  0.09085799  0.45291682  0.02947611  1  0  0.106851  0  0.942267  0  0  0.11487  0  1.002722  0  0  0.118171  0  0.99936  0  0  0.127003  0.112519  0  1.005007  0
H  H30  1  0.63795159  0.57699184  0.54683379  1  0  0.107819  0  0.943272  0  0  0.116099  0  1.003306  0  0  0.119444  0  0.99993  0  0  0.127883  0.11371  0  1.00561  0
H  H31  1  0.06069253  0.97011103  0.42316047  1  0  0.106313  0  0.944299  0  0  0.11498  0  1.003925  0  0  0.118435  0  1.000395  0  0  0.127513  0.11253  0  1.006312  0
H  H32  1  0.57476636  0.75275411  0.97453143  1  0  0.092984  0  0.944844  0  0  0.100735  0  1.006096  0  0  0.102767  0  1.004872  0  0  0.123146  0.099263  0  1.007054  0
H  H33  1  0.82197164  0.22200322  0.24706489  1  0  0.093684  0  0.944625  0  0  0.101294  0  1.006131  0  0  0.103406  0  1.004758  0  0  0.123462  0.099764  0  1.007232  0
H  H34  1  0.60020673  0.02534674  0.77786851  1  0  0.093068  0  0.944642  0  0  0.100969  0  1.005654  0  0  0.103011  0  1.00437  0  0  0.123094  0.099372  0  1.006845  0
H  H35  1  0.42523834  0.24724112  0.02546177  1  0  0.093034  0  0.944922  0  0  0.100827  0  1.006115  0  0  0.102858  0  1.004892  0  0  0.123191  0.099349  0  1.007076  0
H  H36  1  0.17801657  0.77799840  0.75293238  1  0  0.093731  0  0.944589  0  0  0.101355  0  1.006119  0  0  0.103468  0  1.004744  0  0  0.12346  0.099827  0  1.007215  0
H  H37  1  0.39978403  0.97465579  0.22213343  1  0  0.093065  0  0.944645  0  0  0.100977  0  1.005629  0  0  0.103031  0  1.00435  0  0  0.123079  0.099391  0  1.006832  0
H  H38  1  0.76910860  0.93292076  0.36801347  1  0  0.326082  0  0.952863  0  0  0.294321  0  1.030685  0  0  0.305277  0  1.022034  0  0  0.297419  0.286673  0  1.036669  0
H  H39  1  0.83552575  0.43538499  0.06734115  1  0  0.32742  0  0.950467  0  0  0.295806  0  1.028063  0  0  0.306789  0  1.019355  0  0  0.297502  0.288126  0  1.034118  0
H  H40  1  0.40061874  0.63191124  0.56471451  1  0  0.326544  0  0.951173  0  0  0.29482  0  1.028969  0  0  0.30578  0  1.02029  0  0  0.297207  0.287055  0  1.035149  0
H  H41  1  0.23089175  0.06707812  0.63198880  1  0  0.326027  0  0.952928  0  0  0.294272  0  1.030746  0  0  0.305228  0  1.022096  0  0  0.297405  0.286625  0  1.036729  0
H  H42  1  0.16447712  0.56461480  0.93265967  1  0  0.327485  0  0.950421  0  0  0.29583  0  1.028077  0  0  0.306815  0  1.01937  0  0  0.297536  0.288152  0  1.034129  0
H  H43  1  0.59936786  0.36809129  0.43528588  1  0  0.32652  0  0.951167  0  0  0.294777  0  1.028989  0  0  0.305743  0  1.020307  0  0  0.297172  0.287016  0  1.035161  0
H  H44  1  0.42978591  0.79261732  0.07436742  1  0  0.377771  0  0.911339  0  0  0.35305  0  0.985548  0  0  0.363336  0  0.973931  0  0  0.296814  0.345686  0  0.993853  0
H  H45  1  0.63790846  0.28254861  0.20796502  1  0  0.378254  0  0.911264  0  0  0.353378  0  0.985389  0  0  0.363626  0  0.973847  0  0  0.297116  0.346031  0  0.993651  0
H  H46  1  0.35546474  0.92511394  0.71736879  1  0  0.376455  0  0.911601  0  0  0.351447  0  0.985946  0  0  0.361658  0  0.974505  0  0  0.296722  0.344207  0  0.993981  0
H  H47  1  0.57021418  0.20737700  0.92562455  1  0  0.377842  0  0.911258  0  0  0.353075  0  0.985532  0  0  0.363359  0  0.973922  0  0  0.296813  0.345713  0  0.99383  0
H  H48  1  0.36208807  0.71745301  0.79203687  1  0  0.378327  0  0.911129  0  0  0.353431  0  0.98529  0  0  0.36368  0  0.973744  0  0  0.297126  0.346082  0  0.993562  0
H  H49  1  0.64453453  0.07487856  0.28263450  1  0  0.376318  0  0.911774  0  0  0.351349  0  0.986032  0  0  0.361558  0  0.974601  0  0  0.29671  0.34411  0  0.994069  0
C  C50  1  0.70557197  0.53099039  0.13283629  1  0  0.137326  0  3.654154  0  0  0.098015  0  3.911359  0  0  0.106618  0  3.926451  0  0  0.060035  0.092568  0  3.901147  0
C  C51  1  0.17528087  0.60202899  0.46923081  1  0  0.13645  0  3.655632  0  0  0.097023  0  3.912488  0  0  0.105587  0  3.927583  0  0  0.059945  0.091523  0  3.902507  0
C  C52  1  0.57367282  0.86716174  0.39784718  1  0  0.138778  0  3.652597  0  0  0.099289  0  3.909686  0  0  0.107885  0  3.924727  0  0  0.060067  0.093887  0  3.899451  0
C  C53  1  0.29443151  0.46900849  0.86716733  1  0  0.13702  0  3.65431  0  0  0.09775  0  3.911502  0  0  0.10635  0  3.926596  0  0  0.059926  0.092303  0  3.901291  0
C  C54  1  0.82470279  0.39796351  0.53076418  1  0  0.136554  0  3.655194  0  0  0.097103  0  3.911947  0  0  0.105665  0  3.927035  0  0  0.059995  0.091647  0  3.901996  0
C  C55  1  0.42633140  0.13284079  0.60215272  1  0  0.138622  0  3.652615  0  0  0.099146  0  3.909698  0  0  0.107732  0  3.924756  0  0  0.060044  0.093743  0  3.899465  0
C  C56  1  0.64528420  0.61538977  0.13326468  1  0  -0.164917  0  3.699253  0  0  -0.186605  0  3.957458  0  0  -0.19546  0  3.978153  0  0  -0.08359  -0.181084  0  3.943813  0
C  C57  1  0.03056894  0.51816414  0.38491715  1  0  -0.159031  0  3.698809  0  0  -0.180519  0  3.956509  0  0  -0.189377  0  3.977226  0  0  -0.081505  -0.175025  0  3.942979  0
C  C58  1  0.51278107  0.86657141  0.48164196  1  0  -0.163178  0  3.698894  0  0  -0.183735  0  3.956434  0  0  -0.192523  0  3.977119  0  0  -0.081949  -0.178223  0  3.942787  0
C  C59  1  0.35471821  0.38460911  0.86673492  1  0  -0.164614  0  3.699172  0  0  -0.18633  0  3.957402  0  0  -0.195181  0  3.978102  0  0  -0.083481  -0.180813  0  3.943763  0
C  C60  1  0.96942877  0.48183565  0.61508575  1  0  -0.159051  0  3.698569  0  0  -0.180443  0  3.956298  0  0  -0.1893  0  3.977023  0  0  -0.081466  -0.17495  0  3.942756  0
C  C61  1  0.48721501  0.13342930  0.51835948  1  0  -0.163131  0  3.699054  0  0  -0.183679  0  3.956576  0  0  -0.192495  0  3.977248  0  0  -0.08194  -0.178163  0  3.942924  0
C  C62  1  0.67857397  0.67713400  0.07071557  1  0  0.15187  0  3.732145  0  0  0.156857  0  3.971828  0  0  0.164656  0  3.992611  0  0  0.025282  0.151618  0  3.958012  0
C  C63  1  0.00190211  0.39372373  0.32291284  1  0  0.150256  0  3.731796  0  0  0.155563  0  3.97152  0  0  0.163295  0  3.992298  0  0  0.025162  0.150235  0  3.957896  0
C  C64  1  0.60837270  0.92922586  0.60610229  1  0  0.151395  0  3.729633  0  0  0.155664  0  3.970372  0  0  0.163414  0  3.991136  0  0  0.025177  0.150454  0  3.956531  0
C  C65  1  0.32143050  0.32286488  0.92928213  1  0  0.151815  0  3.732104  0  0  0.156802  0  3.97181  0  0  0.164599  0  3.992591  0  0  0.025283  0.151563  0  3.957993  0
C  C66  1  0.99809109  0.60627333  0.67708428  1  0  0.150449  0  3.731691  0  0  0.155593  0  3.971693  0  0  0.163319  0  3.992476  0  0  0.025208  0.15027  0  3.958061  0
C  C67  1  0.39162715  0.07078032  0.39390208  1  0  0.151427  0  3.729741  0  0  0.155667  0  3.970505  0  0  0.163431  0  3.991284  0  0  0.025155  0.150473  0  3.956681  0
C  C68  1  0.77584774  0.65299673  0.01162355  1  0  -0.150262  0  3.661249  0  0  -0.16676  0  3.910058  0  0  -0.175721  0  3.929046  0  0  -0.065547  -0.161259  0  3.897929  0
C  C69  1  0.12312625  0.35855241  0.34691106  1  0  -0.15404  0  3.662882  0  0  -0.171355  0  3.91233  0  0  -0.180321  0  3.93132  0  0  -0.067754  -0.165823  0  3.900344  0
C  C70  1  0.76469040  0.98862216  0.64129446  1  0  -0.153556  0  3.661727  0  0  -0.170316  0  3.911402  0  0  -0.179375  0  3.930423  0  0  -0.0672  -0.164712  0  3.89921  0
C  C71  1  0.22415745  0.34699941  0.98837470  1  0  -0.150242  0  3.66122  0  0  -0.166732  0  3.909998  0  0  -0.175686  0  3.928983  0  0  -0.065583  -0.16123  0  3.897865  0
C  C72  1  0.87686952  0.64145194  0.65308493  1  0  -0.154219  0  3.662787  0  0  -0.171526  0  3.912279  0  0  -0.180495  0  3.931266  0  0  -0.067837  -0.165995  0  3.900291  0
C  C73  1  0.23530939  0.01139223  0.35871171  1  0  -0.153816  0  3.662122  0  0  -0.170608  0  3.911823  0  0  -0.179666  0  3.930837  0  0  -0.067278  -0.164999  0  3.899624  0
C  C74  1  0.83271988  0.56782900  0.01449801  1  0  0.143201  0  3.639044  0  0  0.101995  0  3.892182  0  0  0.111632  0  3.906457  0  0  0.06384  0.095693  0  3.882571  0
C  C75  1  0.26509281  0.44645237  0.43233558  1  0  0.144758  0  3.639488  0  0  0.103671  0  3.892803  0  0  0.113239  0  3.907086  0  0  0.064506  0.097363  0  3.883279  0
C  C76  1  0.81889268  0.98588242  0.55340223  1  0  0.146255  0  3.639508  0  0  0.104876  0  3.892423  0  0  0.114383  0  3.906694  0  0  0.064169  0.098657  0  3.882814  0
C  C77  1  0.16728506  0.43217079  0.98550320  1  0  0.143119  0  3.638997  0  0  0.101927  0  3.892122  0  0  0.111558  0  3.906401  0  0  0.063875  0.095624  0  3.88251  0
C  C78  1  0.73490484  0.55354742  0.56765891  1  0  0.144827  0  3.639721  0  0  0.103785  0  3.893  0  0  0.113362  0  3.907279  0  0  0.064573  0.097479  0  3.883475  0
C  C79  1  0.18110795  0.01412741  0.44660224  1  0  0.146395  0  3.639661  0  0  0.105055  0  3.892523  0  0  0.11456  0  3.906794  0  0  0.064213  0.098837  0  3.882912  0
C  C80  1  0.61506382  0.76783506  0.06828869  1  0  -0.111045  0  3.718924  0  0  -0.117738  0  3.975583  0  0  -0.12082  0  3.983195  0  0  -0.008551  -0.115773  0  3.970382  0
C  C81  1  0.84760261  0.30080774  0.23222238  1  0  -0.110383  0  3.715046  0  0  -0.117676  0  3.9724  0  0  -0.120616  0  3.979624  0  0  -0.008178  -0.115761  0  3.967605  0
C  C82  1  0.54699291  0.93157563  0.69905288  1  0  -0.10905  0  3.711711  0  0  -0.115854  0  3.968521  0  0  -0.118736  0  3.975732  0  0  -0.00804  -0.113984  0  3.963699  0
C  C83  1  0.38493927  0.23216109  0.93170611  1  0  -0.111122  0  3.718999  0  0  -0.117879  0  3.975734  0  0  -0.120952  0  3.983333  0  0  -0.008623  -0.115907  0  3.970529  0
C  C84  1  0.15239102  0.69919023  0.76777214  1  0  -0.110396  0  3.714931  0  0  -0.117756  0  3.972508  0  0  -0.12071  0  3.979764  0  0  -0.008144  -0.115835  0  3.967693  0
C  C85  1  0.45300522  0.06842507  0.30094589  1  0  -0.109034  0  3.711584  0  0  -0.11582  0  3.968351  0  0  -0.118764  0  3.975662  0  0  -0.008012  -0.114025  0  3.963663  0
N  N86  1  0.79631079  0.50859845  0.07356326  1  0  -0.232388  0  3.440168  0  0  -0.160377  0  3.672143  0  0  -0.17626  0  3.68748  0  0  -0.336684  -0.149946  0  3.661699  0
N  N87  1  0.28813932  0.56490904  0.49161229  1  0  -0.234643  0  3.440769  0  0  -0.163061  0  3.673763  0  0  -0.1789  0  3.689088  0  0  -0.338743  -0.152618  0  3.663502  0
N  N88  1  0.72363433  0.92664345  0.43497376  1  0  -0.235104  0  3.43896  0  0  -0.163441  0  3.672244  0  0  -0.17931  0  3.68762  0  0  -0.338285  -0.153023  0  3.661782  0
N  N89  1  0.20369637  0.49139952  0.92643915  1  0  -0.232269  0  3.440357  0  0  -0.160237  0  3.672311  0  0  -0.176117  0  3.687652  0  0  -0.33665  -0.149805  0  3.661867  0
N  N90  1  0.71185222  0.43509714  0.50838975  1  0  -0.234756  0  3.441063  0  0  -0.163195  0  3.674089  0  0  -0.179046  0  3.689419  0  0  -0.338846  -0.152746  0  3.663807  0
N  N91  1  0.27636922  0.07336181  0.56503171  1  0  -0.234975  0  3.438865  0  0  -0.163316  0  3.672125  0  0  -0.179187  0  3.687506  0  0  -0.338262  -0.152896  0  3.661664  0
O  O92  1  0.67929762  0.00687303  0.15530507  1  0  -0.971366  0  2.02233  0  0  -0.895275  0  2.290413  0  0  -0.922681  0  2.268824  0  0  -0.471268  -0.874504  0  2.304817  0
O  O93  1  0.67275961  0.14834000  0.99326998  1  0  -0.971527  0  2.022913  0  0  -0.895615  0  2.291034  0  0  -0.923174  0  2.269718  0  0  -0.471572  -0.874838  0  2.305746  0
O  O94  1  0.52355115  0.84467429  0.85092068  1  0  -0.972109  0  2.023411  0  0  -0.89612  0  2.291502  0  0  -0.923647  0  2.27015  0  0  -0.471691  -0.875372  0  2.305987  0
O  O95  1  0.32071464  0.99312677  0.84470363  1  0  -0.971451  0  2.022173  0  0  -0.895331  0  2.290236  0  0  -0.922742  0  2.268643  0  0  -0.471227  -0.87464  0  2.30483  0
O  O96  1  0.32724558  0.85165614  0.00672827  1  0  -0.971508  0  2.022865  0  0  -0.895644  0  2.290982  0  0  -0.923206  0  2.269666  0  0  -0.471581  -0.874864  0  2.305693  0
O  O97  1  0.47646508  0.15533553  0.14909208  1  0  -0.972238  0  2.023671  0  0  -0.896252  0  2.291749  0  0  -0.92378  0  2.27039  0  0  -0.471698  -0.875498  0  2.306213  0
O  O98  1  0.87839817  0.93221581  0.09984138  1  0  -0.965038  0  2.000338  0  0  -0.903291  0  2.285919  0  0  -0.929755  0  2.263444  0  0  -0.473702  -0.882246  0  2.301176  0
O  O99  1  0.94653406  0.16790844  0.06784972  1  0  -0.96406  0  1.997254  0  0  -0.902503  0  2.282823  0  0  -0.928931  0  2.260307  0  0  -0.473326  -0.881369  0  2.298178  0
O  O100  1  0.77842671  0.90013250  0.83232358  1  0  -0.964731  0  1.99744  0  0  -0.903067  0  2.282896  0  0  -0.929527  0  2.260475  0  0  -0.473094  -0.881973  0  2.298261  0
O  O101  1  0.12160459  0.06777760  0.90015148  1  0  -0.965124  0  2.000198  0  0  -0.903432  0  2.285874  0  0  -0.929896  0  2.263394  0  0  -0.47373  -0.882381  0  2.301126  0
O  O102  1  0.05347570  0.83209683  0.93215386  1  0  -0.964091  0  1.99734  0  0  -0.902528  0  2.28288  0  0  -0.928946  0  2.260346  0  0  -0.473355  -0.881396  0  2.298246  0
O  O103  1  0.22157676  0.09987277  0.16767270  1  0  -0.964683  0  1.997525  0  0  -0.903022  0  2.282998  0  0  -0.929483  0  2.260573  0  0  -0.473055  -0.881921  0  2.29834  0
O  O104  1  0.84308232  0.95099967  0.29177089  1  0  -0.823909  0  1.935633  0  0  -0.752088  0  2.177002  0  0  -0.777215  0  2.158335  0  0  -0.383985  -0.734136  0  2.189272  0
O  O105  1  0.89194877  0.34101993  0.04903971  1  0  -0.825802  0  1.932077  0  0  -0.754204  0  2.173081  0  0  -0.779289  0  2.154356  0  0  -0.384015  -0.736208  0  2.185361  0
O  O106  1  0.55134362  0.70815890  0.65865720  1  0  -0.824589  0  1.933654  0  0  -0.752763  0  2.174859  0  0  -0.777861  0  2.156187  0  0  -0.383493  -0.734654  0  2.187157  0
O  O107  1  0.15692091  0.04898006  0.70822261  1  0  -0.823905  0  1.935655  0  0  -0.752116  0  2.177027  0  0  -0.777239  0  2.158358  0  0  -0.383986  -0.734159  0  2.189298  0
O  O108  1  0.10805063  0.65897713  0.95095553  1  0  -0.825821  0  1.932142  0  0  -0.7542  0  2.173133  0  0  -0.779296  0  2.154425  0  0  -0.384007  -0.736202  0  2.185411  0
O  O109  1  0.44864775  0.29184273  0.34134678  1  0  -0.82455  0  1.933659  0  0  -0.752728  0  2.174882  0  0  -0.777817  0  2.156188  0  0  -0.383544  -0.734628  0  2.187182  0
O  O110  1  0.49659522  0.75999931  0.11061570  1  0  -0.534152  0  2.088186  0  0  -0.493586  0  2.310737  0  0  -0.508878  0  2.301454  0  0  -0.397225  -0.482345  0  2.316918  0
O  O111  1  0.73725867  0.35130672  0.24020768  1  0  -0.534383  0  2.08579  0  0  -0.493306  0  2.308654  0  0  -0.508623  0  2.299289  0  0  -0.397894  -0.482069  0  2.314996  0
O  O112  1  0.38618601  0.88912374  0.64853377  1  0  -0.533084  0  2.085967  0  0  -0.492031  0  2.309093  0  0  -0.507382  0  2.299875  0  0  -0.397119  -0.480648  0  2.315197  0
O  O113  1  0.50340591  0.23999501  0.88937722  1  0  -0.534258  0  2.088214  0  0  -0.493631  0  2.310783  0  0  -0.508937  0  2.301517  0  0  -0.397226  -0.482364  0  2.316903  0
O  O114  1  0.26273642  0.64869216  0.75978290  1  0  -0.534503  0  2.085614  0  0  -0.493347  0  2.308482  0  0  -0.508658  0  2.299118  0  0  -0.397906  -0.48211  0  2.314826  0
O  O115  1  0.61381104  0.11087059  0.35146755  1  0  -0.53291  0  2.086007  0  0  -0.4919  0  2.309144  0  0  -0.507247  0  2.299972  0  0  -0.397107  -0.480493  0  2.31527  0
