# generated using pymatgen
data_CaH3C4N11O
_symmetry_space_group_name_H-M   'P 1'
_cell_length_a   6.59079716
_cell_length_b   9.90986022
_cell_length_c   12.87116283
_cell_angle_alpha   90.00005151
_cell_angle_beta   89.99996530
_cell_angle_gamma   91.84384918
_symmetry_Int_Tables_number   1
_chemical_formula_structural   CaH3C4N11O
_chemical_formula_sum   'Ca4 H12 C16 N44 O4'
_cell_volume   840.23029378
_cell_formula_units_Z   4
loop_
 _symmetry_equiv_pos_site_id
 _symmetry_equiv_pos_as_xyz
  1  'x, y, z'
loop_
 _atom_site_type_symbol
 _atom_site_label
 _atom_site_symmetry_multiplicity
 _atom_site_fract_x
 _atom_site_fract_y
 _atom_site_fract_z
 _atom_site_occupancy
 _atom_site_hle17_bader_spin_density
 _atom_site_hle17_ddec_charge
 _atom_site_hle17_ddec_spin_density
 _atom_site_hle17_ddec_sum_bond_order
 _atom_site_hle17_magmom
 _atom_site_hse06_10hf_bader_spin_density
 _atom_site_hse06_10hf_ddec_charge
 _atom_site_hse06_10hf_ddec_spin_density
 _atom_site_hse06_10hf_ddec_sum_bond_order
 _atom_site_hse06_10hf_magmom
 _atom_site_hse06_bader_spin_density
 _atom_site_hse06_ddec_charge
 _atom_site_hse06_ddec_spin_density
 _atom_site_hse06_ddec_sum_bond_order
 _atom_site_hse06_magmom
 _atom_site_pbe_bader_spin_density
 _atom_site_pbe_cm5_charge
 _atom_site_pbe_ddec_charge
 _atom_site_pbe_ddec_spin_density
 _atom_site_pbe_ddec_sum_bond_order
 _atom_site_pbe_magmom
Ca  Ca0  1  0.29823814  0.86016862  0.12396108  1  0  1.359537  0  1.257772  0  0  1.186854  0  1.62857  0  0  1.227812  0  1.59341  0  0  0.954183  1.156401  0  1.653677  0
Ca  Ca1  1  0.20176211  0.63983110  0.62396091  1  0  1.359523  0  1.257795  0  0  1.186835  0  1.628613  0  0  1.227777  0  1.59346  0  0  0.95417  1.15638  0  1.653723  0
Ca  Ca2  1  0.70176186  0.13983055  0.87603967  1  0  1.359561  0  1.257748  0  0  1.186838  0  1.628594  0  0  1.227797  0  1.593436  0  0  0.954185  1.156391  0  1.653698  0
Ca  Ca3  1  0.79823794  0.36016908  0.37604062  1  0  1.359549  0  1.257761  0  0  1.186818  0  1.628651  0  0  1.227758  0  1.593497  0  0  0.954178  1.156363  0  1.653756  0
H  H4  1  0.93289365  0.85337443  0.98174362  1  0  0.394204  0  0.921299  0  0  0.349283  0  1.010591  0  0  0.360292  0  0.994586  0  0  0.295404  0.341496  0  1.021891  0
H  H5  1  0.56710716  0.64662481  0.48174449  1  0  0.394217  0  0.921292  0  0  0.349292  0  1.01058  0  0  0.3603  0  0.994577  0  0  0.295408  0.341505  0  1.021881  0
H  H6  1  0.06710635  0.14662474  0.01825558  1  0  0.39419  0  0.921344  0  0  0.349271  0  1.010615  0  0  0.360279  0  0.994611  0  0  0.295397  0.341483  0  1.021916  0
H  H7  1  0.43289284  0.35337436  0.51825549  1  0  0.394215  0  0.92131  0  0  0.349298  0  1.010577  0  0  0.360305  0  0.994574  0  0  0.295415  0.341509  0  1.021879  0
H  H8  1  0.84732815  0.83345194  0.09512987  1  0  0.413183  0  0.878975  0  0  0.376213  0  0.962608  0  0  0.386288  0  0.94784  0  0  0.303033  0.368848  0  0.973479  0
H  H9  1  0.65267468  0.66654786  0.59513051  1  0  0.41318  0  0.879051  0  0  0.376213  0  0.962622  0  0  0.386288  0  0.947856  0  0  0.303024  0.368847  0  0.973497  0
H  H10  1  0.15267337  0.16654723  0.90486933  1  0  0.413287  0  0.878908  0  0  0.376272  0  0.962573  0  0  0.386347  0  0.947805  0  0  0.303067  0.368903  0  0.973454  0
H  H11  1  0.34732694  0.33345333  0.40486947  1  0  0.413192  0  0.879046  0  0  0.376226  0  0.962606  0  0  0.386298  0  0.947843  0  0  0.303036  0.36886  0  0.97348  0
H  H12  1  0.83066975  0.51788831  0.85338216  1  0  0.271692  0  0.932207  0  0  0.221698  0  1.049287  0  0  0.231646  0  1.039698  0  0  0.335695  0.214738  0  1.05587  0
H  H13  1  0.66933143  0.98211483  0.35338245  1  0  0.271642  0  0.932274  0  0  0.221684  0  1.049342  0  0  0.231631  0  1.039757  0  0  0.335703  0.214723  0  1.055924  0
H  H14  1  0.16932884  0.48211289  0.14661704  1  0  0.271635  0  0.932263  0  0  0.221674  0  1.049349  0  0  0.231621  0  1.039765  0  0  0.335688  0.214711  0  1.055934  0
H  H15  1  0.33067025  0.01788738  0.64661753  1  0  0.271673  0  0.932236  0  0  0.221675  0  1.04932  0  0  0.231621  0  1.039733  0  0  0.335696  0.214714  0  1.055903  0
C  C16  1  0.65039486  0.26097896  0.11752007  1  0  0.28543  0  3.804582  0  0  0.25669  0  4.082971  0  0  0.2671  0  4.097667  0  0  0.234216  0.249742  0  4.072884  0
C  C17  1  0.84960524  0.23902038  0.61752070  1  0  0.285479  0  3.804575  0  0  0.256742  0  4.082952  0  0  0.267154  0  4.097646  0  0  0.234237  0.249797  0  4.072865  0
C  C18  1  0.34960665  0.73902021  0.88248069  1  0  0.285548  0  3.804664  0  0  0.256703  0  4.083163  0  0  0.267114  0  4.097858  0  0  0.234152  0.249758  0  4.073078  0
C  C19  1  0.15039026  0.76097982  0.38248006  1  0  0.285405  0  3.804811  0  0  0.25664  0  4.083189  0  0  0.267052  0  4.097885  0  0  0.234153  0.249702  0  4.073103  0
C  C20  1  0.70047536  0.38549062  0.06269367  1  0  0.061522  0  3.731349  0  0  0.048057  0  4.000715  0  0  0.051451  0  4.016066  0  0  0.125734  0.045856  0  3.99031  0
C  C21  1  0.79952486  0.11450966  0.56269578  1  0  0.061395  0  3.73146  0  0  0.047927  0  4.000816  0  0  0.051322  0  4.01617  0  0  0.125652  0.045725  0  3.990409  0
C  C22  1  0.29952924  0.61450956  0.93730553  1  0  0.06136  0  3.73152  0  0  0.047985  0  4.000808  0  0  0.051388  0  4.016164  0  0  0.125747  0.04578  0  3.990408  0
C  C23  1  0.20046912  0.88549054  0.43730575  1  0  0.06146  0  3.73154  0  0  0.048062  0  4.000768  0  0  0.051456  0  4.016121  0  0  0.125725  0.045833  0  3.990398  0
C  C24  1  0.70733911  0.52531425  0.08685470  1  0  0.037321  0  3.73084  0  0  0.029156  0  4.005674  0  0  0.029708  0  4.021033  0  0  0.116532  0.028575  0  3.99537  0
C  C25  1  0.79266076  0.97468657  0.58685551  1  0  0.037398  0  3.730825  0  0  0.029248  0  4.005634  0  0  0.029796  0  4.021003  0  0  0.116549  0.028665  0  3.99533  0
C  C26  1  0.29266089  0.47468493  0.91314528  1  0  0.03736  0  3.730813  0  0  0.029173  0  4.005628  0  0  0.029704  0  4.021016  0  0  0.11652  0.028596  0  3.995323  0
C  C27  1  0.20733783  0.02531463  0.41314602  1  0  0.037301  0  3.730883  0  0  0.029164  0  4.005634  0  0  0.029718  0  4.020993  0  0  0.116558  0.028591  0  3.995333  0
C  C28  1  0.66315007  0.60060818  0.18024489  1  0  0.287873  0  3.827241  0  0  0.257724  0  4.104523  0  0  0.269058  0  4.11947  0  0  0.228978  0.250218  0  4.094323  0
C  C29  1  0.83685115  0.89939173  0.68024642  1  0  0.287818  0  3.827312  0  0  0.257673  0  4.104586  0  0  0.269007  0  4.119539  0  0  0.228979  0.250169  0  4.094387  0
C  C30  1  0.33685139  0.39938999  0.81975275  1  0  0.287882  0  3.827369  0  0  0.257759  0  4.104611  0  0  0.2691  0  4.119562  0  0  0.228991  0.250254  0  4.094413  0
C  C31  1  0.16314896  0.10060946  0.31975356  1  0  0.287862  0  3.827235  0  0  0.257726  0  4.104471  0  0  0.269058  0  4.11942  0  0  0.228975  0.250221  0  4.094267  0
N  N32  1  0.65578875  0.23534060  0.22014559  1  0  -0.352166  0  3.022915  0  0  -0.311659  0  3.309971  0  0  -0.325297  0  3.324288  0  0  -0.263455  -0.301758  0  3.299871  0
N  N33  1  0.84421281  0.26465986  0.72014702  1  0  -0.352213  0  3.022953  0  0  -0.311712  0  3.310015  0  0  -0.325358  0  3.324337  0  0  -0.263486  -0.301814  0  3.299919  0
N  N34  1  0.34421737  0.76465958  0.77985516  1  0  -0.352252  0  3.023033  0  0  -0.311727  0  3.310119  0  0  -0.325368  0  3.324441  0  0  -0.26346  -0.301827  0  3.300023  0
N  N35  1  0.15578269  0.73534033  0.27985529  1  0  -0.352186  0  3.023056  0  0  -0.311687  0  3.31012  0  0  -0.325333  0  3.324445  0  0  -0.263461  -0.301787  0  3.300017  0
N  N36  1  0.74847836  0.37356976  0.96108179  1  0  -0.26797  0  3.046953  0  0  -0.246737  0  3.323252  0  0  -0.253991  0  3.339192  0  0  -0.240275  -0.241443  0  3.312643  0
N  N37  1  0.75152139  0.12643098  0.46108337  1  0  -0.267936  0  3.046958  0  0  -0.246695  0  3.32324  0  0  -0.253946  0  3.339177  0  0  -0.240249  -0.241397  0  3.312625  0
N  N38  1  0.25152619  0.62642941  0.03891663  1  0  -0.267867  0  3.046947  0  0  -0.246658  0  3.323217  0  0  -0.253914  0  3.339158  0  0  -0.240249  -0.241362  0  3.312609  0
N  N39  1  0.24847720  0.87357022  0.53891816  1  0  -0.267914  0  3.046955  0  0  -0.246709  0  3.323227  0  0  -0.253963  0  3.339168  0  0  -0.240241  -0.241406  0  3.312625  0
N  N40  1  0.60706780  0.76754822  0.28151320  1  0  -0.104483  0  3.005846  0  0  -0.094547  0  3.306014  0  0  -0.095673  0  3.31955  0  0  -0.093959  -0.093714  0  3.297046  0
N  N41  1  0.89293173  0.73245079  0.78151226  1  0  -0.10449  0  3.005888  0  0  -0.094545  0  3.306049  0  0  -0.095669  0  3.319583  0  0  -0.093965  -0.093713  0  3.297086  0
N  N42  1  0.39293074  0.23245197  0.71848678  1  0  -0.1045  0  3.005905  0  0  -0.09456  0  3.306066  0  0  -0.095684  0  3.319601  0  0  -0.093966  -0.093726  0  3.297102  0
N  N43  1  0.10706827  0.26754838  0.21848772  1  0  -0.104487  0  3.00591  0  0  -0.094542  0  3.306083  0  0  -0.095664  0  3.319616  0  0  -0.093962  -0.09371  0  3.297118  0
N  N44  1  0.57380370  0.05137755  0.13582371  1  0  -0.133374  0  3.101715  0  0  -0.10543  0  3.400079  0  0  -0.108873  0  3.413325  0  0  -0.125046  -0.10249  0  3.390844  0
N  N45  1  0.92619638  0.44862181  0.63582447  1  0  -0.13348  0  3.101653  0  0  -0.105546  0  3.40002  0  0  -0.108986  0  3.413262  0  0  -0.125111  -0.102603  0  3.390788  0
N  N46  1  0.42619792  0.94862365  0.86417548  1  0  -0.13329  0  3.101518  0  0  -0.10534  0  3.399875  0  0  -0.108783  0  3.413121  0  0  -0.124986  -0.102399  0  3.390643  0
N  N47  1  0.07380210  0.55137737  0.36417551  1  0  -0.133271  0  3.101564  0  0  -0.105324  0  3.399925  0  0  -0.108761  0  3.413167  0  0  -0.124986  -0.102383  0  3.390691  0
N  N48  1  0.76129107  0.59361370  0.99947000  1  0  -0.165347  0  2.893253  0  0  -0.17234  0  3.17858  0  0  -0.17265  0  3.19126  0  0  -0.178737  -0.17188  0  3.170193  0
N  N49  1  0.73870972  0.90638557  0.49946945  1  0  -0.165368  0  2.893251  0  0  -0.172378  0  3.178603  0  0  -0.172688  0  3.191287  0  0  -0.178738  -0.171919  0  3.170213  0
N  N50  1  0.23870752  0.40638750  0.00052919  1  0  -0.16539  0  2.893345  0  0  -0.172389  0  3.178683  0  0  -0.172695  0  3.191371  0  0  -0.17875  -0.171931  0  3.170294  0
N  N51  1  0.26129175  0.09361259  0.50052975  1  0  -0.165342  0  2.893208  0  0  -0.172356  0  3.178514  0  0  -0.17267  0  3.191194  0  0  -0.178761  -0.171897  0  3.170122  0
N  N52  1  0.65480386  0.55127660  0.27733090  1  0  -0.366642  0  3.052326  0  0  -0.323642  0  3.330183  0  0  -0.338807  0  3.345981  0  0  -0.276244  -0.313535  0  3.319626  0
N  N53  1  0.84519410  0.94872141  0.77732935  1  0  -0.366646  0  3.052417  0  0  -0.323642  0  3.33028  0  0  -0.338811  0  3.346083  0  0  -0.276289  -0.313537  0  3.319725  0
N  N54  1  0.34519614  0.44872258  0.72266985  1  0  -0.366688  0  3.052399  0  0  -0.323695  0  3.330257  0  0  -0.338861  0  3.346055  0  0  -0.276281  -0.313588  0  3.319704  0
N  N55  1  0.15480595  0.05127878  0.22266985  1  0  -0.366635  0  3.052375  0  0  -0.323645  0  3.330236  0  0  -0.338813  0  3.346038  0  0  -0.276276  -0.313538  0  3.319678  0
N  N56  1  0.78354542  0.49907981  0.92894487  1  0  0.001201  0  3.580887  0  0  0.062425  0  3.835615  0  0  0.054422  0  3.853681  0  0  -0.131635  0.067656  0  3.823685  0
N  N57  1  0.71645280  0.00091989  0.42894482  1  0  0.001282  0  3.580982  0  0  0.062467  0  3.835665  0  0  0.054469  0  3.853728  0  0  -0.131622  0.0677  0  3.823728  0
N  N58  1  0.21645312  0.50092038  0.07105433  1  0  0.001289  0  3.580847  0  0  0.062479  0  3.835497  0  0  0.054479  0  3.853564  0  0  -0.13162  0.067714  0  3.823565  0
N  N59  1  0.28354871  0.99907928  0.57105515  1  0  0.001233  0  3.580788  0  0  0.062464  0  3.83552  0  0  0.054467  0  3.853583  0  0  -0.131633  0.067695  0  3.823584  0
N  N60  1  0.60054983  0.14770804  0.06386133  1  0  -0.342865  0  3.040064  0  0  -0.299772  0  3.31908  0  0  -0.313199  0  3.333752  0  0  -0.259546  -0.290461  0  3.308723  0
N  N61  1  0.89944883  0.35229124  0.56386202  1  0  -0.342813  0  3.040076  0  0  -0.299718  0  3.319082  0  0  -0.313142  0  3.333752  0  0  -0.259534  -0.290406  0  3.308724  0
N  N62  1  0.39945629  0.85229214  0.93613865  1  0  -0.342925  0  3.039949  0  0  -0.299816  0  3.318998  0  0  -0.313241  0  3.333668  0  0  -0.259572  -0.290503  0  3.308642  0
N  N63  1  0.10054511  0.64770795  0.43613873  1  0  -0.342867  0  3.040018  0  0  -0.299782  0  3.31904  0  0  -0.313204  0  3.333706  0  0  -0.259561  -0.290469  0  3.30868  0
N  N64  1  0.63160580  0.73498959  0.18054873  1  0  -0.39235  0  3.064632  0  0  -0.343398  0  3.343854  0  0  -0.358099  0  3.357665  0  0  -0.24962  -0.333205  0  3.334811  0
N  N65  1  0.86839233  0.76500932  0.68054859  1  0  -0.392387  0  3.064738  0  0  -0.343443  0  3.343962  0  0  -0.358141  0  3.357769  0  0  -0.249627  -0.333246  0  3.334918  0
N  N66  1  0.36839268  0.26500959  0.81945125  1  0  -0.392359  0  3.064851  0  0  -0.343391  0  3.344053  0  0  -0.358093  0  3.357863  0  0  -0.249608  -0.333196  0  3.335013  0
N  N67  1  0.13160924  0.23499086  0.31945138  1  0  -0.392385  0  3.06476  0  0  -0.34344  0  3.343968  0  0  -0.358138  0  3.357775  0  0  -0.249627  -0.333247  0  3.334926  0
N  N68  1  0.60781128  0.10273044  0.22894430  1  0  -0.071626  0  3.01089  0  0  -0.05924  0  3.311105  0  0  -0.058934  0  3.3236  0  0  -0.076825  -0.058911  0  3.302295  0
N  N69  1  0.89218875  0.39727004  0.72894502  1  0  -0.071525  0  3.010883  0  0  -0.059126  0  3.311066  0  0  -0.058817  0  3.323561  0  0  -0.076733  -0.058797  0  3.302261  0
N  N70  1  0.39219035  0.89727076  0.77105568  1  0  -0.071632  0  3.010882  0  0  -0.05924  0  3.311086  0  0  -0.058932  0  3.323583  0  0  -0.076825  -0.058912  0  3.302283  0
N  N71  1  0.10780973  0.60272914  0.27105573  1  0  -0.071676  0  3.010904  0  0  -0.059292  0  3.311137  0  0  -0.058985  0  3.323635  0  0  -0.076839  -0.058963  0  3.30233  0
N  N72  1  0.61914132  0.65815881  0.33884442  1  0  -0.060922  0  3.021786  0  0  -0.032688  0  3.304192  0  0  -0.033819  0  3.316777  0  0  -0.070271  -0.031942  0  3.295962  0
N  N73  1  0.88085814  0.84184027  0.83884356  1  0  -0.060863  0  3.021738  0  0  -0.032654  0  3.30418  0  0  -0.033786  0  3.316767  0  0  -0.070231  -0.031907  0  3.295953  0
N  N74  1  0.38085716  0.34184037  0.66115633  1  0  -0.060859  0  3.021792  0  0  -0.032656  0  3.304245  0  0  -0.033787  0  3.316831  0  0  -0.07025  -0.031909  0  3.296017  0
N  N75  1  0.11914343  0.15815991  0.16115642  1  0  -0.060866  0  3.021751  0  0  -0.032656  0  3.304192  0  0  -0.033789  0  3.316778  0  0  -0.070243  -0.031912  0  3.295963  0
O  O76  1  0.96584861  0.86910173  0.05625071  1  0  -0.854242  0  1.912551  0  0  -0.798634  0  2.125702  0  0  -0.818422  0  2.09485  0  0  -0.628154  -0.784184  0  2.147676  0
O  O77  1  0.53415557  0.63089399  0.55625136  1  0  -0.85423  0  1.912583  0  0  -0.798623  0  2.125674  0  0  -0.818405  0  2.094828  0  0  -0.628143  -0.784167  0  2.147652  0
O  O78  1  0.03415577  0.13089441  0.94374849  1  0  -0.854318  0  1.912452  0  0  -0.798686  0  2.125549  0  0  -0.81847  0  2.094703  0  0  -0.628171  -0.784229  0  2.147527  0
O  O79  1  0.46584448  0.36910620  0.44374862  1  0  -0.854253  0  1.912628  0  0  -0.798649  0  2.1257  0  0  -0.818425  0  2.094856  0  0  -0.628155  -0.784193  0  2.147678  0
