# generated using pymatgen
data_Zn2H27C36N9O2
_symmetry_space_group_name_H-M   'P 1'
_cell_length_a   14.76928808
_cell_length_b   14.97704685
_cell_length_c   14.90024393
_cell_angle_alpha   104.27329709
_cell_angle_beta   120.97308504
_cell_angle_gamma   102.86220611
_symmetry_Int_Tables_number   1
_chemical_formula_structural   Zn2H27C36N9O2
_chemical_formula_sum   'Zn4 H54 C72 N18 O4'
_cell_volume   2484.71212869
_cell_formula_units_Z   2
loop_
 _symmetry_equiv_pos_site_id
 _symmetry_equiv_pos_as_xyz
  1  'x, y, z'
loop_
 _atom_site_type_symbol
 _atom_site_label
 _atom_site_symmetry_multiplicity
 _atom_site_fract_x
 _atom_site_fract_y
 _atom_site_fract_z
 _atom_site_occupancy
 _atom_site_pbe_bader_charge
 _atom_site_pbe_bader_spin_density
 _atom_site_pbe_cm5_charge
 _atom_site_pbe_ddec_charge
 _atom_site_pbe_ddec_spin_density
 _atom_site_pbe_ddec_sum_bond_order
 _atom_site_pbe_magmom
Zn  Zn0  1  0.11759605  0.62217868  0.98288966  1  1.189315  0  0.750816  0.603559  0  2.496117  0
Zn  Zn1  1  0.90092511  0.38447606  0.02533003  1  1.185783  0  0.748996  0.602365  0  2.494928  0
Zn  Zn2  1  0.84294147  0.49313544  0.84645301  1  1.189977  0  0.74604  0.613342  0  2.448672  0
Zn  Zn3  1  0.17745656  0.51238783  0.15788843  1  1.193711  0  0.742568  0.616787  0  2.420251  0
H  H4  1  0.11445542  0.81462491  0.91057719  1  0.09517  0  0.114952  0.101113  0  1.013043  0
H  H5  1  0.84680763  0.17984193  0.82951587  1  0.090463  0  0.113391  0.101745  0  1.016776  0
H  H6  1  0.91515907  0.31310684  0.22592338  1  0.093782  0  0.116786  0.103998  0  0.999786  0
H  H7  1  0.16762029  0.47926136  0.83640209  1  0.094409  0  0.114843  0.101293  0  1.013256  0
H  H8  1  0.80366324  0.66720716  0.96981969  1  0.099761  0  0.110192  0.098225  0  1.05025  0
H  H9  1  0.43569387  0.53163739  0.22816341  1  0.129338  0  0.110857  0.09929  0  1.056092  0
H  H10  1  0.25883622  0.70584804  0.38977872  1  0.114619  0  0.116309  0.11031  0  1.007062  0
H  H11  1  0.57914934  0.31844920  0.62328164  1  0.100564  0  0.119122  0.112276  0  0.997729  0
H  H12  1  0.89612461  0.53371670  0.21422848  1  0.092678  0  0.117585  0.105809  0  1.005445  0
H  H13  1  0.37044710  0.70037350  0.02069132  1  0.064832  0  0.113816  0.099332  0  1.016081  0
H  H14  1  0.15776760  0.83503541  0.14129085  1  0.0775  0  0.117194  0.106183  0  1.020412  0
H  H15  1  0.64934077  0.17749096  0.85865103  1  0.09346  0  0.119186  0.110752  0  1.007855  0
H  H16  1  0.28219340  0.49509250  0.41162906  1  0.071224  0  0.111732  0.099567  0  1.011135  0
H  H17  1  0.79300275  0.30898724  0.62181983  1  0.118387  0  0.109041  0.097438  0  1.051146  0
H  H18  1  0.74754866  0.65662441  0.74598840  1  0.084442  0  0.112308  0.097564  0  1.027479  0
H  H19  1  0.21957347  0.34271728  0.01999035  1  0.061996  0  0.11429  0.103798  0  1.004561  0
H  H20  1  0.87723631  0.02740395  0.80030594  1  0.034112  0  0.093786  0.091169  0  0.999755  0
H  H21  1  0.06351637  0.94562837  0.83695451  1  0.044211  0  0.095967  0.094228  0  0.995501  0
H  H22  1  0.13003860  0.13194737  0.88710744  1  0.049091  0  0.093506  0.091597  0  1.013643  0
H  H23  1  0.81663139  0.85544155  0.76966687  1  0.047347  0  0.090797  0.082712  0  1.041805  0
H  H24  1  0.49565096  0.90551855  0.10104973  1  0.06272  0  0.099041  0.093669  0  0.997588  0
H  H25  1  0.35887833  0.20650024  0.94193776  1  0.055223  0  0.099885  0.094758  0  0.998786  0
H  H26  1  0.57991602  0.85286837  0.26189149  1  0.078053  0  0.103651  0.104537  0  1.006003  0
H  H27  1  0.27635439  0.25242665  0.77494588  1  0.069756  0  0.105566  0.104959  0  0.990892  0
H  H28  1  0.52962613  0.88447274  0.39903845  1  0.04926  0  0.10117  0.103184  0  0.991649  0
H  H29  1  0.28741160  0.17694677  0.61449115  1  0.066132  0  0.104719  0.10728  0  0.990862  0
H  H30  1  0.36126743  0.98783075  0.07771553  1  0.048827  0  0.096582  0.095754  0  1.009114  0
H  H31  1  0.44717180  0.08333490  0.94410246  1  0.05384  0  0.096606  0.096134  0  1.007421  0
H  H32  1  0.15200349  0.41434493  0.66187511  1  0.018311  0  0.094173  0.091902  0  1.000378  0
H  H33  1  0.96654258  0.28388073  0.39641309  1  0.043945  0  0.09725  0.094343  0  0.993651  0
H  H34  1  0.89193457  0.26834302  0.50782606  1  0.054135  0  0.099367  0.100198  0  0.992333  0
H  H35  1  0.21994494  0.44486641  0.54922711  1  0.052214  0  0.092108  0.09237  0  1.006449  0
H  H36  1  0.57803376  0.48785588  0.49856399  1  0.035305  0  0.093017  0.092452  0  1.008666  0
H  H37  1  0.71971894  0.90399503  0.84924884  1  0.020779  0  0.094205  0.091235  0  1.021015  0
H  H38  1  0.65335782  0.72658782  0.40187817  1  0.043388  0  0.102013  0.10878  0  0.993451  0
H  H39  1  0.52001190  0.65985216  0.86565576  1  0.029539  0  0.096591  0.102259  0  1.005704  0
H  H40  1  0.63231825  0.43570198  0.23573516  1  0.070096  0  0.098328  0.099444  0  1.003886  0
H  H41  1  0.87470445  0.85765961  0.16059116  1  0.103573  0  0.105514  0.113788  0  0.991039  0
H  H42  1  0.59689299  0.37594973  0.36163406  1  0.045047  0  0.100337  0.10133  0  0.993738  0
H  H43  1  0.88953609  0.95359476  0.05027044  1  0.066461  0  0.102517  0.10102  0  0.989342  0
H  H44  1  0.80455433  0.59506637  0.27286376  1  0.054516  0  0.101803  0.106337  0  1.008636  0
H  H45  1  0.52874160  0.71996715  0.04015140  1  0.037197  0  0.095302  0.093696  0  1.035761  0
H  H46  1  0.23359961  0.01027803  0.23167926  1  0.03273  0  0.092282  0.129832  0  1.004014  0
H  H47  1  0.34929544  0.12128534  0.27839166  1  0.091761  0  0.093381  0.135851  0  0.999861  0
H  H48  1  0.24498279  0.03887929  0.12778465  1  0.011025  0  0.092789  0.131838  0  0.997205  0
H  H49  1  0.53215067  0.00142909  0.76283151  1  0.023384  0  0.087249  0.119696  0  1.014787  0
H  H50  1  0.51842795  0.98485425  0.87019559  1  0.051242  0  0.090703  0.129715  0  0.996106  0
H  H51  1  0.40435378  0.90706487  0.71992459  1  0.07008  0  0.090342  0.132305  0  1.030049  0
H  H52  1  0.50166504  0.66905838  0.48409050  1  0.048165  0  0.088305  0.120493  0  1.00396  0
H  H53  1  0.61397622  0.66624084  0.60944045  1  0.018787  0  0.086837  0.116556  0  1.037949  0
H  H54  1  0.64582325  0.76291798  0.56730423  1  0.027325  0  0.093081  0.129924  0  1.002258  0
H  H55  1  0.52284872  0.79313123  0.68162461  1  0.021371  0  0.090654  0.126626  0  1.002124  0
H  H56  1  0.47351795  0.66645580  0.66517069  1  0.023307  0  0.088299  0.119145  0  1.007764  0
H  H57  1  0.42955302  0.75248495  0.71878729  1  0.026577  0  0.094289  0.13357  0  0.992368  0
C  C58  1  0.02714434  0.76198728  0.87247552  1  0.362177  0  0.00616  -0.059206  0  3.973439  0
C  C59  1  0.93771989  0.23341137  0.88620876  1  0.43599  0  0.010305  -0.042591  0  3.931461  0
C  C60  1  0.00144081  0.35851494  0.25460845  1  0.403814  0  0.005184  -0.061745  0  3.981807  0
C  C61  1  0.07563386  0.44671844  0.79811518  1  0.358663  0  0.009476  -0.046133  0  3.946513  0
C  C62  1  0.83306180  0.62655179  0.02227688  1  0.405893  0  0.006341  -0.04656  0  3.948065  0
C  C63  1  0.40440051  0.57182548  0.17564600  1  0.370624  0  0.002768  -0.056994  0  3.994797  0
C  C64  1  0.22543773  0.72135533  0.31401606  1  0.4032  0  0.006649  -0.050755  0  3.962355  0
C  C65  1  0.61341823  0.29907386  0.69633259  1  0.422058  0  0.003528  -0.058609  0  3.998984  0
C  C66  1  0.88073847  0.55899851  0.14736128  1  0.402088  0  0.009774  -0.043769  0  3.951029  0
C  C67  1  0.37020340  0.65675911  0.06890401  1  0.393218  0  0.005255  -0.057618  0  4.013453  0
C  C68  1  0.17447652  0.78797578  0.18761689  1  0.513662  0  0.012576  -0.037774  0  3.961334  0
C  C69  1  0.64855668  0.22709107  0.81630365  1  0.489418  0  0.011296  -0.046536  0  3.98218  0
C  C70  1  0.18828752  0.45207502  0.34938255  1  0.375167  0  0.001441  -0.067003  0  3.998053  0
C  C71  1  0.88416913  0.36020891  0.68926151  1  0.437632  0  0.010327  -0.039422  0  3.928985  0
C  C72  1  0.84024903  0.68126826  0.78900926  1  0.406719  0  0.008118  -0.053126  0  3.981818  0
C  C73  1  0.12782716  0.31706441  0.98281299  1  0.396265  0  0.006996  -0.055087  0  3.949837  0
C  C74  1  0.92140302  0.77175828  0.81381975  1  0.042063  0  -0.039106  0.017846  0  4.133136  0
C  C75  1  0.03563015  0.21980760  0.90217368  1  0.019063  0  -0.039318  0.013784  0  4.114624  0
C  C76  1  0.10992161  0.39687759  0.36365941  1  0.019617  0  -0.042067  0.014862  0  4.147855  0
C  C77  1  0.98034562  0.36903441  0.68758682  1  0.017828  0  -0.038485  0.010492  0  4.114689  0
C  C78  1  0.82800646  0.62427165  0.11382154  1  0.013655  0  -0.034533  -0.03286  0  4.04366  0
C  C79  1  0.45566827  0.62654644  0.13666862  1  0.043621  0  -0.038993  -0.0444  0  4.084531  0
C  C80  1  0.23387553  0.81470931  0.30692647  1  -0.054941  0  -0.045785  -0.056534  0  4.088799  0
C  C81  1  0.56974638  0.20747289  0.69971696  1  -0.071571  0  -0.043551  -0.048483  0  4.107372  0
C  C82  1  0.52118662  0.88929005  0.25145822  1  -0.017351  0  -0.095479  -0.084819  0  4.028247  0
C  C83  1  0.31577324  0.19870001  0.77702180  1  -0.078407  0  -0.09207  -0.081625  0  4.028633  0
C  C84  1  0.49272282  0.90680913  0.32805954  1  -0.030581  0  -0.087474  -0.109337  0  3.976361  0
C  C85  1  0.32160856  0.15599843  0.68673266  1  -0.009506  0  -0.086656  -0.117344  0  3.98953  0
C  C86  1  0.41848017  0.95475211  0.31646918  1  -0.017306  0  -0.017212  -0.003162  0  3.978731  0
C  C87  1  0.37166316  0.08655007  0.68757154  1  -0.028752  0  -0.017478  -0.00083  0  3.964156  0
C  C88  1  0.37018792  0.98492548  0.22576696  1  0.058077  0  -0.010309  0.123142  0  3.965528  0
C  C89  1  0.41684667  0.05884939  0.78056989  1  -0.023087  0  -0.010447  0.126904  0  3.949974  0
C  C90  1  0.39802893  0.96473710  0.14825148  1  -0.075768  0  -0.100443  -0.158791  0  4.011786  0
C  C91  1  0.41090619  0.10319198  0.87092416  1  -0.049434  0  -0.100327  -0.15574  0  4.001547  0
C  C92  1  0.47354346  0.91851794  0.16123889  1  -0.115256  0  -0.096856  -0.085489  0  4.057531  0
C  C93  1  0.36128318  0.17246736  0.86986434  1  -0.022547  0  -0.09461  -0.084669  0  4.054824  0
C  C94  1  0.47992770  0.07416133  0.50601351  1  0.158903  0  0.077161  -0.026445  0  3.923133  0
C  C95  1  0.30495788  0.95496499  0.49548095  1  0.18556  0  0.080259  -0.019734  0  3.904151  0
C  C96  1  0.47650500  0.11056161  0.59997865  1  0.021395  0  0.005218  0.012291  0  4.000775  0
C  C97  1  0.31003664  0.91750530  0.40255210  1  0.04774  0  0.00798  0.017708  0  3.982411  0
C  C98  1  0.38338200  0.04882381  0.59303590  1  0.090166  0  0.00657  0.00415  0  3.951773  0
C  C99  1  0.40010168  0.98217407  0.40735100  1  0.058571  0  0.008102  0.005791  0  3.959026  0
C  C100  1  0.13352826  0.39220859  0.46875647  1  -0.075404  0  -0.110511  -0.151079  0  4.065519  0
C  C101  1  0.97703450  0.32391807  0.58796043  1  -0.075642  0  -0.093375  -0.116668  0  4.0314  0
C  C102  1  0.05296296  0.33749331  0.47635535  1  -0.013002  0  -0.107248  -0.096526  0  4.105595  0
C  C103  1  0.06701074  0.35718171  0.58267703  1  0.015008  0  -0.110974  -0.11261  0  4.105808  0
C  C104  1  0.90080051  0.85694937  0.79418811  1  -0.062792  0  -0.103706  -0.136086  0  4.060233  0
C  C105  1  0.04513752  0.12596439  0.86501754  1  -0.037843  0  -0.098579  -0.129285  0  4.042204  0
C  C106  1  0.61500691  0.61570052  0.46031273  1  -0.019971  0  -0.015018  0.165142  0  3.998783  0
C  C107  1  0.60763419  0.77820214  0.84293297  1  -0.006482  0  -0.019118  0.160079  0  4.015034  0
C  C108  1  0.64166396  0.64971907  0.39394132  1  -0.01381  0  -0.089572  -0.189801  0  3.925088  0
C  C109  1  0.60097618  0.72509526  0.90632315  1  -0.046252  0  -0.100011  -0.209967  0  3.940197  0
C  C110  1  0.64529506  0.58536806  0.31080105  1  -0.049495  0  -0.007206  0.084399  0  4.012648  0
C  C111  1  0.69568893  0.75251351  0.02035854  1  -0.018615  0  -0.0073  0.085108  0  4.022592  0
C  C112  1  0.63050342  0.48671976  0.30067839  1  -0.036881  0  -0.097311  -0.150063  0  3.998389  0
C  C113  1  0.80044806  0.83544376  0.07180559  1  -0.044759  0  -0.092578  -0.144453  0  3.981228  0
C  C114  1  0.60866415  0.45284357  0.36992197  1  -0.048288  0  -0.097028  -0.081991  0  4.066629  0
C  C115  1  0.80834407  0.88899014  0.00991402  1  -0.08738  0  -0.095365  -0.075876  0  4.059223  0
C  C116  1  0.59891930  0.51618592  0.44760078  1  -0.05573  0  -0.102963  -0.163536  0  4.002824  0
C  C117  1  0.71259372  0.86093701  0.89647306  1  -0.06648  0  -0.102665  -0.164789  0  4.008125  0
C  C118  1  0.74359139  0.62250461  0.22042834  1  0.010775  0  -0.090322  -0.173426  0  3.967017  0
C  C119  1  0.58880470  0.69131076  0.09151191  1  -0.069449  0  -0.098233  -0.186356  0  3.99508  0
C  C120  1  0.75671637  0.65490344  0.14509905  1  -0.026824  0  -0.00649  0.047621  0  4.00235  0
C  C121  1  0.56675103  0.64665340  0.15466674  1  -0.031406  0  -0.013945  0.035685  0  4.035825  0
C  C122  1  0.68256993  0.69927150  0.08753856  1  0.003189  0  -0.010425  0.021263  0  3.978553  0
C  C123  1  0.65332654  0.61966552  0.22883579  1  0.017437  0  -0.010818  0.021121  0  3.983582  0
C  C124  1  0.97893046  0.94190405  0.81395556  1  -0.0134  0  -0.107383  -0.102165  0  4.100358  0
C  C125  1  0.96135111  0.03274139  0.82032900  1  -0.055604  0  -0.107744  -0.100953  0  4.103679  0
C  C126  1  0.29494479  0.04108885  0.21461267  1  -0.080783  0  -0.241069  -0.417588  0  3.979962  0
C  C127  1  0.47116664  0.98462975  0.78423730  1  -0.081794  0  -0.243443  -0.421933  0  3.986869  0
C  C128  1  0.59394078  0.68198049  0.53479015  1  -0.06783  0  -0.238248  -0.412918  0  3.98661  0
C  C129  1  0.50335749  0.74623954  0.72088664  1  -0.018084  0  -0.238073  -0.411515  0  3.981398  0
N  N130  1  0.00938503  0.67334905  0.88085891  1  -0.790541  0  -0.274125  -0.170745  0  3.566643  0
N  N131  1  0.97101462  0.32984862  0.95445701  1  -0.795566  0  -0.287228  -0.184509  0  3.658911  0
N  N132  1  0.01481655  0.38844277  0.18267615  1  -0.800531  0  -0.271163  -0.170094  0  3.55992  0
N  N133  1  0.03783879  0.48179473  0.85822462  1  -0.817961  0  -0.286603  -0.186945  0  3.654159  0
N  N134  1  0.88137764  0.56546181  0.00220186  1  -0.782005  0  -0.285885  -0.188036  0  3.641244  0
N  N135  1  0.30013524  0.57272024  0.13699011  1  -0.805778  0  -0.273527  -0.176975  0  3.557414  0
N  N136  1  0.16766462  0.64651069  0.20721386  1  -0.764482  0  -0.270483  -0.166904  0  3.59019  0
N  N137  1  0.71063896  0.36693104  0.80168477  1  -0.767761  0  -0.265936  -0.16308  0  3.515029  0
N  N138  1  0.91056120  0.52379949  0.07890633  1  -0.801725  0  -0.289455  -0.187013  0  3.650537  0
N  N139  1  0.27875657  0.62538423  0.07035793  1  -0.787397  0  -0.276461  -0.169609  0  3.569046  0
N  N140  1  0.13564735  0.68748793  0.12973009  1  -0.790724  0  -0.279018  -0.170902  0  3.603492  0
N  N141  1  0.73300038  0.32193375  0.87644175  1  -0.798664  0  -0.267147  -0.169214  0  3.510165  0
N  N142  1  0.13124681  0.44672616  0.24143642  1  -0.785519  0  -0.274174  -0.179828  0  3.556339  0
N  N143  1  0.92026165  0.42899652  0.79152431  1  -0.782261  0  -0.28518  -0.182877  0  3.626978  0
N  N144  1  0.89277482  0.62267902  0.82825537  1  -0.800827  0  -0.271533  -0.177286  0  3.548116  0
N  N145  1  0.08761549  0.38126405  0.01417563  1  -0.790977  0  -0.282405  -0.185159  0  3.635448  0
N  N146  1  0.58233691  0.13324125  0.51598030  1  0.406367  0  0.064032  0.52757  0  4.225969  0
N  N147  1  0.20589231  0.89119529  0.48706048  1  0.420582  0  0.061943  0.526319  0  4.219829  0
O  O148  1  0.67230421  0.12251273  0.57476400  1  -0.446047  0  -0.104482  -0.304939  0  1.903602  0
O  O149  1  0.57096877  0.18836644  0.46457959  1  -0.454894  0  -0.120623  -0.331642  0  1.913753  0
O  O150  1  0.21840135  0.82595599  0.52417726  1  -0.452433  0  -0.12375  -0.32769  0  1.893275  0
O  O151  1  0.11786653  0.90741554  0.44266747  1  -0.431853  0  -0.112395  -0.304493  0  1.858293  0
