# generated using pymatgen
data_Zn2H35C43(N3O2)4
_symmetry_space_group_name_H-M   'P 1'
_cell_length_a   16.47789259
_cell_length_b   17.83817061
_cell_length_c   28.87927463
_cell_angle_alpha   90.38005933
_cell_angle_beta   89.63556273
_cell_angle_gamma   89.93434149
_symmetry_Int_Tables_number   1
_chemical_formula_structural   Zn2H35C43(N3O2)4
_chemical_formula_sum   'Zn4 H70 C86 N24 O16'
_cell_volume   8488.27840160
_cell_formula_units_Z   2
loop_
 _symmetry_equiv_pos_site_id
 _symmetry_equiv_pos_as_xyz
  1  'x, y, z'
loop_
 _atom_site_type_symbol
 _atom_site_label
 _atom_site_symmetry_multiplicity
 _atom_site_fract_x
 _atom_site_fract_y
 _atom_site_fract_z
 _atom_site_occupancy
 _atom_site_pbe_bader_charge
 _atom_site_pbe_bader_spin_density
 _atom_site_pbe_cm5_charge
 _atom_site_pbe_ddec_charge
 _atom_site_pbe_ddec_spin_density
 _atom_site_pbe_ddec_sum_bond_order
 _atom_site_pbe_magmom
Zn  Zn0  1  0.58039922  0.50024531  0.49826047  1  1.263496  0  0.667914  0.820111  0  2.424162  0
Zn  Zn1  1  0.41135891  0.50037161  0.49962692  1  1.279012  0  0.662927  0.81933  0  2.408172  0
Zn  Zn2  1  0.41421544  0.50330855  0.88128693  1  1.28999  0  0.662898  0.819008  0  2.416445  0
Zn  Zn3  1  0.58366233  0.50385447  0.88094222  1  1.258012  0  0.665117  0.816326  0  2.444215  0
H  H4  1  0.28349334  0.59396601  0.54201901  1  0.120671  0  0.123121  0.116919  0  0.986449  0
H  H5  1  0.28500458  0.40508768  0.45803211  1  0.115697  0  0.124086  0.115722  0  0.986659  0
H  H6  1  0.70549631  0.55796871  0.56125740  1  0.109373  0  0.124713  0.121242  0  0.994166  0
H  H7  1  0.70903067  0.43894335  0.43778615  1  0.101428  0  0.121806  0.115456  0  0.999806  0
H  H8  1  0.62397690  0.73141847  0.47477038  1  0.082432  0  0.098924  0.12086  0  1.014135  0
H  H9  1  0.37137589  0.74301102  0.51126442  1  0.031569  0  0.093634  0.110449  0  1.02823  0
H  H10  1  0.62450155  0.26918474  0.52725072  1  0.070463  0  0.097437  0.115133  0  1.029692  0
H  H11  1  0.37342440  0.25759430  0.48931107  1  0.094332  0  0.094454  0.112073  0  1.025341  0
H  H12  1  0.60586514  0.40584246  0.77467557  1  0.048048  0  0.098723  0.116977  0  1.03274  0
H  H13  1  0.60550744  0.40689539  0.60264100  1  0.046634  0  0.098146  0.115398  0  1.038779  0
H  H14  1  0.40628687  0.58987288  0.64706209  1  0.053276  0  0.097575  0.100129  0  1.000569  0
H  H15  1  0.40703141  0.59020650  0.73384460  1  0.055655  0  0.096734  0.098103  0  1.004852  0
H  H16  1  0.37375032  0.47453587  0.03012242  1  0.09766  0  0.094133  0.110916  0  1.025769  0
H  H17  1  0.62950547  0.51975527  0.02547783  1  0.069105  0  0.098319  0.118869  0  1.01527  0
H  H18  1  0.37467251  0.52291887  0.35340997  1  0.087227  0  0.098607  0.120334  0  1.015751  0
H  H19  1  0.62646413  0.46109379  0.35240183  1  0.084949  0  0.093553  0.109348  0  1.030262  0
H  H20  1  0.71146337  0.59136022  0.83430291  1  0.097674  0  0.124712  0.116187  0  0.983316  0
H  H21  1  0.70960074  0.41266623  0.92497827  1  0.107296  0  0.123759  0.115035  0  0.986417  0
H  H22  1  0.28816030  0.56468214  0.82063747  1  0.122534  0  0.124185  0.116417  0  0.99034  0
H  H23  1  0.28612951  0.43768198  0.94003696  1  0.090338  0  0.122961  0.11464  0  0.989811  0
H  H24  1  0.37030547  0.74318100  0.89847612  1  0.070232  0  0.098781  0.120016  0  1.013401  0
H  H25  1  0.62666518  0.73802482  0.87125538  1  0.043539  0  0.094735  0.112385  0  1.026297  0
H  H26  1  0.37266142  0.26581185  0.85815008  1  0.089612  0  0.099674  0.121037  0  1.012465  0
H  H27  1  0.62910462  0.26710658  0.88352118  1  0.063549  0  0.094226  0.110073  0  1.029215  0
H  H28  1  0.06441268  0.37764070  0.46004137  1  0.451237  0  0.301868  0.29429  0  0.964087  0
H  H29  1  0.15493051  0.34452294  0.43933892  1  0.447687  0  0.317774  0.312581  0  0.925041  0
H  H30  1  0.06222046  0.61831106  0.54177115  1  0.439523  0  0.301356  0.294059  0  0.965183  0
H  H31  1  0.15219768  0.65360323  0.56100245  1  0.449428  0  0.316444  0.310974  0  0.926995  0
H  H32  1  0.93047119  0.44025215  0.42368451  1  0.469461  0  0.30165  0.293958  0  0.966215  0
H  H33  1  0.84061460  0.41084081  0.40076340  1  0.465172  0  0.31719  0.311801  0  0.925523  0
H  H34  1  0.92578119  0.55332114  0.57863258  1  0.440136  0  0.301764  0.293504  0  0.965484  0
H  H35  1  0.83459317  0.58269484  0.60062381  1  0.457681  0  0.320947  0.317073  0  0.918056  0
H  H36  1  0.37537369  0.94567162  0.52984315  1  0.442286  0  0.292077  0.285184  0  0.979849  0
H  H37  1  0.31827004  0.86671420  0.53307989  1  0.411546  0  0.301359  0.293223  0  0.948184  0
H  H38  1  0.64586926  0.93533434  0.46940079  1  0.452933  0  0.293553  0.286981  0  0.975694  0
H  H39  1  0.69190893  0.85137674  0.45911701  1  0.434193  0  0.305232  0.299407  0  0.942178  0
H  H40  1  0.37742031  0.05421018  0.47406402  1  0.449705  0  0.291845  0.285786  0  0.980828  0
H  H41  1  0.32094221  0.13337899  0.46887734  1  0.42241  0  0.301836  0.294469  0  0.946988  0
H  H42  1  0.64495835  0.06573232  0.53699204  1  0.420621  0  0.294046  0.287591  0  0.973501  0
H  H43  1  0.69062441  0.14991051  0.54630184  1  0.431477  0  0.303385  0.297958  0  0.946741  0
H  H44  1  0.64181958  0.55211842  0.15031333  1  0.435892  0  0.294171  0.287231  0  0.972927  0
H  H45  1  0.69268751  0.55577945  0.09908812  1  0.413506  0  0.30506  0.299113  0  0.94159  0
H  H46  1  0.36858346  0.46372154  0.15663091  1  0.455262  0  0.291522  0.284669  0  0.982274  0
H  H47  1  0.31489785  0.45051977  0.10718300  1  0.412237  0  0.302102  0.294325  0  0.948145  0
H  H48  1  0.63866632  0.45543188  0.22580682  1  0.421765  0  0.291777  0.285786  0  0.979894  0
H  H49  1  0.68822807  0.43647312  0.27579227  1  0.42081  0  0.301692  0.294307  0  0.948693  0
H  H50  1  0.37022969  0.55660501  0.22895326  1  0.427824  0  0.29376  0.287355  0  0.974927  0
H  H51  1  0.31670502  0.56058525  0.27934202  1  0.425283  0  0.305085  0.299567  0  0.940711  0
H  H52  1  0.92965790  0.38166291  0.92164884  1  0.438559  0  0.30135  0.293369  0  0.96592  0
H  H53  1  0.83933241  0.35165989  0.94389294  1  0.437059  0  0.31718  0.311374  0  0.925779  0
H  H54  1  0.93221307  0.61729586  0.83546963  1  0.453408  0  0.300998  0.293347  0  0.967309  0
H  H55  1  0.84238389  0.64936561  0.81420856  1  0.440341  0  0.316851  0.311413  0  0.925929  0
H  H56  1  0.06501813  0.43936065  0.95512794  1  0.426537  0  0.300691  0.29257  0  0.967923  0
H  H57  1  0.15494131  0.40823516  0.97682656  1  0.433726  0  0.317049  0.312018  0  0.924706  0
H  H58  1  0.06820480  0.55849368  0.80293499  1  0.450272  0  0.300952  0.292657  0  0.966397  0
H  H59  1  0.15860800  0.59053066  0.78199892  1  0.457328  0  0.318524  0.314339  0  0.921043  0
H  H60  1  0.63735026  0.93916654  0.84896805  1  0.438748  0  0.29203  0.28494  0  0.979382  0
H  H61  1  0.68914223  0.85695113  0.84808272  1  0.408228  0  0.30161  0.293983  0  0.948288  0
H  H62  1  0.36324925  0.94803793  0.90431344  1  0.432064  0  0.292417  0.285283  0  0.979934  0
H  H63  1  0.31003526  0.86757046  0.91222941  1  0.432176  0  0.304883  0.299343  0  0.941803  0
H  H64  1  0.63875739  0.06407066  0.89874689  1  0.444214  0  0.291788  0.284852  0  0.97978  0
H  H65  1  0.69098079  0.14576239  0.90222465  1  0.418215  0  0.300848  0.292556  0  0.949002  0
H  H66  1  0.36472815  0.06171686  0.84543857  1  0.428056  0  0.292917  0.285704  0  0.978256  0
H  H67  1  0.31174608  0.14304574  0.84073226  1  0.443798  0  0.30542  0.299977  0  0.940836  0
H  H68  1  0.76961435  0.30588947  0.73079633  1  -0.001825  0  0.083916  0.10995  0  1.008837  0
H  H69  1  0.69610916  0.30701331  0.77638023  1  0.031868  0  0.091886  0.130336  0  0.998224  0
H  H70  1  0.68779986  0.24207920  0.72972249  1  0.041251  0  0.0899  0.121384  0  0.996989  0
H  H71  1  0.68663334  0.24305205  0.64366018  1  0.050451  0  0.087752  0.116982  0  1.001741  0
H  H72  1  0.69907320  0.31064825  0.59906354  1  0.040489  0  0.089435  0.124202  0  1.010517  0
H  H73  1  0.76983012  0.30532545  0.64539088  1  0.038142  0  0.084396  0.111118  0  1.00863  0
C  C74  1  0.49318492  0.64625358  0.49243642  1  1.602577  0  0.213344  0.594472  0  4.150966  0
C  C75  1  0.49919174  0.51154281  0.58905425  1  1.61269  0  0.21612  0.60401  0  4.167928  0
C  C76  1  0.49505045  0.35429094  0.50714026  1  1.583209  0  0.213289  0.593142  0  4.153177  0
C  C77  1  0.49880562  0.48807002  0.40897248  1  1.595485  0  0.213592  0.593833  0  4.154168  0
C  C78  1  0.49800555  0.65001518  0.88686793  1  1.514853  0  0.212953  0.592868  0  4.155888  0
C  C79  1  0.50022792  0.51270952  0.79038778  1  1.515537  0  0.215679  0.603824  0  4.16531  0
C  C80  1  0.50011713  0.35700011  0.87272777  1  1.517979  0  0.212529  0.591365  0  4.159553  0
C  C81  1  0.50000943  0.49299463  0.97173150  1  1.528158  0  0.213168  0.593637  0  4.152632  0
C  C82  1  0.24657389  0.55244398  0.52399982  1  0.588402  0  0.024902  -0.071534  0  3.934523  0
C  C83  1  0.16158895  0.55447638  0.52547903  1  0.373759  0  0.105885  0.237822  0  4.113198  0
C  C84  1  0.11828330  0.49847846  0.50072557  1  0.175486  0  -0.018629  -0.071237  0  4.085551  0
C  C85  1  0.16246626  0.44307479  0.47555733  1  0.414097  0  0.10618  0.2379  0  4.113668  0
C  C86  1  0.24742955  0.44616423  0.47635785  1  0.567039  0  0.025308  -0.069548  0  3.933107  0
C  C87  1  0.03303088  0.49801852  0.50097357  1  -0.161018  0  -0.048043  -0.098613  0  4.179217  0
C  C88  1  0.95861990  0.49772069  0.50102671  1  -0.412682  0  -0.0476  -0.095924  0  4.178331  0
C  C89  1  0.87337352  0.49773835  0.50063156  1  0.185815  0  -0.019554  -0.074844  0  4.087286  0
C  C90  1  0.82857029  0.53350635  0.53669824  1  0.431242  0  0.107753  0.241575  0  4.109648  0
C  C91  1  0.74360955  0.53246832  0.53442511  1  0.556449  0  0.025479  -0.070264  0  3.920878  0
C  C92  1  0.74566731  0.46445197  0.46498154  1  0.480284  0  0.021881  -0.077796  0  3.939409  0
C  C93  1  0.83064093  0.46199342  0.46408090  1  0.479606  0  0.10559  0.238916  0  4.116728  0
C  C94  1  0.49740445  0.73040776  0.49307205  1  -0.053118  0  -0.020753  0.015023  0  4.031777  0
C  C95  1  0.57128002  0.76577036  0.48354218  1  -0.002169  0  -0.120728  -0.26368  0  3.990037  0
C  C96  1  0.57704841  0.84393456  0.48566741  1  0.393753  0  0.093242  0.274672  0  4.106009  0
C  C97  1  0.50738241  0.88715058  0.49782399  1  0.113741  0  -0.032881  -0.092378  0  4.078132  0
C  C98  1  0.43229535  0.85047733  0.50691020  1  0.400948  0  0.091242  0.271927  0  4.101573  0
C  C99  1  0.42813550  0.77231199  0.50434988  1  0.022317  0  -0.125251  -0.268785  0  4.008185  0
C  C100  1  0.51156568  0.96583919  0.50082165  1  -0.321117  0  -0.059067  -0.111326  0  4.200444  0
C  C101  1  0.51197471  0.03455002  0.50418647  1  -0.207606  0  -0.059393  -0.112088  0  4.200811  0
C  C102  1  0.50805235  0.11330850  0.50634607  1  0.187656  0  -0.032615  -0.091897  0  4.078763  0
C  C103  1  0.57731224  0.15660359  0.51840658  1  0.419202  0  0.093359  0.274745  0  4.104346  0
C  C104  1  0.57189056  0.23483192  0.51891708  1  0.007984  0  -0.120629  -0.262502  0  3.991204  0
C  C105  1  0.49868103  0.27022483  0.50816660  1  -0.06782  0  -0.019874  0.015918  0  4.030995  0
C  C106  1  0.42968843  0.22828941  0.49719354  1  -0.033984  0  -0.12286  -0.266823  0  4.003317  0
C  C107  1  0.43360277  0.15002818  0.49596332  1  0.405741  0  0.092293  0.273883  0  4.098697  0
C  C108  1  0.50176378  0.50883950  0.73855733  1  0.008072  0  -0.014674  -0.067369  0  3.939147  0
C  C109  1  0.55549234  0.45930058  0.71413788  1  -0.042964  0  -0.005827  0.060194  0  3.978019  0
C  C110  1  0.44860717  0.55404693  0.71442252  1  0.047823  0  -0.097888  -0.112773  0  4.046415  0
C  C111  1  0.60594825  0.40671776  0.73694531  1  0.02508  0  -0.099731  -0.200129  0  3.955327  0
C  C112  1  0.65404466  0.35605293  0.71293385  1  -0.01237  0  -0.017571  0.105719  0  3.973999  0
C  C113  1  0.50137846  0.50875649  0.64088424  1  -0.055747  0  -0.012111  -0.058574  0  3.936602  0
C  C114  1  0.44830858  0.55399008  0.66577006  1  -0.092193  0  -0.098328  -0.116879  0  4.045062  0
C  C115  1  0.55538250  0.45945532  0.66439111  1  0.022681  0  -0.006652  0.055981  0  3.983586  0
C  C116  1  0.60604540  0.40747366  0.64040896  1  0.015488  0  -0.101354  -0.204143  0  3.960182  0
C  C117  1  0.65424081  0.35656060  0.66339736  1  -0.067709  0  -0.018796  0.104412  0  3.973647  0
C  C118  1  0.50163145  0.49600212  0.02367854  1  -0.006846  0  -0.019699  0.01712  0  4.034982  0
C  C119  1  0.42987815  0.48509926  0.04881099  1  0.003226  0  -0.123895  -0.268998  0  4.00725  0
C  C120  1  0.43059842  0.48811211  0.09717056  1  0.292807  0  0.093031  0.27628  0  4.100946  0
C  C121  1  0.50455607  0.50385523  0.12049580  1  0.16409  0  -0.032986  -0.093276  0  4.083311  0
C  C122  1  0.57682499  0.51630813  0.09447330  1  0.38348  0  0.093055  0.274216  0  4.105748  0
C  C123  1  0.57479210  0.51122087  0.04616669  1  0.065111  0  -0.122458  -0.266364  0  3.994277  0
C  C124  1  0.50579279  0.50577983  0.16916548  1  -0.091116  0  -0.059222  -0.110399  0  4.204322  0
C  C125  1  0.50459339  0.50466276  0.21167413  1  -0.481462  0  -0.059095  -0.111972  0  4.204562  0
C  C126  1  0.50339847  0.50113091  0.26030246  1  0.190029  0  -0.033081  -0.092958  0  4.08289  0
C  C127  1  0.43046344  0.51659879  0.28523391  1  0.378585  0  0.09315  0.275552  0  4.102123  0
C  C128  1  0.42964567  0.51109398  0.33348268  1  0.028628  0  -0.121074  -0.265234  0  3.994561  0
C  C129  1  0.50024937  0.49111208  0.35703775  1  -0.092977  0  -0.020368  0.014722  0  4.03389  0
C  C130  1  0.57240004  0.47597833  0.33295152  1  0.036306  0  -0.123865  -0.266445  0  4.005509  0
C  C131  1  0.57480630  0.48068443  0.28467219  1  0.353337  0  0.093253  0.275456  0  4.102253  0
C  C132  1  0.74833135  0.55231484  0.85411089  1  0.606708  0  0.027384  -0.066581  0  3.929747  0
C  C133  1  0.83331032  0.55409136  0.85272780  1  0.402193  0  0.106368  0.238999  0  4.108268  0
C  C134  1  0.87643453  0.50025447  0.87898309  1  0.156794  0  -0.01839  -0.071505  0  4.084076  0
C  C135  1  0.83218291  0.44717235  0.90546705  1  0.43437  0  0.105384  0.237275  0  4.114764  0
C  C136  1  0.74730273  0.45101359  0.90495247  1  0.529045  0  0.024755  -0.071446  0  3.938285  0
C  C137  1  0.96165816  0.49973200  0.87891465  1  -0.206914  0  -0.04715  -0.096552  0  4.177099  0
C  C138  1  0.03605467  0.49964739  0.87911717  1  -0.251486  0  -0.047193  -0.095316  0  4.177578  0
C  C139  1  0.12124678  0.49999128  0.87948217  1  0.102802  0  -0.019156  -0.072658  0  4.08764  0
C  C140  1  0.16554135  0.53792619  0.84442226  1  0.382001  0  0.106766  0.237808  0  4.110943  0
C  C141  1  0.25046053  0.53713818  0.84660857  1  0.580717  0  0.026658  -0.066762  0  3.927025  0
C  C142  1  0.24929952  0.46502836  0.91380961  1  0.529756  0  0.024836  -0.072308  0  3.937016  0
C  C143  1  0.16433800  0.46249232  0.91493209  1  0.448258  0  0.106165  0.239327  0  4.1134  0
C  C144  1  0.49846048  0.73404295  0.88499092  1  0.016715  0  -0.020113  0.016229  0  4.036901  0
C  C145  1  0.42613892  0.77393406  0.89151204  1  0.092057  0  -0.121793  -0.266833  0  3.997084  0
C  C146  1  0.42620798  0.85218464  0.88917893  1  0.332813  0  0.09373  0.275668  0  4.100802  0
C  C147  1  0.49988104  0.89044547  0.87894857  1  0.11137  0  -0.033064  -0.091473  0  4.085277  0
C  C148  1  0.57284089  0.84908751  0.87202472  1  0.444581  0  0.091444  0.272448  0  4.105372  0
C  C149  1  0.57148799  0.77109478  0.87574352  1  -0.038067  0  -0.123462  -0.267109  0  4.005454  0
C  C150  1  0.50071352  0.96897650  0.87585896  1  -0.34299  0  -0.05839  -0.110062  0  4.209695  0
C  C151  1  0.50139916  0.03763876  0.87342740  1  -0.110947  0  -0.058623  -0.110065  0  4.208069  0
C  C152  1  0.50159192  0.11630746  0.87169134  1  0.182182  0  -0.033216  -0.092272  0  4.082311  0
C  C153  1  0.42813736  0.15581646  0.86317303  1  0.335271  0  0.09421  0.275726  0  4.09902  0
C  C154  1  0.42838069  0.23416265  0.86353934  1  0.074491  0  -0.120049  -0.264366  0  3.993773  0
C  C155  1  0.50078099  0.27300443  0.87106703  1  0.052118  0  -0.019935  0.016097  0  4.037577  0
C  C156  1  0.57378512  0.23483067  0.87821078  1  -0.048813  0  -0.123565  -0.268955  0  4.008759  0
C  C157  1  0.57482759  0.15657135  0.87924675  1  0.321648  0  0.092361  0.274481  0  4.102544  0
C  C158  1  0.70448200  0.30006780  0.73887003  1  -0.033802  0  -0.237389  -0.394757  0  3.996274  0
C  C159  1  0.70511197  0.30117845  0.63639330  1  -0.110216  0  -0.238679  -0.394208  0  3.999852  0
N  N160  1  0.28669197  0.49955934  0.50001303  1  -1.220343  0  -0.317927  -0.143984  0  3.634376  0
N  N161  1  0.70500191  0.49899713  0.49929620  1  -1.227647  0  -0.319406  -0.145822  0  3.637349  0
N  N162  1  0.70823165  0.50228234  0.87983074  1  -1.232232  0  -0.319496  -0.143467  0  3.63307  0
N  N163  1  0.28953825  0.50162416  0.88052289  1  -1.230043  0  -0.318093  -0.14243  0  3.630762  0
N  N164  1  0.12207430  0.38962252  0.44989362  1  -1.241411  0  -0.588717  -0.608984  0  3.323294  0
N  N165  1  0.12030850  0.60760515  0.55134596  1  -1.241164  0  -0.589086  -0.609526  0  3.32252  0
N  N166  1  0.87227873  0.42404664  0.42964661  1  -1.273915  0  -0.589281  -0.608653  0  3.324795  0
N  N167  1  0.86814249  0.57024435  0.57204195  1  -1.2346  0  -0.587667  -0.608318  0  3.318305  0
N  N168  1  0.36395513  0.89378717  0.51652981  1  -1.218948  0  -0.603427  -0.622194  0  3.315076  0
N  N169  1  0.65029467  0.88033228  0.47807586  1  -1.260856  0  -0.601787  -0.623684  0  3.317377  0
N  N170  1  0.36561609  0.10677410  0.48630394  1  -1.233499  0  -0.603512  -0.624002  0  3.31482  0
N  N171  1  0.65005454  0.12025283  0.52734431  1  -1.226831  0  -0.602469  -0.625032  0  3.314928  0
N  N172  1  0.64872737  0.53016383  0.11792186  1  -1.207522  0  -0.603323  -0.625442  0  3.310429  0
N  N173  1  0.36011248  0.47898642  0.12311897  1  -1.209108  0  -0.602758  -0.62192  0  3.317277  0
N  N174  1  0.64615669  0.46856896  0.25984927  1  -1.198701  0  -0.604043  -0.624609  0  3.316445  0
N  N175  1  0.36064360  0.53396758  0.26076281  1  -1.218667  0  -0.602363  -0.6259  0  3.31038  0
N  N176  1  0.87256706  0.39545538  0.93215259  1  -1.222384  0  -0.589169  -0.608925  0  3.32316  0
N  N177  1  0.87468144  0.60483133  0.82560101  1  -1.236577  0  -0.589197  -0.610213  0  3.320638  0
N  N178  1  0.12297097  0.42287098  0.94841453  1  -1.208678  0  -0.588914  -0.60936  0  3.322625  0
N  N179  1  0.12526488  0.57638541  0.81023702  1  -1.246261  0  -0.588421  -0.608748  0  3.316354  0
N  N180  1  0.64457863  0.88772278  0.86340159  1  -1.217527  0  -0.604087  -0.624521  0  3.313858  0
N  N181  1  0.35530378  0.89358217  0.89467256  1  -1.241693  0  -0.60241  -0.624745  0  3.313123  0
N  N182  1  0.64631532  0.11675543  0.88611337  1  -1.218332  0  -0.603907  -0.62372  0  3.312263  0
N  N183  1  0.35704561  0.11530611  0.85694391  1  -1.229868  0  -0.601476  -0.62424  0  3.31259  0
O  O184  1  0.55862473  0.61093839  0.48299917  1  -1.169982  0  -0.322099  -0.549225  0  2.315896  0
O  O185  1  0.42493709  0.61611147  0.50182472  1  -1.171735  0  -0.32214  -0.553611  0  2.313929  0
O  O186  1  0.43071361  0.50000820  0.57021225  1  -1.157939  0  -0.31844  -0.545513  0  2.295065  0
O  O187  1  0.56556958  0.52552008  0.56796029  1  -1.170407  0  -0.317934  -0.556781  0  2.329921  0
O  O188  1  0.42719436  0.38469707  0.49758457  1  -1.16904  0  -0.319607  -0.550401  0  2.311974  0
O  O189  1  0.56078298  0.38947616  0.51552764  1  -1.171238  0  -0.319601  -0.55363  0  2.334732  0
O  O190  1  0.56535771  0.47287980  0.42930319  1  -1.171516  0  -0.32193  -0.553403  0  2.322145  0
O  O191  1  0.43130825  0.50180075  0.42905612  1  -1.173194  0  -0.318477  -0.546492  0  2.323208  0
O  O192  1  0.42913829  0.61765378  0.88530459  1  -1.164264  0  -0.321304  -0.546631  0  2.31537  0
O  O193  1  0.56667020  0.61736905  0.88943281  1  -1.167455  0  -0.322709  -0.550717  0  2.323616  0
O  O194  1  0.56820471  0.51863267  0.81083310  1  -1.166202  0  -0.31893  -0.554047  0  2.337452  0
O  O195  1  0.43080993  0.51031800  0.81000525  1  -1.165054  0  -0.320067  -0.555444  0  2.307841  0
O  O196  1  0.56868534  0.39000421  0.87063119  1  -1.177815  0  -0.321319  -0.555362  0  2.331727  0
O  O197  1  0.43127898  0.38906900  0.87649878  1  -1.169167  0  -0.319015  -0.544702  0  2.319798  0
O  O198  1  0.43077735  0.49574958  0.95234216  1  -1.17339  0  -0.319633  -0.551061  0  2.314946  0
O  O199  1  0.56832851  0.48855609  0.95090953  1  -1.168289  0  -0.321617  -0.551185  0  2.32695  0
