# generated using pymatgen
data_ZnH16C19N3O5
_symmetry_space_group_name_H-M   'P 1'
_cell_length_a   9.76400405
_cell_length_b   10.17659251
_cell_length_c   10.16040637
_cell_angle_alpha   83.91026694
_cell_angle_beta   76.92833188
_cell_angle_gamma   62.12428824
_symmetry_Int_Tables_number   1
_chemical_formula_structural   ZnH16C19N3O5
_chemical_formula_sum   'Zn2 H32 C38 N6 O10'
_cell_volume   869.30879634
_cell_formula_units_Z   2
loop_
 _symmetry_equiv_pos_site_id
 _symmetry_equiv_pos_as_xyz
  1  'x, y, z'
loop_
 _atom_site_type_symbol
 _atom_site_label
 _atom_site_symmetry_multiplicity
 _atom_site_fract_x
 _atom_site_fract_y
 _atom_site_fract_z
 _atom_site_occupancy
 _atom_site_pbe_bader_spin_density
 _atom_site_pbe_cm5_charge
 _atom_site_pbe_ddec_charge
 _atom_site_pbe_ddec_spin_density
 _atom_site_pbe_ddec_sum_bond_order
 _atom_site_pbe_magmom
Zn  Zn0  1  0.37579756  0.97222004  0.25935956  1  0  0.690151  0.853153  0  2.342128  0
Zn  Zn1  1  0.62420124  0.02778260  0.74063883  1  0  0.69019  0.853213  0  2.342079  0
H  H2  1  0.89848170  0.75951828  0.50756453  1  0  0.111891  0.101025  0  1.008414  0
H  H3  1  0.10152082  0.24048101  0.49243244  1  0  0.111872  0.100991  0  1.008452  0
H  H4  1  0.05546965  0.68334791  0.36483322  1  0  0.107987  0.087889  0  0.990815  0
H  H5  1  0.94453129  0.31664807  0.63516446  1  0  0.107966  0.087849  0  0.990828  0
H  H6  1  0.70295229  0.92846045  0.04827972  1  0  0.119086  0.126928  0  1.020385  0
H  H7  1  0.29704863  0.07153997  0.95172043  1  0  0.119063  0.126895  0  1.020346  0
H  H8  1  0.39543795  0.53673177  0.66309036  1  0  0.125736  0.117614  0  1.032429  0
H  H9  1  0.60456245  0.46326755  0.33690904  1  0  0.125741  0.117621  0  1.032436  0
H  H10  1  0.45603791  0.69805704  0.47791432  1  0  0.11326  0.14191  0  1.021818  0
H  H11  1  0.54396513  0.30194115  0.52208463  1  0  0.11326  0.141933  0  1.021809  0
H  H12  1  0.99433878  0.05699320  0.63450821  1  0  0.11204  0.134673  0  1.005231  0
H  H13  1  0.00566426  0.94300499  0.36549172  1  0  0.112027  0.134625  0  1.005285  0
H  H14  1  0.17840036  0.49657516  0.78665076  1  0  0.119422  0.1106  0  0.980471  0
H  H15  1  0.82160268  0.50342303  0.21334818  1  0  0.119425  0.110609  0  0.980455  0
H  H16  1  0.00889332  0.65075294  0.86976584  1  0  0.116484  0.102913  0  1.004862  0
H  H17  1  0.99110866  0.34924525  0.13023334  1  0  0.116499  0.102948  0  1.004827  0
H  H18  1  0.24395996  0.77086863  0.95071013  1  0  0.106583  0.11406  0  1.007224  0
H  H19  1  0.75604309  0.22912956  0.04928980  1  0  0.106593  0.11409  0  1.007216  0
H  H20  1  0.38855734  0.47564942  0.28358583  1  0  0.103607  0.103986  0  1.04475  0
H  H21  1  0.61143935  0.52435105  0.71641720  1  0  0.103609  0.103976  0  1.044754  0
H  H22  1  0.95000793  0.88237225  0.80694971  1  0  0.129019  0.11753  0  1.006942  0
H  H23  1  0.04999193  0.11762819  0.19305165  1  0  0.129032  0.117563  0  1.006932  0
H  H24  1  0.98779485  0.77216250  0.13837316  1  0  0.113508  0.11383  0  1.067555  0
H  H25  1  0.01220502  0.22783793  0.86162624  1  0  0.113509  0.113862  0  1.067535  0
H  H26  1  0.21004557  0.35926356  0.99040674  1  0  0.099616  0.098258  0  1.050654  0
H  H27  1  0.78995429  0.64073687  0.00959364  1  0  0.099634  0.098287  0  1.050625  0
H  H28  1  0.60974470  0.83066824  0.46533549  1  0  0.140836  0.125066  0  1.029557  0
H  H29  1  0.39025675  0.16933108  0.53466466  1  0  0.140823  0.125071  0  1.029518  0
H  H30  1  0.99688944  0.47311334  0.35518915  1  0  0.089437  0.08257  0  1.009642  0
H  H31  1  0.00310355  0.52689047  0.64481136  1  0  0.089429  0.082582  0  1.00957  0
H  H32  1  0.82800519  0.55308068  0.48804071  1  0  0.094222  0.093587  0  0.997844  0
H  H33  1  0.17199044  0.44692419  0.51195518  1  0  0.094162  0.093507  0  0.997739  0
C  C34  1  0.29723372  0.40496590  0.14726548  1  0  -0.019044  -0.023651  0  3.98367  0
C  C35  1  0.70276244  0.59503568  0.85273656  1  0  -0.019055  -0.023642  0  3.983691  0
C  C36  1  0.93907710  0.69324605  0.41541182  1  0  -0.054149  -0.065458  0  3.868657  0
C  C37  1  0.06092384  0.30674994  0.58458783  1  0  -0.054117  -0.065407  0  3.868599  0
C  C38  1  0.22985993  0.89403793  0.53727309  1  0  0.115336  0.403738  0  4.108366  0
C  C39  1  0.77014098  0.10596250  0.46272804  1  0  0.115335  0.403779  0  4.108328  0
C  C40  1  0.72511336  0.88448873  0.14751951  1  0  -0.002863  -0.028722  0  3.980343  0
C  C41  1  0.27488862  0.11551167  0.85247844  1  0  -0.002822  -0.02866  0  3.980233  0
C  C42  1  0.31207078  0.65246797  0.64815342  1  0  0.045816  0.037495  0  3.884681  0
C  C43  1  0.68793068  0.34753134  0.35184575  1  0  0.045814  0.037461  0  3.8848  0
C  C44  1  0.34401283  0.74258960  0.54955102  1  0  -0.097543  -0.241711  0  3.935807  0
C  C45  1  0.65598915  0.25741082  0.45044890  1  0  -0.097551  -0.241743  0  3.935852  0
C  C46  1  0.08668079  0.94344422  0.63710352  1  0  -0.099743  -0.248347  0  3.961273  0
C  C47  1  0.91332012  0.05655622  0.36289859  1  0  -0.099732  -0.24829  0  3.961322  0
C  C48  1  0.13835772  0.60194544  0.83765635  1  0  -0.044377  -0.128272  0  3.892729  0
C  C49  1  0.86164532  0.39805275  0.16234260  1  0  -0.044355  -0.128263  0  3.892722  0
C  C50  1  0.32130737  0.26442794  0.22599314  1  0  0.198416  0.563113  0  4.22292  0
C  C51  1  0.67868774  0.73557365  0.77400913  1  0  0.198438  0.563093  0  4.223004  0
C  C52  1  0.25824533  0.66802618  0.00449576  1  0  -0.083096  -0.150102  0  3.925959  0
C  C53  1  0.74175666  0.33197202  0.99550440  1  0  -0.083173  -0.150233  0  3.925929  0
C  C54  1  0.32239109  0.63333188  0.12156158  1  0  -0.017464  -0.024457  0  3.985492  0
C  C55  1  0.67761036  0.36666744  0.87844054  1  0  -0.017453  -0.024433  0  3.985436  0
C  C56  1  0.34011192  0.50282469  0.19231714  1  0  -0.080574  -0.122043  0  3.963533  0
C  C57  1  0.65988477  0.49717578  0.80768491  1  0  -0.080566  -0.121987  0  3.963446  0
C  C58  1  0.37191127  0.73221120  0.17661272  1  0  0.196447  0.562714  0  4.221099  0
C  C59  1  0.62809072  0.26778700  0.82338744  1  0  0.196431  0.562712  0  4.221111  0
C  C60  1  0.06029805  0.84841590  0.73302931  1  0  0.047533  0.033944  0  3.917292  0
C  C61  1  0.93970394  0.15158229  0.26696889  1  0  0.047525  0.033857  0  3.917235  0
C  C62  1  0.21530260  0.57047053  0.95842837  1  0  -0.012116  0.090781  0  3.975544  0
C  C63  1  0.78469990  0.42952878  0.04157254  1  0  -0.012119  0.09081  0  3.975512  0
C  C64  1  0.86632383  0.80707675  0.19002863  1  0  -0.007766  -0.122548  0  3.938211  0
C  C65  1  0.13367761  0.19292478  0.80997227  1  0  -0.007763  -0.122601  0  3.938207  0
C  C66  1  0.23715345  0.43857463  0.02901685  1  0  -0.082757  -0.137379  0  3.926135  0
C  C67  1  0.76284536  0.56142581  0.97098376  1  0  -0.082774  -0.137453  0  3.926156  0
C  C68  1  0.66967186  0.83600779  0.36242956  1  0  0.146582  0.10132  0  3.864596  0
C  C69  1  0.33032853  0.16399375  0.63756959  1  0  0.146602  0.101307  0  3.864491  0
C  C70  1  0.94837131  0.53989169  0.44817186  1  0  -0.164549  -0.165139  0  3.942157  0
C  C71  1  0.05162011  0.46011101  0.55182518  1  0  -0.164582  -0.165137  0  3.941921  0
N  N72  1  0.82899038  0.77733289  0.32567190  1  0  -0.242614  0.050036  0  3.767856  0
N  N73  1  0.17101159  0.22266753  0.67432802  1  0  -0.242649  0.050033  0  3.767755  0
N  N74  1  0.17075913  0.70390118  0.73781321  1  0  -0.236838  0.061538  0  3.77104  0
N  N75  1  0.82924286  0.29609703  0.26218695  1  0  -0.236835  0.061595  0  3.770967  0
N  N76  1  0.60398973  0.90057528  0.25614759  1  0  -0.360715  -0.293105  0  3.642743  0
N  N77  1  0.39600961  0.09942626  0.74385081  1  0  -0.360711  -0.293099  0  3.642699  0
O  O78  1  0.28584390  0.17445282  0.17557809  1  0  -0.339689  -0.579661  0  2.304066  0
O  O79  1  0.71414591  0.82555104  0.82442705  1  0  -0.339726  -0.579711  0  2.304073  0
O  O80  1  0.37289544  0.24156496  0.33242348  1  0  -0.31825  -0.549128  0  2.181952  0
O  O81  1  0.62710655  0.75843323  0.66757471  1  0  -0.318238  -0.549085  0  2.181936  0
O  O82  1  0.24894488  0.98437105  0.44473765  1  0  -0.323784  -0.522437  0  2.394487  0
O  O83  1  0.75105763  0.01562826  0.55526326  1  0  -0.323792  -0.522475  0  2.394451  0
O  O84  1  0.30705043  0.87209477  0.14464017  1  0  -0.336324  -0.563976  0  2.249418  0
O  O85  1  0.69295102  0.12790454  0.85535998  1  0  -0.336339  -0.563996  0  2.249433  0
O  O86  1  0.46933640  0.67722393  0.25359441  1  0  -0.318711  -0.564099  0  2.213922  0
O  O87  1  0.53066453  0.32277427  0.74640499  1  0  -0.318677  -0.564084  0  2.213904  0
