# generated using pymatgen
data_Zn4H24C48O13
_symmetry_space_group_name_H-M   'P 1'
_cell_length_a   19.89818001
_cell_length_b   19.89818112
_cell_length_c   39.77540416
_cell_angle_alpha   90.00008222
_cell_angle_beta   90.00012088
_cell_angle_gamma   90.00002631
_symmetry_Int_Tables_number   1
_chemical_formula_structural   Zn4H24C48O13
_chemical_formula_sum   'Zn16 H96 C192 O52'
_cell_volume   15748.57765195
_cell_formula_units_Z   4
loop_
 _symmetry_equiv_pos_site_id
 _symmetry_equiv_pos_as_xyz
  1  'x, y, z'
loop_
 _atom_site_type_symbol
 _atom_site_label
 _atom_site_symmetry_multiplicity
 _atom_site_fract_x
 _atom_site_fract_y
 _atom_site_fract_z
 _atom_site_occupancy
 _atom_site_pbe_bader_charge
 _atom_site_pbe_bader_spin_density
 _atom_site_pbe_cm5_charge
 _atom_site_pbe_ddec_charge
 _atom_site_pbe_ddec_spin_density
 _atom_site_pbe_ddec_sum_bond_order
 _atom_site_pbe_magmom
Zn  Zn0  1  0.30704539  0.19295335  0.32429788  1  1.313154  0  0.669603  0.962917  0  2.380837  0
Zn  Zn1  1  0.19295408  0.30704465  0.32429685  1  1.313106  0  0.669588  0.962861  0  2.380693  0
Zn  Zn2  1  0.30704346  0.30704540  0.82429611  1  1.313057  0  0.669603  0.962849  0  2.380614  0
Zn  Zn3  1  0.19295209  0.19294901  0.82429852  1  1.313014  0  0.669659  0.963026  0  2.380784  0
Zn  Zn4  1  0.69295586  0.69295521  0.17570266  1  1.313054  0  0.669589  0.962898  0  2.380685  0
Zn  Zn5  1  0.80704874  0.80705008  0.17570226  1  1.313058  0  0.669663  0.963018  0  2.380744  0
Zn  Zn6  1  0.69295242  0.80704424  0.67570366  1  1.313173  0  0.669526  0.962726  0  2.3807  0
Zn  Zn7  1  0.80704876  0.69295042  0.67570041  1  1.313113  0  0.669714  0.963114  0  2.380721  0
Zn  Zn8  1  0.30687895  0.30687875  0.26741905  1  1.312114  0  0.669432  0.960947  0  2.387267  0
Zn  Zn9  1  0.19311576  0.19311607  0.26741719  1  1.312014  0  0.669553  0.961082  0  2.387484  0
Zn  Zn10  1  0.19311634  0.30688347  0.76741844  1  1.312019  0  0.6695  0.961059  0  2.387277  0
Zn  Zn11  1  0.30687847  0.19311932  0.76741996  1  1.312114  0  0.669433  0.960987  0  2.387236  0
Zn  Zn12  1  0.69311633  0.80688379  0.23258208  1  1.311957  0  0.669534  0.961192  0  2.387316  0
Zn  Zn13  1  0.80687897  0.69312166  0.23257958  1  1.312074  0  0.669435  0.960978  0  2.387199  0
Zn  Zn14  1  0.80688256  0.80688152  0.73258158  1  1.312039  0  0.669498  0.961073  0  2.387283  0
Zn  Zn15  1  0.69312188  0.69312084  0.73258047  1  1.312108  0  0.669423  0.960961  0  2.387286  0
H  H16  1  0.51414362  0.32815058  0.25834974  1  0.101278  0  0.110075  0.116349  0  0.98883  0
H  H17  1  0.98585658  0.17184947  0.25834893  1  0.10125  0  0.11011  0.116381  0  0.988803  0
H  H18  1  0.17184809  0.51414310  0.75834933  1  0.101245  0  0.110103  0.116394  0  0.9888  0
H  H19  1  0.32815093  0.98585660  0.75834908  1  0.101281  0  0.110104  0.116413  0  0.988758  0
H  H20  1  0.48585569  0.82815203  0.24165039  1  0.101258  0  0.110089  0.116355  0  0.988843  0
H  H21  1  0.01414467  0.67184919  0.24165084  1  0.101279  0  0.110095  0.116338  0  0.988823  0
H  H22  1  0.82815118  0.01414275  0.74165073  1  0.101241  0  0.110098  0.11638  0  0.988818  0
H  H23  1  0.67184955  0.48585568  0.74165032  1  0.101295  0  0.110091  0.116363  0  0.988802  0
H  H24  1  0.48585671  0.67184902  0.74165054  1  0.101263  0  0.110117  0.116389  0  0.988776  0
H  H25  1  0.01414375  0.82815113  0.74165009  1  0.101295  0  0.110097  0.116373  0  0.988814  0
H  H26  1  0.82815174  0.48585600  0.24165095  1  0.101251  0  0.110094  0.116353  0  0.988819  0
H  H27  1  0.67184789  0.01414300  0.24165045  1  0.101237  0  0.110086  0.116358  0  0.988853  0
H  H28  1  0.51414514  0.17184907  0.75834913  1  0.1013  0  0.11009  0.116362  0  0.988815  0
H  H29  1  0.98585616  0.32814990  0.75834868  1  0.101258  0  0.110083  0.116338  0  0.988813  0
H  H30  1  0.17184965  0.98585584  0.25834930  1  0.101279  0  0.110096  0.116358  0  0.9888  0
H  H31  1  0.32815027  0.51414442  0.25834921  1  0.101287  0  0.110097  0.116369  0  0.988794  0
H  H32  1  0.63981089  0.32891098  0.25818388  1  0.070879  0  0.104916  0.110912  0  1.003673  0
H  H33  1  0.86018930  0.17108806  0.25818344  1  0.070857  0  0.104914  0.110959  0  1.003589  0
H  H34  1  0.17108825  0.63981036  0.75818344  1  0.070872  0  0.104929  0.110933  0  1.003607  0
H  H35  1  0.32891127  0.86018883  0.75818385  1  0.070875  0  0.104916  0.110956  0  1.003617  0
H  H36  1  0.36018892  0.82891137  0.24181701  1  0.070838  0  0.104915  0.110918  0  1.003609  0
H  H37  1  0.13981245  0.67108936  0.24181684  1  0.070841  0  0.104915  0.110954  0  1.003553  0
H  H38  1  0.82891208  0.13981052  0.74181646  1  0.070871  0  0.104927  0.110916  0  1.003615  0
H  H39  1  0.67108915  0.36018891  0.74181620  1  0.07087  0  0.104912  0.110952  0  1.003637  0
H  H40  1  0.36018943  0.67108811  0.74181615  1  0.070898  0  0.104947  0.110953  0  1.003589  0
H  H41  1  0.13981102  0.82891153  0.74181609  1  0.070903  0  0.10494  0.110914  0  1.003653  0
H  H42  1  0.82891359  0.36018823  0.24181634  1  0.071097  0  0.104943  0.111  0  1.003536  0
H  H43  1  0.67108755  0.13981077  0.24181668  1  0.071061  0  0.104912  0.110904  0  1.003617  0
H  H44  1  0.63981191  0.17108873  0.75818352  1  0.070858  0  0.104892  0.110938  0  1.003624  0
H  H45  1  0.86018939  0.32891125  0.75818344  1  0.070841  0  0.104928  0.110975  0  1.003559  0
H  H46  1  0.17108925  0.86018757  0.25818282  1  0.070828  0  0.104906  0.11095  0  1.003563  0
H  H47  1  0.32891067  0.63981219  0.25818383  1  0.070876  0  0.104903  0.110952  0  1.003618  0
H  H48  1  0.64018090  0.17204349  0.33305622  1  0.084367  0  0.107795  0.11219  0  0.986203  0
H  H49  1  0.85981961  0.32795628  0.33305539  1  0.084421  0  0.107818  0.112199  0  0.986272  0
H  H50  1  0.32795602  0.64017988  0.83305617  1  0.084324  0  0.107804  0.112218  0  0.986221  0
H  H51  1  0.17204382  0.85982002  0.83305667  1  0.084303  0  0.107812  0.112206  0  0.986194  0
H  H52  1  0.35981884  0.67204416  0.16694456  1  0.08433  0  0.107819  0.112197  0  0.986265  0
H  H53  1  0.14018120  0.82795635  0.16694475  1  0.084396  0  0.107817  0.112217  0  0.986242  0
H  H54  1  0.67204381  0.14018026  0.66694448  1  0.084348  0  0.107813  0.1122  0  0.986254  0
H  H55  1  0.82795761  0.35981896  0.66694464  1  0.084377  0  0.10782  0.112216  0  0.986237  0
H  H56  1  0.35981993  0.82795611  0.66694355  1  0.084318  0  0.1078  0.112204  0  0.986227  0
H  H57  1  0.14018021  0.67204332  0.66694388  1  0.084372  0  0.107787  0.112175  0  0.986248  0
H  H58  1  0.67204481  0.35981821  0.16694436  1  0.08434  0  0.107804  0.11218  0  0.98616  0
H  H59  1  0.82795601  0.14018008  0.16694486  1  0.08443  0  0.107803  0.112172  0  0.986232  0
H  H60  1  0.64018149  0.32795544  0.83305598  1  0.084313  0  0.107816  0.112217  0  0.986189  0
H  H61  1  0.85981913  0.17204425  0.83305553  1  0.084342  0  0.10783  0.112231  0  0.986179  0
H  H62  1  0.32795702  0.85981884  0.33305555  1  0.084402  0  0.107817  0.112258  0  0.986163  0
H  H63  1  0.17204422  0.64018164  0.33305640  1  0.084294  0  0.107804  0.112182  0  0.986197  0
H  H64  1  0.51452117  0.17226709  0.33305440  1  0.084195  0  0.109376  0.114831  0  0.991586  0
H  H65  1  0.98547834  0.32773317  0.33305344  1  0.084103  0  0.109393  0.114863  0  0.991554  0
H  H66  1  0.32773235  0.51452066  0.83305387  1  0.084223  0  0.109378  0.114824  0  0.991542  0
H  H67  1  0.17226648  0.98547975  0.83305345  1  0.084091  0  0.109386  0.11485  0  0.991586  0
H  H68  1  0.48547807  0.67226682  0.16694613  1  0.084235  0  0.109387  0.114827  0  0.991537  0
H  H69  1  0.01452147  0.82773318  0.16694644  1  0.08423  0  0.109386  0.11486  0  0.991538  0
H  H70  1  0.67226641  0.01452103  0.66694644  1  0.084095  0  0.10939  0.11484  0  0.991539  0
H  H71  1  0.82773451  0.48547768  0.66694619  1  0.084221  0  0.109384  0.11483  0  0.991549  0
H  H72  1  0.48547967  0.82773351  0.66694638  1  0.084227  0  0.109384  0.114844  0  0.991533  0
H  H73  1  0.01452048  0.67226592  0.66694583  1  0.084183  0  0.109361  0.11481  0  0.991567  0
H  H74  1  0.67226747  0.48547743  0.16694666  1  0.084154  0  0.109381  0.114816  0  0.991559  0
H  H75  1  0.82773234  0.01452135  0.16694658  1  0.084121  0  0.10939  0.114845  0  0.991554  0
H  H76  1  0.51452276  0.32773278  0.83305415  1  0.084257  0  0.109377  0.11482  0  0.991554  0
H  H77  1  0.98547785  0.17226591  0.83305334  1  0.084095  0  0.109381  0.114861  0  0.991577  0
H  H78  1  0.32773392  0.98547857  0.33305333  1  0.084095  0  0.109381  0.114841  0  0.991572  0
H  H79  1  0.17226733  0.51452242  0.33305434  1  0.084235  0  0.109376  0.114822  0  0.991569  0
H  H80  1  0.32631521  0.17368491  0.42797804  1  0.098799  0  0.109307  0.115151  0  0.991461  0
H  H81  1  0.17368269  0.32631641  0.42797952  1  0.098766  0  0.109287  0.115129  0  0.991468  0
H  H82  1  0.32631831  0.32631716  0.92798030  1  0.098792  0  0.109292  0.115144  0  0.991424  0
H  H83  1  0.17368572  0.17368508  0.92797815  1  0.098826  0  0.109289  0.1151  0  0.991533  0
H  H84  1  0.67368604  0.67368545  0.07202174  1  0.098831  0  0.109308  0.115142  0  0.991501  0
H  H85  1  0.82631712  0.82631753  0.07202087  1  0.098744  0  0.109279  0.11511  0  0.991424  0
H  H86  1  0.67368311  0.82631670  0.57202099  1  0.098742  0  0.109285  0.11513  0  0.99143  0
H  H87  1  0.82631412  0.67368419  0.57202202  1  0.098783  0  0.109295  0.115128  0  0.991499  0
H  H88  1  0.32666060  0.17334024  0.49080732  1  0.074665  0  0.10748  0.109969  0  0.987584  0
H  H89  1  0.17334008  0.32666075  0.49080855  1  0.074661  0  0.107416  0.109969  0  0.987338  0
H  H90  1  0.32666068  0.32665949  0.99080883  1  0.07465  0  0.107471  0.110038  0  0.987434  0
H  H91  1  0.17334060  0.17333941  0.99080743  1  0.074693  0  0.107422  0.109901  0  0.987482  0
H  H92  1  0.67333964  0.67334061  0.00919246  1  0.074712  0  0.107439  0.109921  0  0.987382  0
H  H93  1  0.82665973  0.82666119  0.00919209  1  0.074648  0  0.107485  0.110047  0  0.987511  0
H  H94  1  0.67334023  0.82666086  0.50919221  1  0.074668  0  0.107417  0.109936  0  0.98742  0
H  H95  1  0.82665975  0.67333985  0.50919324  1  0.074723  0  0.107422  0.10987  0  0.9875  0
H  H96  1  0.32665178  0.17334844  0.60091204  1  0.071574  0  0.107  0.109473  0  0.987947  0
H  H97  1  0.17334735  0.32665287  0.60091227  1  0.07153  0  0.107028  0.109503  0  0.987943  0
H  H98  1  0.32665378  0.32665168  0.10091190  1  0.071523  0  0.107006  0.109465  0  0.987965  0
H  H99  1  0.17334827  0.17334718  0.10091201  1  0.071532  0  0.107  0.109464  0  0.987992  0
H  H100  1  0.67334655  0.67334791  0.89908838  1  0.071522  0  0.10699  0.109453  0  0.987987  0
H  H101  1  0.82665256  0.82665342  0.89908852  1  0.071518  0  0.107003  0.109451  0  0.987952  0
H  H102  1  0.67334804  0.82665216  0.39908824  1  0.071548  0  0.107006  0.109466  0  0.987991  0
H  H103  1  0.82665348  0.67334723  0.39908776  1  0.07152  0  0.107018  0.109488  0  0.987954  0
H  H104  1  0.32633179  0.17366816  0.66375238  1  0.108318  0  0.109343  0.115353  0  0.991525  0
H  H105  1  0.17366711  0.32633283  0.66375236  1  0.108268  0  0.109316  0.11529  0  0.991605  0
H  H106  1  0.32633278  0.32633114  0.16375224  1  0.108309  0  0.109349  0.115292  0  0.991574  0
H  H107  1  0.17366853  0.17366740  0.16375236  1  0.108324  0  0.109309  0.115261  0  0.991488  0
H  H108  1  0.67366705  0.67366795  0.83624754  1  0.108305  0  0.109302  0.115268  0  0.991477  0
H  H109  1  0.82633180  0.82633270  0.83624767  1  0.108308  0  0.10933  0.115312  0  0.991553  0
H  H110  1  0.67366955  0.82633295  0.33624790  1  0.108326  0  0.109304  0.115294  0  0.991481  0
H  H111  1  0.82633372  0.67366828  0.33624767  1  0.108285  0  0.109318  0.115251  0  0.991558  0
C  C112  1  0.43200150  0.24995402  0.29573785  1  1.492222  0  0.225586  0.603371  0  4.174111  0
C  C113  1  0.06799886  0.25004641  0.29573716  1  1.492217  0  0.225603  0.603371  0  4.173932  0
C  C114  1  0.25004173  0.43200149  0.79573903  1  1.492255  0  0.225663  0.603507  0  4.173857  0
C  C115  1  0.24995018  0.06799787  0.79573689  1  1.491989  0  0.225654  0.603536  0  4.173934  0
C  C116  1  0.56799928  0.74995792  0.20426172  1  1.492316  0  0.225726  0.603633  0  4.173818  0
C  C117  1  0.93200142  0.75004444  0.20426217  1  1.49223  0  0.225669  0.603422  0  4.173979  0
C  C118  1  0.74995320  0.93200094  0.70426284  1  1.491899  0  0.225679  0.603535  0  4.17369  0
C  C119  1  0.75004458  0.56799883  0.70426195  1  1.492258  0  0.225731  0.603626  0  4.173865  0
C  C120  1  0.56799833  0.75004759  0.70426243  1  1.491922  0  0.225582  0.603397  0  4.174089  0
C  C121  1  0.93200097  0.74995721  0.70426186  1  1.492222  0  0.225698  0.603562  0  4.173836  0
C  C122  1  0.74995709  0.56799861  0.20426201  1  1.492282  0  0.225685  0.603519  0  4.173994  0
C  C123  1  0.75004512  0.93200173  0.20426214  1  1.492268  0  0.225769  0.603776  0  4.173811  0
C  C124  1  0.43200104  0.25004470  0.79573906  1  1.492296  0  0.225418  0.603209  0  4.174042  0
C  C125  1  0.06799891  0.24995013  0.79573535  1  1.49201  0  0.225685  0.603497  0  4.173995  0
C  C126  1  0.25004612  0.06799866  0.29573744  1  1.492269  0  0.22568  0.603462  0  4.173897  0
C  C127  1  0.24995323  0.43200077  0.29573757  1  1.492235  0  0.225616  0.603461  0  4.174021  0
C  C128  1  0.50696413  0.25010531  0.29565895  1  0.051395  0  -0.019745  -0.046348  0  3.98042  0
C  C129  1  0.99303673  0.24989585  0.29565795  1  0.051424  0  -0.019681  -0.046223  0  3.980325  0
C  C130  1  0.24989349  0.50696311  0.79565961  1  0.051376  0  -0.019646  -0.046314  0  3.980406  0
C  C131  1  0.25010317  0.99303618  0.79565853  1  0.051353  0  -0.019685  -0.04628  0  3.980473  0
C  C132  1  0.49303514  0.75010716  0.20434088  1  0.051418  0  -0.019669  -0.04636  0  3.980406  0
C  C133  1  0.00696405  0.74989446  0.20434163  1  0.051441  0  -0.019673  -0.046269  0  3.980376  0
C  C134  1  0.75010426  0.00696313  0.70434145  1  0.051442  0  -0.019668  -0.046323  0  3.980488  0
C  C135  1  0.74989631  0.49303569  0.70434137  1  0.051431  0  -0.019717  -0.046422  0  3.98041  0
C  C136  1  0.49303620  0.74989479  0.70434108  1  0.051432  0  -0.019743  -0.046392  0  3.980592  0
C  C137  1  0.00696310  0.75010525  0.70434082  1  0.05138  0  -0.019721  -0.046465  0  3.980535  0
C  C138  1  0.75010683  0.49303598  0.20434117  1  0.05137  0  -0.019654  -0.046261  0  3.980434  0
C  C139  1  0.74989364  0.00696341  0.20434075  1  0.051363  0  -0.019643  -0.046365  0  3.980574  0
C  C140  1  0.50696468  0.24989495  0.79565865  1  0.051421  0  -0.01969  -0.046298  0  3.980533  0
C  C141  1  0.99303627  0.25010262  0.79565714  1  0.051416  0  -0.019658  -0.04623  0  3.980349  0
C  C142  1  0.24989657  0.99303597  0.29565807  1  0.051429  0  -0.019684  -0.046299  0  3.98039  0
C  C143  1  0.25010402  0.50696390  0.29565865  1  0.051427  0  -0.019695  -0.04634  0  3.980357  0
C  C144  1  0.54235226  0.29425907  0.27458264  1  -0.085478  0  -0.078808  -0.082371  0  3.978144  0
C  C145  1  0.95764751  0.20574103  0.27458208  1  -0.085478  0  -0.078856  -0.082399  0  3.978154  0
C  C146  1  0.20574118  0.54235224  0.77458225  1  -0.085431  0  -0.078902  -0.082496  0  3.978082  0
C  C147  1  0.29425791  0.95764700  0.77458270  1  -0.085411  0  -0.078855  -0.082478  0  3.978168  0
C  C148  1  0.45764804  0.79425946  0.22541797  1  -0.085528  0  -0.078871  -0.082418  0  3.978208  0
C  C149  1  0.04235325  0.70574122  0.22541822  1  -0.0855  0  -0.07884  -0.082328  0  3.978113  0
C  C150  1  0.79425910  0.04235183  0.72541783  1  -0.085504  0  -0.078898  -0.082504  0  3.978172  0
C  C151  1  0.70574156  0.45764705  0.72541743  1  -0.085453  0  -0.078846  -0.082368  0  3.978143  0
C  C152  1  0.45764807  0.70574203  0.72541764  1  -0.085507  0  -0.078832  -0.082373  0  3.97811  0
C  C153  1  0.04235182  0.79425757  0.72541770  1  -0.085455  0  -0.078832  -0.082348  0  3.978114  0
C  C154  1  0.79425965  0.45764736  0.22541803  1  -0.085442  0  -0.078878  -0.082419  0  3.978143  0
C  C155  1  0.70574091  0.04235159  0.22541783  1  -0.085464  0  -0.078865  -0.082427  0  3.97822  0
C  C156  1  0.54235379  0.20574115  0.77458256  1  -0.085484  0  -0.078842  -0.082378  0  3.97827  0
C  C157  1  0.95764707  0.29425888  0.77458206  1  -0.08549  0  -0.078841  -0.082338  0  3.978107  0
C  C158  1  0.20574223  0.95764677  0.27458195  1  -0.085463  0  -0.078846  -0.082346  0  3.978137  0
C  C159  1  0.29425726  0.54235305  0.27458185  1  -0.085442  0  -0.078873  -0.082381  0  3.978106  0
C  C160  1  0.61215462  0.29467973  0.27449368  1  0.074192  0  -0.081195  -0.12712  0  3.938063  0
C  C161  1  0.88784564  0.20532087  0.27449228  1  0.074252  0  -0.081146  -0.127145  0  3.937948  0
C  C162  1  0.20531955  0.61215460  0.77449328  1  0.074217  0  -0.081165  -0.127046  0  3.937939  0
C  C163  1  0.29467904  0.88784464  0.77449342  1  0.07416  0  -0.081181  -0.127154  0  3.938161  0
C  C164  1  0.38784618  0.79468008  0.22550694  1  0.074178  0  -0.081173  -0.12707  0  3.937967  0
C  C165  1  0.11215512  0.70532160  0.22550776  1  0.074278  0  -0.0811  -0.127098  0  3.937881  0
C  C166  1  0.79467926  0.11215368  0.72550736  1  0.074278  0  -0.081194  -0.127058  0  3.937973  0
C  C167  1  0.70532291  0.38784469  0.72550741  1  0.07429  0  -0.081209  -0.127247  0  3.938043  0
C  C168  1  0.38784571  0.70532037  0.72550660  1  0.074162  0  -0.081178  -0.127066  0  3.937974  0
C  C169  1  0.11215468  0.79467973  0.72550623  1  0.074196  0  -0.081186  -0.127078  0  3.937982  0
C  C170  1  0.79468078  0.38784500  0.22550751  1  0.074032  0  -0.081169  -0.127146  0  3.937864  0
C  C171  1  0.70531878  0.11215395  0.22550661  1  0.074018  0  -0.081124  -0.126987  0  3.937837  0
C  C172  1  0.61215515  0.20532052  0.77449309  1  0.074147  0  -0.081164  -0.127201  0  3.938132  0
C  C173  1  0.88784521  0.29467850  0.77449226  1  0.074275  0  -0.081132  -0.127148  0  3.937909  0
C  C174  1  0.20532157  0.88784491  0.27449217  1  0.074275  0  -0.081104  -0.127113  0  3.937967  0
C  C175  1  0.29467842  0.61215541  0.27449312  1  0.074167  0  -0.081141  -0.127173  0  3.938065  0
C  C176  1  0.64815845  0.25044005  0.29559994  1  0.047142  0  0.004992  0.143131  0  4.113749  0
C  C177  1  0.85184190  0.24955911  0.29559879  1  0.047024  0  0.004936  0.142991  0  4.113841  0
C  C178  1  0.24955882  0.64815843  0.79559982  1  0.047091  0  0.004968  0.143023  0  4.113897  0
C  C179  1  0.25044036  0.85184187  0.79559964  1  0.047122  0  0.004931  0.143013  0  4.113866  0
C  C180  1  0.35184233  0.75044082  0.20440089  1  0.047155  0  0.004994  0.143043  0  4.11384  0
C  C181  1  0.14815837  0.74956130  0.20440154  1  0.047026  0  0.004961  0.143036  0  4.113787  0
C  C182  1  0.75044000  0.14815794  0.70440134  1  0.046983  0  0.004972  0.14305  0  4.113883  0
C  C183  1  0.74956258  0.35184138  0.70440141  1  0.047014  0  0.005003  0.14323  0  4.113665  0
C  C184  1  0.35184188  0.74955905  0.70440009  1  0.047137  0  0.004924  0.142934  0  4.113943  0
C  C185  1  0.14815842  0.75043948  0.70439973  1  0.047156  0  0.004961  0.143021  0  4.113864  0
C  C186  1  0.75044201  0.35184117  0.20440121  1  0.046952  0  0.004984  0.143056  0  4.113797  0
C  C187  1  0.74955947  0.14815773  0.20440089  1  0.047061  0  0.004955  0.142981  0  4.113734  0
C  C188  1  0.64815850  0.24955978  0.79559964  1  0.047117  0  0.004937  0.143125  0  4.113835  0
C  C189  1  0.85184246  0.25043980  0.79559899  1  0.046984  0  0.004917  0.142974  0  4.113851  0
C  C190  1  0.24956133  0.85184216  0.29559819  1  0.047006  0  0.004951  0.143059  0  4.113791  0
C  C191  1  0.25043976  0.64815872  0.29559962  1  0.047117  0  0.004921  0.143053  0  4.113857  0
C  C192  1  0.61232104  0.20606717  0.31671949  1  0.005473  0  -0.083667  -0.134564  0  3.955829  0
C  C193  1  0.88767890  0.29393305  0.31671791  1  0.005495  0  -0.083687  -0.13456  0  3.955967  0
C  C194  1  0.29393226  0.61232102  0.81671917  1  0.005569  0  -0.083689  -0.134582  0  3.955811  0
C  C195  1  0.20606700  0.88767884  0.81671897  1  0.005565  0  -0.08369  -0.134573  0  3.955788  0
C  C196  1  0.38767822  0.70606690  0.18328156  1  0.005528  0  -0.083713  -0.13461  0  3.955931  0
C  C197  1  0.11232190  0.79393416  0.18328195  1  0.005446  0  -0.083724  -0.134634  0  3.95595  0
C  C198  1  0.70606705  0.11232096  0.68328197  1  0.005559  0  -0.083651  -0.134532  0  3.955852  0
C  C199  1  0.79393545  0.38767881  0.68328211  1  0.005444  0  -0.08372  -0.134702  0  3.955955  0
C  C200  1  0.38767879  0.79393243  0.68328104  1  0.005549  0  -0.083678  -0.134527  0  3.955882  0
C  C201  1  0.11232142  0.70606655  0.68328086  1  0.005448  0  -0.083645  -0.134512  0  3.955964  0
C  C202  1  0.70606857  0.38767807  0.18328162  1  0.005568  0  -0.083668  -0.134516  0  3.95579  0
C  C203  1  0.79393232  0.11232076  0.18328156  1  0.005483  0  -0.083694  -0.134576  0  3.955856  0
C  C204  1  0.61232161  0.29393270  0.81671897  1  0.005514  0  -0.083653  -0.134557  0  3.955804  0
C  C205  1  0.88767944  0.20606644  0.81671808  1  0.005537  0  -0.083708  -0.134561  0  3.955839  0
C  C206  1  0.29393479  0.88767864  0.31671756  1  0.00545  0  -0.083728  -0.134692  0  3.955905  0
C  C207  1  0.20606739  0.61232129  0.31671917  1  0.005534  0  -0.083652  -0.134513  0  3.955819  0
C  C208  1  0.54254682  0.20614053  0.31673253  1  -0.086204  0  -0.080255  -0.08321  0  3.98806  0
C  C209  1  0.95745312  0.29386070  0.31673102  1  -0.086093  0  -0.080323  -0.083323  0  3.988071  0
C  C210  1  0.29385837  0.54254631  0.81673196  1  -0.086219  0  -0.080287  -0.083204  0  3.988069  0
C  C211  1  0.20613939  0.95745356  0.81673156  1  -0.086128  0  -0.080255  -0.083224  0  3.988096  0
C  C212  1  0.45745244  0.70614129  0.18326827  1  -0.086201  0  -0.080277  -0.083159  0  3.987971  0
C  C213  1  0.04254768  0.79386027  0.18326884  1  -0.086195  0  -0.080353  -0.083341  0  3.988066  0
C  C214  1  0.70613990  0.04254674  0.68326887  1  -0.086098  0  -0.080301  -0.083216  0  3.988137  0
C  C215  1  0.79386159  0.45745252  0.68326881  1  -0.08625  0  -0.080263  -0.083136  0  3.988061  0
C  C216  1  0.45745301  0.79385957  0.68326825  1  -0.086223  0  -0.080258  -0.08322  0  3.988084  0
C  C217  1  0.04254670  0.70613990  0.68326825  1  -0.0862  0  -0.080264  -0.08319  0  3.98812  0
C  C218  1  0.70614196  0.45745178  0.18326857  1  -0.086067  0  -0.080321  -0.083254  0  3.988116  0
C  C219  1  0.79385843  0.04254654  0.18326847  1  -0.086118  0  -0.080328  -0.083248  0  3.988121  0
C  C220  1  0.54254789  0.29385931  0.81673200  1  -0.086215  0  -0.080282  -0.083231  0  3.988088  0
C  C221  1  0.95745315  0.20613883  0.81673094  1  -0.086117  0  -0.080335  -0.083382  0  3.988137  0
C  C222  1  0.29386143  0.95745236  0.31673091  1  -0.086106  0  -0.080338  -0.083287  0  3.988155  0
C  C223  1  0.20613975  0.54254758  0.31673222  1  -0.08623  0  -0.080275  -0.083234  0  3.988057  0
C  C224  1  0.71935743  0.25033603  0.29566258  1  -0.283042  0  -0.037226  -0.099718  0  4.10397  0
C  C225  1  0.78064243  0.24966061  0.29566211  1  -0.041274  0  -0.037165  -0.099513  0  4.103968  0
C  C226  1  0.24966186  0.71935740  0.79566346  1  -0.041289  0  -0.037263  -0.099725  0  4.104138  0
C  C227  1  0.25033731  0.78064240  0.79566348  1  -0.283967  0  -0.037091  -0.09946  0  4.103953  0
C  C228  1  0.28064235  0.75033829  0.20433775  1  -0.041275  0  -0.037267  -0.099685  0  4.104033  0
C  C229  1  0.21935785  0.74966334  0.20433772  1  -0.283045  0  -0.037131  -0.099512  0  4.103964  0
C  C230  1  0.75033850  0.21935540  0.70433826  1  -0.041295  0  -0.037254  -0.099709  0  4.103814  0
C  C231  1  0.74966458  0.28064291  0.70433853  1  -0.283913  0  -0.037128  -0.099564  0  4.103672  0
C  C232  1  0.28064240  0.74966105  0.70433594  1  -0.04131  0  -0.03728  -0.099751  0  4.104197  0
C  C233  1  0.21935840  0.75033698  0.70433591  1  -0.283033  0  -0.037095  -0.09944  0  4.104016  0
C  C234  1  0.75033947  0.28064270  0.20433783  1  -0.04126  0  -0.037336  -0.099841  0  4.103918  0
C  C235  1  0.74966352  0.21935619  0.20433806  1  -0.283965  0  -0.037059  -0.099369  0  4.103753  0
C  C236  1  0.71935647  0.24966181  0.79566328  1  -0.041251  0  -0.037215  -0.099685  0  4.103671  0
C  C237  1  0.78064449  0.25033827  0.79566281  1  -0.282994  0  -0.037121  -0.099507  0  4.103602  0
C  C238  1  0.24966333  0.78064319  0.29566177  1  -0.283962  0  -0.037258  -0.099702  0  4.103964  0
C  C239  1  0.25033725  0.71935719  0.29566250  1  -0.041281  0  -0.037093  -0.0995  0  4.103937  0
C  C240  1  0.25000163  0.25000286  0.38682847  1  1.589717  0  0.22611  0.603842  0  4.171085  0
C  C241  1  0.25000067  0.25000106  0.88682892  1  1.589648  0  0.226026  0.603717  0  4.171073  0
C  C242  1  0.75000217  0.75000054  0.11317161  1  1.589659  0  0.226054  0.603859  0  4.171185  0
C  C243  1  0.74999468  0.74999774  0.61317156  1  1.589699  0  0.226139  0.603912  0  4.170916  0
C  C244  1  0.25000120  0.25000090  0.42431294  1  -0.043119  0  -0.018289  -0.041822  0  3.975149  0
C  C245  1  0.25000125  0.25000011  0.92431264  1  -0.043125  0  -0.01822  -0.041627  0  3.975032  0
C  C246  1  0.75000159  0.75000250  0.07568739  1  -0.043099  0  -0.018302  -0.041883  0  3.97521  0
C  C247  1  0.74999661  0.74999920  0.57568759  1  -0.043133  0  -0.018307  -0.041767  0  3.975185  0
C  C248  1  0.29311673  0.20688443  0.44205683  1  0.012501  0  -0.079261  -0.085155  0  3.98712  0
C  C249  1  0.20688173  0.29311893  0.44205782  1  0.012508  0  -0.079159  -0.085012  0  3.986911  0
C  C250  1  0.29311931  0.29311766  0.94205807  1  0.012483  0  -0.079148  -0.085086  0  3.986824  0
C  C251  1  0.20688427  0.20688362  0.94205724  1  0.01251  0  -0.079199  -0.085045  0  3.987062  0
C  C252  1  0.70688302  0.70688395  0.05794272  1  0.012515  0  -0.07922  -0.085027  0  3.987034  0
C  C253  1  0.79311756  0.79311949  0.05794229  1  0.012465  0  -0.079135  -0.08495  0  3.987012  0
C  C254  1  0.70688058  0.79311818  0.55794295  1  0.01249  0  -0.07924  -0.085152  0  3.987072  0
C  C255  1  0.79311558  0.70688167  0.55794346  1  0.012481  0  -0.079239  -0.08516  0  3.987054  0
C  C256  1  0.29326003  0.20674075  0.47694472  1  -0.05363  0  -0.081168  -0.126615  0  3.947567  0
C  C257  1  0.20674209  0.29325819  0.47694471  1  -0.05363  0  -0.081112  -0.126696  0  3.94759  0
C  C258  1  0.29325960  0.29325742  0.97694495  1  -0.053696  0  -0.081233  -0.126705  0  3.94769  0
C  C259  1  0.20674212  0.20674095  0.97694437  1  -0.053656  0  -0.081158  -0.126581  0  3.94755  0
C  C260  1  0.70674223  0.70674268  0.02305608  1  -0.053655  0  -0.081144  -0.126575  0  3.947566  0
C  C261  1  0.79325871  0.79325965  0.02305515  1  -0.053659  0  -0.081225  -0.126744  0  3.947727  0
C  C262  1  0.70674180  0.79325884  0.52305556  1  -0.053616  0  -0.08113  -0.126648  0  3.947622  0
C  C263  1  0.79325824  0.70674091  0.52305633  1  -0.053625  0  -0.081086  -0.126467  0  3.947511  0
C  C264  1  0.25000035  0.24999950  0.49498928  1  0.138225  0  0.003666  0.145747  0  4.113092  0
C  C265  1  0.24999989  0.25000072  0.99498797  1  0.138197  0  0.003652  0.145569  0  4.113513  0
C  C266  1  0.74999943  0.75000039  0.00501155  1  0.138252  0  0.003692  0.145616  0  4.113485  0
C  C267  1  0.74999948  0.74999910  0.50501100  1  0.138288  0  0.003657  0.145697  0  4.113213  0
C  C268  1  0.24999942  0.25000005  0.53052833  1  -0.23225  0  -0.041103  -0.105655  0  4.119612  0
C  C269  1  0.25000088  0.24999783  0.03052361  1  -0.232644  0  -0.041433  -0.106205  0  4.12004  0
C  C270  1  0.74999895  0.75000077  0.96947516  1  -0.232543  0  -0.04135  -0.106061  0  4.119952  0
C  C271  1  0.75000091  0.74999955  0.46947245  1  -0.232317  0  -0.041105  -0.105681  0  4.119644  0
C  C272  1  0.24999797  0.25000060  0.56123097  1  -0.239589  0  -0.041329  -0.104057  0  4.119004  0
C  C273  1  0.25000094  0.24999887  0.06122876  1  -0.23931  0  -0.041044  -0.103459  0  4.118797  0
C  C274  1  0.75000039  0.74999922  0.93877001  1  -0.23942  0  -0.041097  -0.103532  0  4.118833  0
C  C275  1  0.75000185  0.74999900  0.43876880  1  -0.239569  0  -0.041296  -0.10397  0  4.119027  0
C  C276  1  0.24999905  0.25000065  0.59675016  1  0.129289  0  0.004745  0.145208  0  4.1142  0
C  C277  1  0.25000252  0.24999742  0.09674770  1  0.129346  0  0.004797  0.145232  0  4.114178  0
C  C278  1  0.74999780  0.75000218  0.90325183  1  0.129288  0  0.004758  0.145101  0  4.114284  0
C  C279  1  0.75000178  0.74999995  0.40325037  1  0.129279  0  0.004679  0.145065  0  4.114367  0
C  C280  1  0.29326334  0.20673693  0.61479499  1  -0.041415  0  -0.081078  -0.125995  0  3.948297  0
C  C281  1  0.20673535  0.29326542  0.61479548  1  -0.041456  0  -0.081079  -0.125989  0  3.948336  0
C  C282  1  0.29326633  0.29326171  0.11479482  1  -0.041377  0  -0.081002  -0.125996  0  3.948324  0
C  C283  1  0.20673779  0.20673418  0.11479474  1  -0.041391  0  -0.081021  -0.126035  0  3.948346  0
C  C284  1  0.70673450  0.70673789  0.88520546  1  -0.041386  0  -0.081039  -0.125999  0  3.948319  0
C  C285  1  0.79326203  0.79326541  0.88520529  1  -0.041381  0  -0.081035  -0.125951  0  3.948242  0
C  C286  1  0.70673799  0.79326518  0.38520529  1  -0.041407  0  -0.081005  -0.125894  0  3.948317  0
C  C287  1  0.79326599  0.70673619  0.38520480  1  -0.041467  0  -0.081049  -0.125989  0  3.948407  0
C  C288  1  0.29312018  0.20688021  0.64968263  1  -0.037606  0  -0.079339  -0.085629  0  3.986875  0
C  C289  1  0.20687915  0.29312174  0.64968286  1  -0.03765  0  -0.079338  -0.085608  0  3.987115  0
C  C290  1  0.29312267  0.29311853  0.14968246  1  -0.037625  0  -0.079368  -0.085459  0  3.98698  0
C  C291  1  0.20688160  0.20687797  0.14968238  1  -0.03761  0  -0.079304  -0.085397  0  3.986892  0
C  C292  1  0.70687816  0.70688157  0.85031757  1  -0.037578  0  -0.079298  -0.08544  0  3.98684  0
C  C293  1  0.79311873  0.79312214  0.85031764  1  -0.037602  0  -0.079346  -0.085532  0  3.986937  0
C  C294  1  0.70688215  0.79312240  0.35031765  1  -0.03759  0  -0.079341  -0.085557  0  3.986788  0
C  C295  1  0.79312319  0.70688037  0.35031767  1  -0.037644  0  -0.079324  -0.08542  0  3.986969  0
C  C296  1  0.24999920  0.24999974  0.66743580  1  0.029107  0  -0.018135  -0.041128  0  3.97445  0
C  C297  1  0.25000217  0.24999802  0.16743535  1  0.029097  0  -0.018124  -0.04131  0  3.974539  0
C  C298  1  0.74999816  0.75000208  0.83256417  1  0.029083  0  -0.018137  -0.041279  0  3.974473  0
C  C299  1  0.75000364  0.75000237  0.33256422  1  0.029132  0  -0.018104  -0.041242  0  3.974366  0
C  C300  1  0.24999727  0.24999779  0.70490946  1  1.533837  0  0.225655  0.602869  0  4.17234  0
C  C301  1  0.25000024  0.25000009  0.20490901  1  1.533831  0  0.225559  0.602664  0  4.172477  0
C  C302  1  0.74999808  0.75000202  0.79509127  1  1.533801  0  0.225635  0.602848  0  4.172328  0
C  C303  1  0.75000356  0.75000181  0.29509056  1  1.533818  0  0.225734  0.602917  0  4.172277  0
O  O304  1  0.24999490  0.24998866  0.29593310  1  -1.246696  0  -0.571767  -1.026066  0  2.537775  0
O  O305  1  0.24998741  0.24999792  0.79593481  1  -1.246568  0  -0.571726  -1.025984  0  2.537525  0
O  O306  1  0.74999633  0.75001324  0.20406572  1  -1.24648  0  -0.571732  -1.026067  0  2.537652  0
O  O307  1  0.75001296  0.74999637  0.70406466  1  -1.246692  0  -0.571732  -1.026036  0  2.537616  0
O  O308  1  0.40281538  0.29048282  0.27555126  1  -1.170315  0  -0.316146  -0.548042  0  2.341509  0
O  O309  1  0.09718389  0.20951706  0.27555031  1  -1.170362  0  -0.316181  -0.548076  0  2.341623  0
O  O310  1  0.20951235  0.40281587  0.77555215  1  -1.170448  0  -0.316213  -0.548169  0  2.341582  0
O  O311  1  0.29048049  0.09718443  0.77555108  1  -1.170231  0  -0.316305  -0.548242  0  2.3415  0
O  O312  1  0.59718391  0.79048678  0.22444835  1  -1.170462  0  -0.316234  -0.548183  0  2.341567  0
O  O313  1  0.90281587  0.70951412  0.22444798  1  -1.170362  0  -0.316218  -0.548058  0  2.341476  0
O  O314  1  0.79048408  0.90281489  0.72444794  1  -1.170368  0  -0.316247  -0.548141  0  2.341461  0
O  O315  1  0.70951630  0.59718443  0.72444904  1  -1.170328  0  -0.316211  -0.548134  0  2.341445  0
O  O316  1  0.59718646  0.70951929  0.72444827  1  -1.170305  0  -0.316228  -0.548125  0  2.341488  0
O  O317  1  0.90281594  0.79048656  0.72444846  1  -1.170379  0  -0.316233  -0.548141  0  2.341524  0
O  O318  1  0.79048497  0.59718423  0.22444939  1  -1.17046  0  -0.316189  -0.548135  0  2.341605  0
O  O319  1  0.70951833  0.90281717  0.22445021  1  -1.170406  0  -0.316312  -0.548302  0  2.341472  0
O  O320  1  0.40281440  0.20951483  0.77555218  1  -1.170338  0  -0.316135  -0.548058  0  2.341527  0
O  O321  1  0.09718295  0.29047944  0.77554828  1  -1.170374  0  -0.316292  -0.548154  0  2.341532  0
O  O322  1  0.20951424  0.09718269  0.27555209  1  -1.170413  0  -0.316235  -0.548072  0  2.34148  0
O  O323  1  0.29048201  0.40281467  0.27555073  1  -1.170342  0  -0.316212  -0.548157  0  2.341449  0
O  O324  1  0.40303205  0.20932671  0.31597747  1  -1.172735  0  -0.316862  -0.549809  0  2.338756  0
O  O325  1  0.09696840  0.29067277  0.31597759  1  -1.1727  0  -0.316862  -0.54981  0  2.338553  0
O  O326  1  0.29066659  0.40303104  0.81597918  1  -1.172678  0  -0.31692  -0.549842  0  2.338697  0
O  O327  1  0.20932189  0.09696687  0.81597551  1  -1.172547  0  -0.316794  -0.549824  0  2.338762  0
O  O328  1  0.59696922  0.70933106  0.18402158  1  -1.172647  0  -0.316937  -0.549945  0  2.338604  0
O  O329  1  0.90303240  0.79067274  0.18402303  1  -1.172683  0  -0.316854  -0.549829  0  2.338728  0
O  O330  1  0.70932280  0.90303192  0.68402392  1  -1.172524  0  -0.316844  -0.549839  0  2.338498  0
O  O331  1  0.79066987  0.59696728  0.68402083  1  -1.172706  0  -0.316919  -0.549916  0  2.338749  0
O  O332  1  0.59696677  0.79067640  0.68402306  1  -1.172496  0  -0.316779  -0.54973  0  2.338761  0
O  O333  1  0.90303243  0.70933085  0.68402144  1  -1.172638  0  -0.316916  -0.549897  0  2.338648  0
O  O334  1  0.70933123  0.59696856  0.18402160  1  -1.172651  0  -0.316924  -0.549886  0  2.338654  0
O  O335  1  0.79067039  0.90303324  0.18402175  1  -1.172686  0  -0.316953  -0.549998  0  2.338669  0
O  O336  1  0.40303111  0.29067105  0.81597920  1  -1.172771  0  -0.31676  -0.549684  0  2.338639  0
O  O337  1  0.09696792  0.20932334  0.81597524  1  -1.172418  0  -0.316845  -0.549866  0  2.338703  0
O  O338  1  0.29067451  0.09696767  0.31597611  1  -1.172709  0  -0.316862  -0.549858  0  2.338673  0
O  O339  1  0.20932694  0.40303231  0.31597743  1  -1.172751  0  -0.316821  -0.549765  0  2.338753  0
O  O340  1  0.29050127  0.20950367  0.37227979  1  -1.190425  0  -0.31715  -0.550051  0  2.338917  0
O  O341  1  0.20950142  0.29050251  0.37227952  1  -1.190451  0  -0.317096  -0.549983  0  2.338835  0
O  O342  1  0.29050084  0.29050124  0.87227977  1  -1.190442  0  -0.317077  -0.549984  0  2.338752  0
O  O343  1  0.20950095  0.20950085  0.87227969  1  -1.190376  0  -0.317163  -0.550055  0  2.338829  0
O  O344  1  0.70950251  0.70949937  0.12771976  1  -1.190353  0  -0.317135  -0.550063  0  2.338809  0
O  O345  1  0.79050240  0.79049925  0.12772008  1  -1.190497  0  -0.317109  -0.550061  0  2.338987  0
O  O346  1  0.70949504  0.79049744  0.62772074  1  -1.190495  0  -0.317125  -0.549969  0  2.338809  0
O  O347  1  0.79049439  0.70949709  0.62771975  1  -1.190382  0  -0.31715  -0.550128  0  2.338877  0
O  O348  1  0.29049597  0.20949763  0.71944534  1  -1.165148  0  -0.316815  -0.549314  0  2.340972  0
O  O349  1  0.20949763  0.29049597  0.71944507  1  -1.165118  0  -0.316757  -0.549242  0  2.341101  0
O  O350  1  0.29049845  0.29049930  0.21944542  1  -1.165165  0  -0.316739  -0.549151  0  2.34111  0
O  O351  1  0.20950058  0.20950142  0.21944459  1  -1.16505  0  -0.316787  -0.549159  0  2.341129  0
O  O352  1  0.70950037  0.70950231  0.78055461  1  -1.165141  0  -0.316778  -0.549246  0  2.341103  0
O  O353  1  0.79049623  0.79050119  0.78055468  1  -1.1651  0  -0.316802  -0.549278  0  2.341049  0
O  O354  1  0.70950737  0.79050247  0.28055494  1  -1.165048  0  -0.316873  -0.549397  0  2.341033  0
O  O355  1  0.79049968  0.70950011  0.28055470  1  -1.165209  0  -0.316846  -0.549264  0  2.341096  0
