# generated using pymatgen
data_SmH7C8SO9
_symmetry_space_group_name_H-M   'P 1'
_cell_length_a   6.38728823
_cell_length_b   8.68822278
_cell_length_c   10.64638673
_cell_angle_alpha   91.06276586
_cell_angle_beta   99.38793824
_cell_angle_gamma   107.40484774
_symmetry_Int_Tables_number   1
_chemical_formula_structural   SmH7C8SO9
_chemical_formula_sum   'Sm2 H14 C16 S2 O18'
_cell_volume   554.78673641
_cell_formula_units_Z   2
loop_
 _symmetry_equiv_pos_site_id
 _symmetry_equiv_pos_as_xyz
  1  'x, y, z'
loop_
 _atom_site_type_symbol
 _atom_site_label
 _atom_site_symmetry_multiplicity
 _atom_site_fract_x
 _atom_site_fract_y
 _atom_site_fract_z
 _atom_site_occupancy
 _atom_site_hle17_bader_spin_density
 _atom_site_hle17_ddec_charge
 _atom_site_hle17_ddec_spin_density
 _atom_site_hle17_ddec_sum_bond_order
 _atom_site_hle17_magmom
 _atom_site_hse06_10hf_bader_spin_density
 _atom_site_hse06_10hf_ddec_charge
 _atom_site_hse06_10hf_ddec_spin_density
 _atom_site_hse06_10hf_ddec_sum_bond_order
 _atom_site_hse06_10hf_magmom
 _atom_site_hse06_bader_spin_density
 _atom_site_hse06_ddec_charge
 _atom_site_hse06_ddec_spin_density
 _atom_site_hse06_ddec_sum_bond_order
 _atom_site_hse06_magmom
 _atom_site_pbe_bader_spin_density
 _atom_site_pbe_cm5_charge
 _atom_site_pbe_ddec_charge
 _atom_site_pbe_ddec_spin_density
 _atom_site_pbe_ddec_sum_bond_order
 _atom_site_pbe_magmom
Sm  Sm0  1  0.14956235  0.23938414  0.61091161  1  0  2.336386  0  1.604446  0  0  2.247901  0  1.950451  0  0  2.287959  0  1.910217  0  0  1.529141  2.158561  0  2.092149  0
Sm  Sm1  1  0.85044026  0.76061732  0.38908886  1  0  2.336395  0  1.604449  0  0  2.247911  0  1.950453  0  0  2.287966  0  1.910219  0  0  1.529134  2.158591  0  2.092125  0
H  H2  1  0.62036456  0.41416174  0.14341049  1  0  0.108462  0  0.939857  0  0  0.116838  0  1.002493  0  0  0.120516  0  1.000547  0  0  0.114765  0.114262  0  1.003702  0
H  H3  1  0.37963334  0.58583609  0.85659040  1  0  0.108435  0  0.939875  0  0  0.116807  0  1.002519  0  0  0.120488  0  1.000574  0  0  0.114757  0.11424  0  1.003717  0
H  H4  1  0.65847933  0.36302934  0.91914432  1  0  0.114384  0  0.948151  0  0  0.125343  0  1.006607  0  0  0.128972  0  1.003828  0  0  0.115018  0.122409  0  1.00912  0
H  H5  1  0.34152010  0.63697212  0.08085678  1  0  0.114382  0  0.948184  0  0  0.125347  0  1.006629  0  0  0.128978  0  1.003846  0  0  0.115018  0.12241  0  1.009148  0
H  H6  1  0.17427161  0.15039805  0.05448525  1  0  0.127333  0  0.946588  0  0  0.13481  0  1.007816  0  0  0.138648  0  1.00543  0  0  0.117118  0.131721  0  1.010219  0
H  H7  1  0.82572992  0.84960461  0.94551420  1  0  0.127303  0  0.946564  0  0  0.134788  0  1.007796  0  0  0.138623  0  1.005416  0  0  0.117127  0.131699  0  1.0102  0
H  H8  1  0.53111744  0.07888832  0.67881094  1  0  0.461425  0  0.813318  0  0  0.433736  0  0.871366  0  0  0.443332  0  0.857212  0  0  0.318853  0.426618  0  0.881729  0
H  H9  1  0.46888408  0.92111435  0.32118851  1  0  0.461426  0  0.813326  0  0  0.433746  0  0.871355  0  0  0.443342  0  0.8572  0  0  0.31885  0.426629  0  0.881716  0
H  H10  1  0.30960682  0.94817159  0.60853454  1  0  0.446887  0  0.850656  0  0  0.415338  0  0.915576  0  0  0.425711  0  0.900394  0  0  0.305394  0.407987  0  0.926076  0
H  H11  1  0.69039369  0.05182866  0.39146571  1  0  0.44688  0  0.850667  0  0  0.415333  0  0.915584  0  0  0.425706  0  0.900401  0  0  0.305395  0.407983  0  0.926082  0
H  H12  1  0.65385897  0.34943021  0.71126202  1  0  0.449105  0  0.846253  0  0  0.421297  0  0.904134  0  0  0.431957  0  0.888614  0  0  0.305302  0.413479  0  0.915393  0
H  H13  1  0.34614205  0.65057125  0.28873830  1  0  0.449093  0  0.846261  0  0  0.421274  0  0.904154  0  0  0.431932  0  0.888636  0  0  0.30529  0.413457  0  0.915411  0
H  H14  1  0.58465880  0.50000372  0.65406611  1  0  0.445625  0  0.847991  0  0  0.417371  0  0.906552  0  0  0.427315  0  0.892038  0  0  0.305207  0.410193  0  0.916845  0
H  H15  1  0.41534012  0.49999653  0.34593304  1  0  0.445619  0  0.848005  0  0  0.417366  0  0.906562  0  0  0.42731  0  0.89205  0  0  0.305197  0.410188  0  0.916856  0
C  C16  1  0.01831179  0.22580611  0.19891706  1  0  -0.132482  0  3.685989  0  0  -0.113392  0  3.934556  0  0  -0.120358  0  3.955656  0  0  -0.005684  -0.109338  0  3.921654  0
C  C17  1  0.98168555  0.77419414  0.80108288  1  0  -0.132473  0  3.685969  0  0  -0.113466  0  3.93462  0  0  -0.120434  0  3.955724  0  0  -0.005715  -0.109398  0  3.921724  0
C  C18  1  0.86610252  0.30534736  0.22580788  1  0  -0.033336  0  3.665705  0  0  -0.02424  0  3.89933  0  0  -0.025666  0  3.917788  0  0  0.010122  -0.023456  0  3.888216  0
C  C19  1  0.13389221  0.69465047  0.77419177  1  0  -0.03338  0  3.665884  0  0  -0.024169  0  3.899458  0  0  -0.025602  0  3.917912  0  0  0.010174  -0.023433  0  3.888403  0
C  C20  1  0.73751971  0.35232719  0.12274693  1  0  -0.047855  0  3.6771  0  0  -0.072061  0  3.933302  0  0  -0.07475  0  3.951926  0  0  -0.066581  -0.070608  0  3.921074  0
C  C21  1  0.26247712  0.64767185  0.87725200  1  0  -0.047843  0  3.677195  0  0  -0.072059  0  3.933372  0  0  -0.074751  0  3.952  0  0  -0.066597  -0.0706  0  3.921148  0
C  C22  1  0.75988171  0.32420600  0.99706699  1  0  -0.03472  0  3.657973  0  0  -0.061159  0  3.902002  0  0  -0.058419  0  3.919475  0  0  -0.062995  -0.062595  0  3.890856  0
C  C23  1  0.24011670  0.67579304  0.00293397  1  0  -0.03468  0  3.657942  0  0  -0.061138  0  3.901959  0  0  -0.058397  0  3.919434  0  0  -0.062963  -0.062573  0  3.89082  0
C  C24  1  0.91958284  0.25235526  0.97247799  1  0  -0.047607  0  3.72643  0  0  -0.019797  0  3.955806  0  0  -0.028554  0  3.978654  0  0  -0.008219  -0.014846  0  3.941481  0
C  C25  1  0.08041557  0.74764377  0.02752109  1  0  -0.047646  0  3.726496  0  0  -0.0198  0  3.955852  0  0  -0.028557  0  3.9787  0  0  -0.008241  -0.014854  0  3.941533  0
C  C26  1  0.04709807  0.20277242  0.07395006  1  0  -0.051411  0  3.693498  0  0  -0.089473  0  3.940892  0  0  -0.087191  0  3.959813  0  0  -0.069892  -0.091173  0  3.929594  0
C  C27  1  0.95290193  0.79722662  0.92605011  1  0  -0.051338  0  3.693486  0  0  -0.08942  0  3.940926  0  0  -0.087138  0  3.959846  0  0  -0.069894  -0.09112  0  3.929625  0
C  C28  1  0.84185150  0.34955585  0.35915732  1  0  0.739876  0  3.828506  0  0  0.687865  0  4.12977  0  0  0.723494  0  4.115667  0  0  0.247149  0.663314  0  4.135312  0
C  C29  1  0.15814799  0.65044198  0.64084373  1  0  0.739963  0  3.828388  0  0  0.687788  0  4.129885  0  0  0.723443  0  4.115742  0  0  0.247078  0.66325  0  4.135425  0
C  C30  1  0.97631702  0.23758481  0.84323294  1  0  0.648604  0  3.92108  0  0  0.596213  0  4.227835  0  0  0.629868  0  4.22009  0  0  0.203651  0.574535  0  4.225718  0
C  C31  1  0.02368400  0.76241665  0.15676737  1  0  0.648663  0  3.921055  0  0  0.596241  0  4.22783  0  0  0.629897  0  4.220087  0  0  0.203659  0.574566  0  4.225716  0
S  S32  1  0.20992006  0.17150623  0.31836580  1  0  1.345104  0  5.557766  0  0  1.244042  0  6.07787  0  0  1.292276  0  6.053679  0  0  0.538043  1.210892  0  6.086105  0
S  S33  1  0.79008204  0.82849403  0.68163178  1  0  1.345151  0  5.557726  0  0  1.244034  0  6.077871  0  0  1.292274  0  6.053674  0  0  0.538017  1.210883  0  6.08611  0
O  O34  1  0.08733734  0.03986923  0.39110122  1  0  -0.827287  0  2.169513  0  0  -0.783094  0  2.459067  0  0  -0.80326  0  2.441591  0  0  -0.4179  -0.756198  0  2.468597  0
O  O35  1  0.91266476  0.96013102  0.60889918  1  0  -0.827266  0  2.169436  0  0  -0.783113  0  2.459089  0  0  -0.803284  0  2.441617  0  0  -0.417907  -0.75619  0  2.468559  0
O  O36  1  0.31004377  0.31630462  0.41055975  1  0  -0.74737  0  2.044257  0  0  -0.69354  0  2.297971  0  0  -0.713775  0  2.281821  0  0  -0.366298  -0.673173  0  2.309184  0
O  O37  1  0.68995935  0.68369805  0.58943797  1  0  -0.747382  0  2.044309  0  0  -0.693532  0  2.298013  0  0  -0.713782  0  2.281884  0  0  -0.3663  -0.673174  0  2.30923  0
O  O38  1  0.36589905  0.12668277  0.25237403  1  0  -0.606435  0  1.97497  0  0  -0.547173  0  2.208744  0  0  -0.570129  0  2.199205  0  0  -0.297625  -0.531916  0  2.215683  0
O  O39  1  0.63409886  0.87331506  0.74762592  1  0  -0.606579  0  1.975104  0  0  -0.547168  0  2.208769  0  0  -0.570122  0  2.199227  0  0  -0.297599  -0.531913  0  2.215708  0
O  O40  1  0.84562987  0.24826297  0.44454905  1  0  -0.738787  0  2.061328  0  0  -0.690695  0  2.307186  0  0  -0.713969  0  2.292674  0  0  -0.37928  -0.667035  0  2.318784  0
O  O41  1  0.15437171  0.75173607  0.55545222  1  0  -0.738824  0  2.061214  0  0  -0.690695  0  2.307173  0  0  -0.713975  0  2.292646  0  0  -0.379272  -0.667041  0  2.318768  0
O  O42  1  0.81919202  0.48635817  0.37920095  1  0  -0.704698  0  2.066196  0  0  -0.665848  0  2.333958  0  0  -0.690112  0  2.321456  0  0  -0.390391  -0.639972  0  2.344538  0
O  O43  1  0.18081376  0.51364329  0.62080077  1  0  -0.704683  0  2.066136  0  0  -0.665776  0  2.333969  0  0  -0.690048  0  2.321454  0  0  -0.39036  -0.639898  0  2.344542  0
O  O44  1  0.15890462  0.20935649  0.83604801  1  0  -0.691214  0  1.961316  0  0  -0.651873  0  2.201271  0  0  -0.675848  0  2.192813  0  0  -0.38804  -0.628315  0  2.207034  0
O  O45  1  0.84109640  0.79064497  0.16395231  1  0  -0.691239  0  1.961268  0  0  -0.651911  0  2.201266  0  0  -0.675883  0  2.192803  0  0  -0.38804  -0.628353  0  2.207031  0
O  O46  1  0.85015353  0.25646233  0.74118231  1  0  -0.718612  0  2.036753  0  0  -0.667978  0  2.274551  0  0  -0.692061  0  2.26338  0  0  -0.34894  -0.645342  0  2.281637  0
O  O47  1  0.14984698  0.74353792  0.25881700  1  0  -0.718661  0  2.0368  0  0  -0.668  0  2.274602  0  0  -0.692077  0  2.263417  0  0  -0.34895  -0.645365  0  2.281688  0
O  O48  1  0.38063985  0.06562449  0.63273615  1  0  -0.922787  0  1.865821  0  0  -0.881356  0  2.059292  0  0  -0.898371  0  2.026742  0  0  -0.655011  -0.861503  0  2.086481  0
O  O49  1  0.61936066  0.93437576  0.36726410  1  0  -0.92279  0  1.865818  0  0  -0.881352  0  2.059265  0  0  -0.898368  0  2.026714  0  0  -0.655005  -0.861502  0  2.08645  0
O  O50  1  0.52998775  0.39857143  0.69598276  1  0  -0.918566  0  1.833894  0  0  -0.87907  0  2.025585  0  0  -0.897577  0  1.993872  0  0  -0.652888  -0.858507  0  2.052039  0
O  O51  1  0.47001276  0.60142882  0.30401749  1  0  -0.918552  0  1.833886  0  0  -0.87904  0  2.025601  0  0  -0.897547  0  1.993889  0  0  -0.652869  -0.858478  0  2.052053  0
