# generated using pymatgen
data_RbH6C6S2NO5
_symmetry_space_group_name_H-M   'P 1'
_cell_length_a   7.02718601
_cell_length_b   11.68536594
_cell_length_c   13.25551467
_cell_angle_alpha   90.00013314
_cell_angle_beta   89.99988104
_cell_angle_gamma   107.36235036
_symmetry_Int_Tables_number   1
_chemical_formula_structural   RbH6C6S2NO5
_chemical_formula_sum   'Rb4 H24 C24 S8 N4 O20'
_cell_volume   1038.88495796
_cell_formula_units_Z   4
loop_
 _symmetry_equiv_pos_site_id
 _symmetry_equiv_pos_as_xyz
  1  'x, y, z'
loop_
 _atom_site_type_symbol
 _atom_site_label
 _atom_site_symmetry_multiplicity
 _atom_site_fract_x
 _atom_site_fract_y
 _atom_site_fract_z
 _atom_site_occupancy
 _atom_site_hle17_bader_spin_density
 _atom_site_hle17_ddec_charge
 _atom_site_hle17_ddec_spin_density
 _atom_site_hle17_ddec_sum_bond_order
 _atom_site_hle17_magmom
 _atom_site_hse06_10hf_bader_spin_density
 _atom_site_hse06_10hf_ddec_charge
 _atom_site_hse06_10hf_ddec_spin_density
 _atom_site_hse06_10hf_ddec_sum_bond_order
 _atom_site_hse06_10hf_magmom
 _atom_site_hse06_bader_spin_density
 _atom_site_hse06_ddec_charge
 _atom_site_hse06_ddec_spin_density
 _atom_site_hse06_ddec_sum_bond_order
 _atom_site_hse06_magmom
 _atom_site_pbe_bader_spin_density
 _atom_site_pbe_cm5_charge
 _atom_site_pbe_ddec_charge
 _atom_site_pbe_ddec_spin_density
 _atom_site_pbe_ddec_sum_bond_order
 _atom_site_pbe_magmom
Rb  Rb0  1  0.17688280  0.48961299  0.63894806  1  0  0.948217  0  0.51296  0  0  0.904311  0  0.72675  0  0  0.917245  0  0.703393  0  0  0.832514  0.894558  0  0.743429  0
Rb  Rb1  1  0.67688244  0.48961282  0.86105232  1  0  0.948213  0  0.512969  0  0  0.904315  0  0.726751  0  0  0.917247  0  0.703394  0  0  0.832511  0.894564  0  0.743431  0
Rb  Rb2  1  0.82311810  0.51038697  0.36105206  1  0  0.948217  0  0.512967  0  0  0.904307  0  0.72676  0  0  0.91724  0  0.703405  0  0  0.832512  0.894555  0  0.743441  0
Rb  Rb3  1  0.32311561  0.51038714  0.13894780  1  0  0.948212  0  0.512971  0  0  0.904314  0  0.726752  0  0  0.917245  0  0.703395  0  0  0.83251  0.894566  0  0.743432  0
H  H4  1  0.20639197  0.27110197  0.80783753  1  0  0.413488  0  0.887197  0  0  0.386994  0  0.944382  0  0  0.396191  0  0.930773  0  0  0.291866  0.380515  0  0.953961  0
H  H5  1  0.70639110  0.27110233  0.69216313  1  0  0.413545  0  0.88712  0  0  0.387032  0  0.944329  0  0  0.396231  0  0.930717  0  0  0.291893  0.380554  0  0.953906  0
H  H6  1  0.79360893  0.72889800  0.19216259  1  0  0.413489  0  0.887189  0  0  0.387009  0  0.944353  0  0  0.396208  0  0.930741  0  0  0.291882  0.380532  0  0.95393  0
H  H7  1  0.29360695  0.72889763  0.30783699  1  0  0.413505  0  0.887168  0  0  0.387018  0  0.944341  0  0  0.396214  0  0.930734  0  0  0.291892  0.380541  0  0.953919  0
H  H8  1  0.35611759  0.27136058  0.71910833  1  0  0.41128  0  0.89325  0  0  0.383824  0  0.952882  0  0  0.393037  0  0.939255  0  0  0.289192  0.377335  0  0.962473  0
H  H9  1  0.85611692  0.27136202  0.78089215  1  0  0.411235  0  0.893321  0  0  0.383779  0  0.952955  0  0  0.392991  0  0.939327  0  0  0.289187  0.377289  0  0.962545  0
H  H10  1  0.64388144  0.72863849  0.28089178  1  0  0.411251  0  0.893294  0  0  0.383797  0  0.952924  0  0  0.39301  0  0.939296  0  0  0.289189  0.377309  0  0.962512  0
H  H11  1  0.14388300  0.72863884  0.21910796  1  0  0.411222  0  0.893334  0  0  0.383775  0  0.952955  0  0  0.392987  0  0.939328  0  0  0.289173  0.377285  0  0.962546  0
H  H12  1  0.30947105  0.95318116  0.48870307  1  0  0.112005  0  0.963846  0  0  0.120077  0  1.027361  0  0  0.123619  0  1.02527  0  0  0.107444  0.117508  0  1.02894  0
H  H13  1  0.80947159  0.95318293  0.01129620  1  0  0.112008  0  0.963841  0  0  0.120098  0  1.027332  0  0  0.123611  0  1.025278  0  0  0.10743  0.11753  0  1.028912  0
H  H14  1  0.69052985  0.04681880  0.51129705  1  0  0.112012  0  0.963842  0  0  0.120083  0  1.027352  0  0  0.123625  0  1.025264  0  0  0.107446  0.117513  0  1.028932  0
H  H15  1  0.19052779  0.04681972  0.98870391  1  0  0.112017  0  0.963771  0  0  0.120078  0  1.027294  0  0  0.123626  0  1.025203  0  0  0.107447  0.117509  0  1.028872  0
H  H16  1  0.03899423  0.84432059  0.37337903  1  0  0.09824  0  0.942168  0  0  0.107974  0  1.002952  0  0  0.112073  0  0.999874  0  0  0.111326  0.10492  0  1.005419  0
H  H17  1  0.53899640  0.84432081  0.12661881  1  0  0.098137  0  0.942157  0  0  0.107875  0  1.002952  0  0  0.111982  0  0.999865  0  0  0.111293  0.104822  0  1.005421  0
H  H18  1  0.96100623  0.15567848  0.62662109  1  0  0.098175  0  0.942153  0  0  0.107904  0  1.002953  0  0  0.112009  0  0.999868  0  0  0.111312  0.10485  0  1.005418  0
H  H19  1  0.46100833  0.15567826  0.87338055  1  0  0.098144  0  0.942143  0  0  0.107908  0  1.002919  0  0  0.112013  0  0.999833  0  0  0.111302  0.104853  0  1.005385  0
H  H20  1  0.85554800  0.95420617  0.26991609  1  0  0.093033  0  0.96979  0  0  0.102608  0  1.033215  0  0  0.105135  0  1.032696  0  0  0.102554  0.100708  0  1.033795  0
H  H21  1  0.35555051  0.95420564  0.23008313  1  0  0.093071  0  0.969804  0  0  0.102613  0  1.033258  0  0  0.105141  0  1.032737  0  0  0.102554  0.10072  0  1.03383  0
H  H22  1  0.14445246  0.04579290  0.73008403  1  0  0.09302  0  0.969787  0  0  0.102595  0  1.033219  0  0  0.105119  0  1.032702  0  0  0.102552  0.100697  0  1.033789  0
H  H23  1  0.64445466  0.04579433  0.76991699  1  0  0.093059  0  0.969791  0  0  0.102597  0  1.033255  0  0  0.105123  0  1.032732  0  0  0.102551  0.100695  0  1.03383  0
H  H24  1  0.94159329  0.17738058  0.28012986  1  0  0.115815  0  0.936579  0  0  0.12485  0  0.996113  0  0  0.128098  0  0.994726  0  0  0.11635  0.122494  0  0.997212  0
H  H25  1  0.44159014  0.17738003  0.21987069  1  0  0.115817  0  0.936577  0  0  0.12484  0  0.996123  0  0  0.128092  0  0.994736  0  0  0.116347  0.122483  0  0.997221  0
H  H26  1  0.05840672  0.82261759  0.71987101  1  0  0.115803  0  0.936514  0  0  0.124811  0  0.996078  0  0  0.128059  0  0.99469  0  0  0.116315  0.122453  0  0.99718  0
H  H27  1  0.55841032  0.82261904  0.78012943  1  0  0.115823  0  0.936513  0  0  0.124849  0  0.996059  0  0  0.128103  0  0.994675  0  0  0.116336  0.122491  0  0.99716  0
C  C28  1  0.17510959  0.18847966  0.38943198  1  0  -0.124639  0  3.762249  0  0  -0.10478  0  4.000618  0  0  -0.109319  0  4.022091  0  0  -0.008526  -0.101828  0  3.986375  0
C  C29  1  0.67510567  0.18847895  0.11056512  1  0  -0.124624  0  3.762301  0  0  -0.104734  0  4.000638  0  0  -0.109304  0  4.022152  0  0  -0.008518  -0.101783  0  3.986396  0
C  C30  1  0.82489087  0.81151941  0.61056739  1  0  -0.124572  0  3.762244  0  0  -0.104714  0  4.000629  0  0  -0.109239  0  4.02208  0  0  -0.008495  -0.10176  0  3.986384  0
C  C31  1  0.32489479  0.81152012  0.88943273  1  0  -0.124618  0  3.762217  0  0  -0.104786  0  4.00063  0  0  -0.109299  0  4.022067  0  0  -0.008519  -0.101827  0  3.986379  0
C  C32  1  0.27858770  0.12695579  0.44708258  1  0  -0.135163  0  3.786092  0  0  -0.116739  0  4.029935  0  0  -0.122571  0  4.053711  0  0  -0.013815  -0.112921  0  4.01409  0
C  C33  1  0.77858438  0.12695585  0.05291579  1  0  -0.135209  0  3.786166  0  0  -0.116793  0  4.030011  0  0  -0.122611  0  4.053774  0  0  -0.013857  -0.112976  0  4.014167  0
C  C34  1  0.72141320  0.87304418  0.55291678  1  0  -0.135225  0  3.786102  0  0  -0.116834  0  4.030001  0  0  -0.122664  0  4.053765  0  0  -0.013859  -0.113019  0  4.014158  0
C  C35  1  0.22141323  0.87304322  0.94708357  1  0  -0.135289  0  3.786139  0  0  -0.116864  0  4.03  0  0  -0.122694  0  4.053756  0  0  -0.013868  -0.113052  0  4.01416  0
C  C36  1  0.23297953  0.00274195  0.44244290  1  0  -0.045073  0  3.706775  0  0  -0.070483  0  3.958066  0  0  -0.070871  0  3.978176  0  0  -0.075289  -0.070151  0  3.94455  0
C  C37  1  0.73297949  0.00274292  0.05755753  1  0  -0.045104  0  3.70678  0  0  -0.070512  0  3.95804  0  0  -0.070887  0  3.978177  0  0  -0.075277  -0.07018  0  3.944526  0
C  C38  1  0.76702279  0.99725802  0.55755647  1  0  -0.045064  0  3.706703  0  0  -0.070453  0  3.957992  0  0  -0.070839  0  3.978094  0  0  -0.075258  -0.070123  0  3.944482  0
C  C39  1  0.26702425  0.99725705  0.94244485  1  0  -0.045016  0  3.706586  0  0  -0.070403  0  3.957895  0  0  -0.070797  0  3.977989  0  0  -0.075256  -0.070072  0  3.944386  0
C  C40  1  0.07907188  0.94180450  0.37766336  1  0  -0.047705  0  3.699514  0  0  -0.063705  0  3.956581  0  0  -0.065053  0  3.975144  0  0  -0.075694  -0.062782  0  3.944144  0
C  C41  1  0.57906926  0.94180650  0.12233539  1  0  -0.047597  0  3.69942  0  0  -0.063598  0  3.956468  0  0  -0.064949  0  3.975019  0  0  -0.075659  -0.062674  0  3.944029  0
C  C42  1  0.92093044  0.05819547  0.62233676  1  0  -0.047631  0  3.69936  0  0  -0.063633  0  3.956436  0  0  -0.064983  0  3.974997  0  0  -0.075706  -0.062709  0  3.943993  0
C  C43  1  0.42093351  0.05819436  0.87766548  1  0  -0.047637  0  3.69935  0  0  -0.063676  0  3.956408  0  0  -0.065026  0  3.974971  0  0  -0.075684  -0.062749  0  3.943959  0
C  C44  1  0.97588809  0.00366956  0.31915644  1  0  -0.041456  0  3.695683  0  0  -0.060093  0  3.950752  0  0  -0.060561  0  3.969732  0  0  -0.075586  -0.059713  0  3.937972  0
C  C45  1  0.47588308  0.00367072  0.18084146  1  0  -0.041471  0  3.695624  0  0  -0.06007  0  3.950697  0  0  -0.06054  0  3.96968  0  0  -0.075582  -0.059694  0  3.937908  0
C  C46  1  0.02411236  0.99632950  0.68084368  1  0  -0.041417  0  3.695574  0  0  -0.060051  0  3.950636  0  0  -0.060519  0  3.96962  0  0  -0.075561  -0.059667  0  3.937852  0
C  C47  1  0.52411826  0.99633014  0.81915866  1  0  -0.041509  0  3.695667  0  0  -0.060096  0  3.950749  0  0  -0.060565  0  3.969733  0  0  -0.075599  -0.059711  0  3.937961  0
C  C48  1  0.02257107  0.12851887  0.32431797  1  0  -0.032436  0  3.676817  0  0  -0.054499  0  3.921216  0  0  -0.054024  0  3.938682  0  0  -0.065996  -0.054821  0  3.90954  0
C  C49  1  0.52257069  0.12852009  0.17568069  1  0  -0.032419  0  3.676782  0  0  -0.054476  0  3.921146  0  0  -0.053998  0  3.938624  0  0  -0.065959  -0.054794  0  3.909465  0
C  C50  1  0.97742841  0.87148110  0.67568140  1  0  -0.032452  0  3.676772  0  0  -0.054484  0  3.921176  0  0  -0.054014  0  3.938638  0  0  -0.065966  -0.054807  0  3.9095  0
C  C51  1  0.47743153  0.87148256  0.82431943  1  0  -0.032398  0  3.676754  0  0  -0.054447  0  3.92114  0  0  -0.053991  0  3.938609  0  0  -0.065945  -0.054768  0  3.909456  0
S  S52  1  0.27716110  0.34638119  0.40535451  1  0  1.253317  0  5.515807  0  0  1.173171  0  6.023828  0  0  1.217771  0  6.005637  0  0  0.538304  1.142359  0  6.035545  0
S  S53  1  0.77715811  0.34638224  0.09464582  1  0  1.253363  0  5.515738  0  0  1.173192  0  6.02376  0  0  1.217801  0  6.00558  0  0  0.538335  1.14238  0  6.035476  0
S  S54  1  0.72283980  0.65361878  0.59464485  1  0  1.253255  0  5.51573  0  0  1.173119  0  6.023752  0  0  1.217715  0  6.005559  0  0  0.538275  1.142308  0  6.035467  0
S  S55  1  0.22283941  0.65361952  0.90535430  1  0  1.253261  0  5.515737  0  0  1.173122  0  6.023764  0  0  1.217712  0  6.005577  0  0  0.538267  1.14231  0  6.035475  0
S  S56  1  0.47573811  0.22882266  0.51579813  1  0  1.230344  0  5.484715  0  0  1.144664  0  5.992764  0  0  1.189229  0  5.975668  0  0  0.556757  1.113959  0  6.003634  0
S  S57  1  0.97573543  0.22882454  0.98420139  1  0  1.230384  0  5.48486  0  0  1.144682  0  5.992913  0  0  1.189249  0  5.975818  0  0  0.556776  1.113976  0  6.003781  0
S  S58  1  0.52426422  0.77117730  0.48420199  1  0  1.230288  0  5.484753  0  0  1.144629  0  5.992803  0  0  1.189192  0  5.97571  0  0  0.556735  1.113925  0  6.003673  0
S  S59  1  0.02426306  0.77117631  0.01579797  1  0  1.230463  0  5.484723  0  0  1.144827  0  5.992734  0  0  1.189393  0  5.975633  0  0  0.556788  1.114123  0  6.003606  0
N  N60  1  0.41143695  0.34835570  0.50389984  1  0  -0.787884  0  2.874794  0  0  -0.749886  0  3.197225  0  0  -0.771245  0  3.190787  0  0  -0.465925  -0.735019  0  3.201078  0
N  N61  1  0.91143522  0.34835671  0.99609924  1  0  -0.787895  0  2.874864  0  0  -0.749889  0  3.197318  0  0  -0.771236  0  3.190851  0  0  -0.465942  -0.73502  0  3.201171  0
N  N62  1  0.58856253  0.65164427  0.49609952  1  0  -0.787876  0  2.874812  0  0  -0.749891  0  3.197251  0  0  -0.77125  0  3.190815  0  0  -0.465945  -0.735025  0  3.201106  0
N  N63  1  0.08856185  0.65164415  0.00389937  1  0  -0.787905  0  2.874836  0  0  -0.749915  0  3.197272  0  0  -0.771265  0  3.190818  0  0  -0.465942  -0.735048  0  3.201129  0
O  O64  1  0.32056122  0.32238013  0.77025240  1  0  -0.884678  0  1.771586  0  0  -0.842818  0  1.927351  0  0  -0.859229  0  1.898947  0  0  -0.693224  -0.831099  0  1.947195  0
O  O65  1  0.82056124  0.32237967  0.72974748  1  0  -0.884692  0  1.771585  0  0  -0.842815  0  1.927381  0  0  -0.859229  0  1.898973  0  0  -0.693242  -0.831098  0  1.947224  0
O  O66  1  0.67943825  0.67761984  0.22974696  1  0  -0.884652  0  1.771612  0  0  -0.842793  0  1.927351  0  0  -0.859205  0  1.898944  0  0  -0.693225  -0.831075  0  1.947196  0
O  O67  1  0.17943824  0.67762029  0.27025264  1  0  -0.884647  0  1.771636  0  0  -0.842785  0  1.927366  0  0  -0.859192  0  1.898964  0  0  -0.693227  -0.831064  0  1.947213  0
O  O68  1  0.12506658  0.40345985  0.42890561  1  0  -0.650957  0  1.966165  0  0  -0.609152  0  2.216705  0  0  -0.629161  0  2.20372  0  0  -0.411332  -0.595057  0  2.225198  0
O  O69  1  0.62506322  0.40345995  0.07109576  1  0  -0.650987  0  1.96611  0  0  -0.609183  0  2.216657  0  0  -0.629194  0  2.203671  0  0  -0.411342  -0.595089  0  2.22515  0
O  O70  1  0.87493245  0.59653921  0.57109451  1  0  -0.650952  0  1.96621  0  0  -0.609142  0  2.216745  0  0  -0.629153  0  2.203761  0  0  -0.411309  -0.595046  0  2.225234  0
O  O71  1  0.37493154  0.59653911  0.92890511  1  0  -0.650953  0  1.966206  0  0  -0.609146  0  2.216738  0  0  -0.629158  0  2.203758  0  0  -0.411298  -0.595048  0  2.225226  0
O  O72  1  0.39487826  0.39119574  0.31493552  1  0  -0.681463  0  1.963423  0  0  -0.637284  0  2.216675  0  0  -0.658388  0  2.204334  0  0  -0.432056  -0.622308  0  2.224686  0
O  O73  1  0.89487742  0.39119609  0.18506401  1  0  -0.681452  0  1.963446  0  0  -0.637266  0  2.216692  0  0  -0.658371  0  2.204351  0  0  -0.432041  -0.622288  0  2.224703  0
O  O74  1  0.60512121  0.60880422  0.68506460  1  0  -0.681424  0  1.963299  0  0  -0.637243  0  2.216547  0  0  -0.658348  0  2.204209  0  0  -0.432029  -0.622267  0  2.224558  0
O  O75  1  0.10512152  0.60880567  0.81493460  1  0  -0.681404  0  1.96333  0  0  -0.637222  0  2.216575  0  0  -0.658328  0  2.204238  0  0  -0.432024  -0.622242  0  2.224581  0
O  O76  1  0.46684037  0.19520502  0.62311041  1  0  -0.635375  0  1.977971  0  0  -0.571407  0  2.208294  0  0  -0.593822  0  2.196336  0  0  -0.307351  -0.555603  0  2.216075  0
O  O77  1  0.96683996  0.19520488  0.87688904  1  0  -0.635327  0  1.977967  0  0  -0.57138  0  2.208311  0  0  -0.593797  0  2.196353  0  0  -0.307356  -0.555586  0  2.216121  0
O  O78  1  0.53315866  0.80479405  0.37688895  1  0  -0.63536  0  1.97799  0  0  -0.57141  0  2.20832  0  0  -0.593826  0  2.196363  0  0  -0.307362  -0.555609  0  2.216108  0
O  O79  1  0.03316050  0.80479419  0.12311032  1  0  -0.63536  0  1.977979  0  0  -0.571471  0  2.208347  0  0  -0.593892  0  2.196393  0  0  -0.307356  -0.555668  0  2.216141  0
O  O80  1  0.66336508  0.23327433  0.46687424  1  0  -0.608909  0  1.902111  0  0  -0.567628  0  2.138036  0  0  -0.588156  0  2.127462  0  0  -0.32152  -0.553063  0  2.144742  0
O  O81  1  0.16336236  0.23327607  0.03312674  1  0  -0.608988  0  1.902149  0  0  -0.567688  0  2.138061  0  0  -0.588216  0  2.127486  0  0  -0.321553  -0.553119  0  2.144768  0
O  O82  1  0.33663582  0.76672563  0.53312588  1  0  -0.608883  0  1.902098  0  0  -0.567605  0  2.138014  0  0  -0.588132  0  2.127441  0  0  -0.3215  -0.553037  0  2.144719  0
O  O83  1  0.83663658  0.76672569  0.96687338  1  0  -0.60898  0  1.902114  0  0  -0.567703  0  2.138026  0  0  -0.588227  0  2.127444  0  0  -0.321541  -0.553132  0  2.144732  0
