# generated using pymatgen
data_Al2H8C25I(NO7)2
_symmetry_space_group_name_H-M   'P 1'
_cell_length_a   6.71464265
_cell_length_b   20.70996347
_cell_length_c   23.72697559
_cell_angle_alpha   90.27402361
_cell_angle_beta   92.61296826
_cell_angle_gamma   91.71279219
_symmetry_Int_Tables_number   1
_chemical_formula_structural   Al2H8C25I(NO7)2
_chemical_formula_sum   'Al4 H16 C50 I2 N4 O28'
_cell_volume   3294.50775662
_cell_formula_units_Z   2
loop_
 _symmetry_equiv_pos_site_id
 _symmetry_equiv_pos_as_xyz
  1  'x, y, z'
loop_
 _atom_site_type_symbol
 _atom_site_label
 _atom_site_symmetry_multiplicity
 _atom_site_fract_x
 _atom_site_fract_y
 _atom_site_fract_z
 _atom_site_occupancy
 _atom_site_pbe_bader_charge
 _atom_site_pbe_bader_spin_density
 _atom_site_pbe_cm5_charge
 _atom_site_pbe_ddec_charge
 _atom_site_pbe_ddec_spin_density
 _atom_site_pbe_ddec_sum_bond_order
 _atom_site_pbe_magmom
Al  Al0  1  0.80010277  0.25162369  0.25335631  1  2.504157  0  0.406682  1.649261  0  2.574108  0
Al  Al1  1  0.19989730  0.74837583  0.74664286  1  2.504182  0  0.406622  1.649076  0  2.574446  0
Al  Al2  1  0.29994389  0.25174675  0.25233399  1  2.498231  0  0.407285  1.647647  0  2.574095  0
Al  Al3  1  0.70005779  0.74825277  0.74766730  1  2.498257  0  0.407285  1.647781  0  2.574015  0
H  H4  1  0.19898232  0.41293012  0.54116645  1  0.10183  0  0.106323  0.112635  0  0.977909  0
H  H5  1  0.80098529  0.58707459  0.45883290  1  0.101546  0  0.106232  0.112553  0  0.977813  0
H  H6  1  0.81015574  0.44558314  0.57298321  1  0.071617  0  0.106608  0.112421  0  0.976278  0
H  H7  1  0.18981490  0.55442159  0.42701700  1  0.071732  0  0.106568  0.112489  0  0.97631  0
H  H8  1  0.27690085  0.57570405  0.97631505  1  0.168198  0  0.127972  0.146301  0  0.989138  0
H  H9  1  0.72313919  0.42429415  0.02368108  1  0.168579  0  0.128027  0.146294  0  0.989261  0
H  H10  1  0.19938603  0.05101632  0.45650699  1  0.087884  0  0.111971  0.114715  0  0.992859  0
H  H11  1  0.80065597  0.94897996  0.54349926  1  0.087406  0  0.111974  0.114692  0  0.992702  0
H  H12  1  0.16371304  0.97013951  0.53357054  1  0.080294  0  0.109082  0.110127  0  1.001649  0
H  H13  1  0.83632445  0.02985772  0.46643399  1  0.079189  0  0.109044  0.110155  0  1.001678  0
H  H14  1  0.22510050  0.07201452  0.02220679  1  0.159455  0  0.127293  0.143239  0  0.993084  0
H  H15  1  0.77486955  0.92798827  0.97778498  1  0.160095  0  0.127238  0.143128  0  0.992898  0
H  H16  1  0.55728766  0.33655612  0.24821971  1  0.607583  0  0.362488  0.444964  0  0.830727  0
H  H17  1  0.44270190  0.66344336  0.75177811  1  0.607677  0  0.362418  0.444794  0  0.830943  0
H  H18  1  0.04049136  0.16769444  0.24196279  1  0.628914  0  0.361879  0.444335  0  0.832638  0
H  H19  1  0.95949842  0.83230553  0.75803841  1  0.628906  0  0.36189  0.444292  0  0.83275  0
C  C20  1  0.55468364  0.17468121  0.32850938  1  1.662978  0  0.276148  0.717646  0  4.163245  0
C  C21  1  0.44532490  0.82530964  0.67149067  1  1.663805  0  0.276102  0.717618  0  4.163347  0
C  C22  1  0.53111054  0.17371878  0.17627156  1  1.70165  0  0.280887  0.714177  0  4.157628  0
C  C23  1  0.46889079  0.82627350  0.82373138  1  1.702456  0  0.280908  0.714191  0  4.157358  0
C  C24  1  0.04289647  0.32864119  0.17624105  1  1.694124  0  0.280947  0.714333  0  4.155645  0
C  C25  1  0.95710709  0.67136269  0.82376239  1  1.694347  0  0.280973  0.71438  0  4.155553  0
C  C26  1  0.07138899  0.32895510  0.32907528  1  1.688956  0  0.277844  0.721014  0  4.15518  0
C  C27  1  0.92862026  0.67104590  0.67092650  1  1.689076  0  0.277803  0.720962  0  4.155251  0
C  C28  1  0.89549034  0.46918096  0.54041027  1  -0.005426  0  -0.072126  -0.094823  0  3.633346  0
C  C29  1  0.10447881  0.53082376  0.45958993  1  -0.005082  0  -0.072044  -0.095067  0  3.63338  0
C  C30  1  0.10965641  0.45161036  0.52326105  1  -0.019857  0  -0.072462  -0.095101  0  3.632376  0
C  C31  1  0.89031270  0.54839533  0.47673746  1  -0.019536  0  -0.072215  -0.094736  0  3.631909  0
C  C32  1  0.07925404  0.37350809  0.37595230  1  0.262918  0  -0.03968  -0.18874  0  3.929955  0
C  C33  1  0.92074179  0.62649721  0.62404476  1  0.262067  0  -0.039614  -0.188646  0  3.93061  0
C  C34  1  0.82766278  0.47511771  0.47684786  1  -0.15886  0  -0.038401  0.028731  0  3.573807  0
C  C35  1  0.17229724  0.52488553  0.52315057  1  -0.159001  0  -0.038396  0.028781  0  3.573954  0
C  C36  1  0.04325886  0.45643891  0.45861335  1  0.135515  0  0.000182  0.103007  0  3.812386  0
C  C37  1  0.95672141  0.54355909  0.54137975  1  0.134533  0  0.000118  0.102893  0  3.811991  0
C  C38  1  0.07560224  0.41189245  0.41498000  1  -0.553342  0  -0.033266  -0.023523  0  4.085711  0
C  C39  1  0.92437359  0.58811809  0.58502661  1  -0.551708  0  -0.033278  -0.023489  0  4.085525  0
C  C40  1  0.18009950  0.49945216  0.03028020  1  0.168235  0  0.096761  0.045483  0  3.86057  0
C  C41  1  0.81992921  0.50055035  0.96972175  1  0.168086  0  0.096848  0.045505  0  3.860971  0
C  C42  1  0.02745127  0.45501688  0.04536660  1  0.118543  0  0.028707  0.119468  0  4.044101  0
C  C43  1  0.97257430  0.54498514  0.95463280  1  0.119011  0  0.028806  0.119455  0  4.044164  0
C  C44  1  0.84590717  0.45692250  0.01336433  1  0.102098  0  -0.052397  -0.134771  0  3.879552  0
C  C45  1  0.15412288  0.54308050  0.98663426  1  0.101462  0  -0.052327  -0.134819  0  3.878998  0
C  C46  1  0.04271765  0.41111304  0.09055352  1  -0.442436  0  -0.018814  -0.027592  0  4.082547  0
C  C47  1  0.95731096  0.58889044  0.90944548  1  -0.442385  0  -0.018766  -0.027407  0  4.082881  0
C  C48  1  0.96114064  0.62729213  0.87083218  1  0.280516  0  -0.010565  -0.137428  0  3.874545  0
C  C49  1  0.03886609  0.37271176  0.12917465  1  0.281028  0  -0.010397  -0.137175  0  3.874128  0
C  C50  1  0.31009808  0.98353069  0.51855962  1  -0.016237  0  -0.074553  -0.113184  0  3.951706  0
C  C51  1  0.68993321  0.01646507  0.48144233  1  -0.014692  0  -0.074589  -0.113387  0  3.951699  0
C  C52  1  0.47999172  0.95450496  0.54338871  1  0.063489  0  0.008437  0.135367  0  4.100189  0
C  C53  1  0.52004542  0.04548889  0.45661328  1  0.062661  0  0.008552  0.135464  0  4.100402  0
C  C54  1  0.67031176  0.97165014  0.52415732  1  -0.006269  0  -0.073348  -0.116067  0  3.948873  0
C  C55  1  0.32972710  0.02834468  0.47584763  1  -0.006322  0  -0.073474  -0.116312  0  3.94944  0
C  C56  1  0.46124348  0.90902500  0.58722288  1  -0.290393  0  -0.020428  -0.035665  0  4.087979  0
C  C57  1  0.53878320  0.09096881  0.41277860  1  -0.290883  0  -0.020475  -0.035473  0  4.088372  0
C  C58  1  0.55117222  0.12989880  0.37469167  1  0.035098  0  -0.033437  -0.184454  0  3.946969  0
C  C59  1  0.44884216  0.87008966  0.62530884  1  0.03406  0  -0.033543  -0.18435  0  3.946743  0
C  C60  1  0.32204027  0.99666338  0.96856904  1  0.177377  0  0.097467  0.046276  0  3.858782  0
C  C61  1  0.67792553  0.00333843  0.03142774  1  0.176878  0  0.097715  0.046464  0  3.858544  0
C  C62  1  0.47408385  0.95438293  0.95434393  1  0.149436  0  0.028643  0.118298  0  4.045648  0
C  C63  1  0.52586976  0.04561643  0.04565064  1  0.149498  0  0.028648  0.118484  0  4.045476  0
C  C64  1  0.65320246  0.95907083  0.98751618  1  0.080903  0  -0.052439  -0.131972  0  3.880386  0
C  C65  1  0.34675133  0.04093383  0.01247588  1  0.081564  0  -0.052501  -0.132199  0  3.880642  0
C  C66  1  0.46223988  0.90995205  0.90894915  1  0.079887  0  -0.017688  -0.027108  0  4.082342  0
C  C67  1  0.53773163  0.09004833  0.09104473  1  0.080841  0  -0.017837  -0.027536  0  4.082363  0
C  C68  1  0.52670429  0.12876035  0.12943899  1  -0.266245  0  -0.010415  -0.137317  0  3.873937  0
C  C69  1  0.47328538  0.87123141  0.87056891  1  -0.266637  0  -0.010556  -0.137591  0  3.874091  0
I  I70  1  0.43269032  0.56731468  0.56294530  1  0.105693  0  0.075061  -0.042873  0  1.508749  0
I  I71  1  0.56728023  0.43268329  0.43706036  1  0.106069  0  0.075058  -0.042864  0  1.50896  0
N  N72  1  0.37789717  0.50012667  0.06013968  1  0.382414  0  0.059418  0.5109  0  4.207087  0
N  N73  1  0.62213439  0.49987634  0.93985935  1  0.382166  0  0.059266  0.510686  0  4.206867  0
N  N74  1  0.12607309  0.99425231  0.93773330  1  0.395377  0  0.059629  0.510858  0  4.209597  0
N  N75  1  0.87389249  0.00574757  0.06226179  1  0.395049  0  0.05965  0.510891  0  4.209807  0
O  O76  1  0.36418093  0.19171054  0.19300333  1  -1.227817  0  -0.2238  -0.577462  0  2.272906  0
O  O77  1  0.63581427  0.80828075  0.80699745  1  -1.228256  0  -0.223837  -0.577537  0  2.272851  0
O  O78  1  0.72469795  0.19272755  0.31159799  1  -1.228826  0  -0.227539  -0.581529  0  2.278701  0
O  O79  1  0.27530350  0.80726810  0.68840329  1  -1.22888  0  -0.227559  -0.581635  0  2.278815  0
O  O80  1  0.89725141  0.31208614  0.30984546  1  -1.238802  0  -0.225537  -0.584157  0  2.294905  0
O  O81  1  0.10275169  0.68791531  0.69015248  1  -1.238981  0  -0.225476  -0.584057  0  2.295037  0
O  O82  1  0.70438081  0.19003631  0.19639508  1  -1.230156  0  -0.222469  -0.577877  0  2.285047  0
O  O83  1  0.29562331  0.80995694  0.80360326  1  -1.230026  0  -0.222439  -0.577804  0  2.285201  0
O  O84  1  0.87436471  0.31122516  0.19442100  1  -1.223121  0  -0.224643  -0.579541  0  2.280841  0
O  O85  1  0.12563728  0.68877871  0.80558116  1  -1.223232  0  -0.224633  -0.579483  0  2.280914  0
O  O86  1  0.38463685  0.19117325  0.30837844  1  -1.230737  0  -0.228158  -0.584588  0  2.292693  0
O  O87  1  0.61538059  0.80881811  0.69162042  1  -1.230909  0  -0.227972  -0.58443  0  2.292733  0
O  O88  1  0.55345307  0.29000798  0.25212310  1  -1.406006  0  -0.445798  -1.000121  0  2.192623  0
O  O89  1  0.44654880  0.70999154  0.74788157  1  -1.406107  0  -0.445795  -0.999977  0  2.192794  0
O  O90  1  0.21481879  0.31257821  0.19507474  1  -1.226035  0  -0.225023  -0.57806  0  2.273819  0
O  O91  1  0.78518277  0.68742180  0.80492403  1  -1.226098  0  -0.225028  -0.578082  0  2.273823  0
O  O92  1  0.23657171  0.31130604  0.31074168  1  -1.234105  0  -0.227848  -0.58301  0  2.285406  0
O  O93  1  0.76344630  0.68869160  0.68926058  1  -1.234096  0  -0.227816  -0.583025  0  2.285522  0
O  O94  1  0.04648618  0.21320098  0.25178749  1  -1.427783  0  -0.445803  -0.998659  0  2.18909  0
O  O95  1  0.95351408  0.78679853  0.74821505  1  -1.427836  0  -0.445783  -0.9986  0  2.18922  0
O  O96  1  0.42847817  0.45034346  0.08483315  1  -0.427095  0  -0.105226  -0.302412  0  1.926986  0
O  O97  1  0.48262011  0.55040630  0.05743758  1  -0.45108  0  -0.135821  -0.336159  0  1.884491  0
O  O98  1  0.57153943  0.54966481  0.91517674  1  -0.426842  0  -0.105213  -0.302393  0  1.927008  0
O  O99  1  0.51742984  0.44959145  0.94254978  1  -0.450884  0  -0.135729  -0.335995  0  1.884276  0
O  O100  1  0.07435228  0.94347461  0.91278290  1  -0.432008  0  -0.105555  -0.30157  0  1.916709  0
O  O101  1  0.02355805  0.04307323  0.94000484  1  -0.451387  0  -0.134625  -0.335354  0  1.892333  0
O  O102  1  0.92563542  0.05652776  0.08720522  1  -0.432062  0  -0.105598  -0.301619  0  1.916883  0
O  O103  1  0.97639569  0.95692516  0.05999310  1  -0.451123  0  -0.134709  -0.335424  0  1.892243  0
