# generated using pymatgen
data_Zn2H13C22IO8
_symmetry_space_group_name_H-M   'P 1'
_cell_length_a   18.44536393
_cell_length_b   19.04900335
_cell_length_c   18.94028562
_cell_angle_alpha   109.91556087
_cell_angle_beta   108.68054969
_cell_angle_gamma   109.40976700
_symmetry_Int_Tables_number   1
_chemical_formula_structural   Zn2H13C22IO8
_chemical_formula_sum   'Zn6 H39 C66 I3 O24'
_cell_volume   5148.16406947
_cell_formula_units_Z   3
loop_
 _symmetry_equiv_pos_site_id
 _symmetry_equiv_pos_as_xyz
  1  'x, y, z'
loop_
 _atom_site_type_symbol
 _atom_site_label
 _atom_site_symmetry_multiplicity
 _atom_site_fract_x
 _atom_site_fract_y
 _atom_site_fract_z
 _atom_site_occupancy
 _atom_site_pbe_bader_charge
 _atom_site_pbe_bader_spin_density
 _atom_site_pbe_cm5_charge
 _atom_site_pbe_ddec_charge
 _atom_site_pbe_ddec_spin_density
 _atom_site_pbe_ddec_sum_bond_order
 _atom_site_pbe_magmom
Zn  Zn0  1  0.44335067  0.43559262  0.48115449  1  1.303881  0  0.721727  0.950244  0  2.150008  0
Zn  Zn1  1  0.56101638  0.56926472  0.48435794  1  1.300897  0  0.722056  0.954165  0  2.135273  0
Zn  Zn2  1  0.45273003  0.98626456  0.95414452  1  1.308833  0  0.719435  0.948183  0  2.158679  0
Zn  Zn3  1  0.58110869  0.99066449  0.07820999  1  1.307977  0  0.720452  0.95748  0  2.134087  0
Zn  Zn4  1  0.98706817  0.45522309  0.94563130  1  1.307834  0  0.717285  0.951924  0  2.16685  0
Zn  Zn5  1  0.98968458  0.56976162  0.07998781  1  1.306172  0  0.71882  0.949351  0  2.150943  0
H  H6  1  0.49866497  0.81410952  0.76055449  1  0.122369  0  0.121002  0.157154  0  0.967136  0
H  H7  1  0.52784712  0.63522289  0.76112083  1  0.095205  0  0.103007  0.116273  0  1.013533  0
H  H8  1  0.25284724  0.62935526  0.23259115  1  0.084394  0  0.113121  0.115345  0  0.969016  0
H  H9  1  0.21321349  0.44617685  0.11968962  1  0.079488  0  0.11013  0.128376  0  0.998568  0
H  H10  1  0.40216114  0.64155130  0.31812923  1  0.108223  0  0.114686  0.114086  0  0.969634  0
H  H11  1  0.26766366  0.46402439  0.27533459  1  0.097209  0  0.111254  0.131065  0  0.993956  0
H  H12  1  0.79387319  0.40992620  0.12838299  1  0.141425  0  0.113913  0.117341  0  0.985411  0
H  H13  1  0.64407262  0.42748317  0.42666062  1  0.084006  0  0.099142  0.123956  0  1.028797  0
H  H14  1  0.81183194  0.27551627  0.99882129  1  0.109227  0  0.110423  0.130878  0  0.985169  0
H  H15  1  0.78843732  0.21077795  0.09036743  1  0.09323  0  0.111027  0.135234  0  0.988672  0
H  H16  1  0.15875884  0.65598647  0.93989560  1  0.12429  0  0.114609  0.116838  0  0.97149  0
H  H17  1  0.21553144  0.79382682  0.12072400  1  0.081897  0  0.11204  0.134576  0  0.982902  0
H  H18  1  0.26194623  0.78134619  0.93985157  1  0.115665  0  0.113947  0.116323  0  0.97187  0
H  H19  1  0.38269586  0.82439131  0.12198802  1  0.09193  0  0.11252  0.135811  0  0.979213  0
H  H20  1  0.78984846  0.31977177  0.33665540  1  0.093341  0  0.103958  0.114754  0  0.988223  0
H  H21  1  0.65311631  0.20051942  0.20716490  1  0.117149  0  0.102164  0.113058  0  1.042542  0
H  H22  1  0.34732719  0.12766706  0.09008864  1  0.084479  0  0.110926  0.122074  0  0.988043  0
H  H23  1  0.79711964  0.41855697  0.71802096  1  0.138944  0  0.11384  0.126191  0  0.979114  0
H  H24  1  0.65288932  0.41050932  0.62158419  1  0.146633  0  0.117446  0.129065  0  0.961593  0
H  H25  1  0.33935709  0.32965302  0.15371575  1  0.04992  0  0.099487  0.100281  0  0.999924  0
H  H26  1  0.19224197  0.31778775  0.11939426  1  0.0357  0  0.096738  0.08749  0  1.020181  0
H  H27  1  0.08851425  0.21984242  0.14447392  1  0.051918  0  0.101714  0.097259  0  0.9939  0
H  H28  1  0.13157724  0.13201377  0.20247300  1  0.063855  0  0.102505  0.097496  0  0.991426  0
H  H29  1  0.27766040  0.14241094  0.23464402  1  0.047295  0  0.102654  0.103586  0  0.99137  0
H  H30  1  0.44513395  0.69013685  0.53846784  1  0.071991  0  0.099502  0.109604  0  1.014609  0
H  H31  1  0.33452794  0.72177806  0.46143711  1  0.045965  0  0.099213  0.094171  0  0.998384  0
H  H32  1  0.20829213  0.70710249  0.48877459  1  0.055487  0  0.102899  0.098031  0  0.992391  0
H  H33  1  0.19358476  0.66073850  0.59393956  1  0.070603  0  0.103005  0.098814  0  0.990966  0
H  H34  1  0.30445053  0.62953660  0.67136976  1  0.049873  0  0.101489  0.102638  0  1.001977  0
H  H35  1  0.70157539  0.38853805  0.19586112  1  0.065691  0  0.10166  0.10318  0  1.001122  0
H  H36  1  0.57461773  0.41171329  0.18133142  1  0.062851  0  0.102953  0.102243  0  0.988006  0
H  H37  1  0.43247723  0.31786144  0.04315112  1  0.059385  0  0.100069  0.093899  0  0.997795  0
H  H38  1  0.41889185  0.20020339  0.92034953  1  0.062963  0  0.102453  0.097855  0  0.988864  0
H  H39  1  0.54611125  0.17615924  0.93541244  1  0.079501  0  0.102904  0.110784  0  0.998252  0
H  H40  1  0.63087121  0.46375369  0.76964768  1  0.038756  0  0.099948  0.103776  0  0.995445  0
H  H41  1  0.56924231  0.55289861  0.82646729  1  0.043527  0  0.094606  0.08799  0  1.017887  0
H  H42  1  0.66970309  0.70332262  0.94833172  1  0.066228  0  0.087214  0.079273  0  1.043215  0
H  H43  1  0.83247322  0.76316141  0.01405897  1  0.057079  0  0.100325  0.098945  0  0.990318  0
H  H44  1  0.89378052  0.67337449  0.95828714  1  0.078619  0  0.098608  0.104019  0  0.999809  0
C  C45  1  0.65112005  0.53241864  0.59265774  1  1.565053  0  0.210753  0.613425  0  4.163692  0
C  C46  1  0.56485186  0.30941738  0.30276691  1  -0.018623  0  0.002688  0.075243  0  3.956549  0
C  C47  1  0.48214375  0.30497085  0.28906540  1  -0.06326  0  -0.003499  -0.108973  0  3.887747  0
C  C48  1  0.40443024  0.24061350  0.21330905  1  0.05634  0  0.00352  0.057441  0  3.992486  0
C  C49  1  0.40781537  0.17775192  0.15000200  1  0.018458  0  -0.076393  -0.140099  0  3.956345  0
C  C50  1  0.48549013  0.17660127  0.16297085  1  -0.032224  0  -0.006432  -0.0568  0  3.937033  0
C  C51  1  0.77477057  0.46446912  0.73874350  1  0.023467  0  -0.071938  -0.079829  0  3.938787  0
C  C52  1  0.80145403  0.50789606  0.82389843  1  -0.077735  0  -0.007972  -0.074984  0  3.920249  0
C  C53  1  0.71452436  0.47019517  0.67216038  1  -0.04562  0  -0.07258  -0.051734  0  3.979668  0
C  C54  1  0.72499602  0.53914718  0.66212706  1  -0.219324  0  -0.060445  -0.107041  0  3.844281  0
C  C55  1  0.49016862  0.73000240  0.80885390  1  -0.25536  0  -0.032957  0.11243  0  3.935729  0
C  C56  1  0.47984406  0.36981636  0.35892397  1  1.560876  0  0.224956  0.618335  0  4.135244  0
C  C57  1  0.49746441  0.80442221  0.81391652  1  0.027359  0  -0.097719  -0.272881  0  3.868555  0
C  C58  1  0.48863466  0.66364522  0.74013966  1  0.045382  0  -0.096626  -0.166223  0  4.00014  0
C  C59  1  0.44666672  0.63683794  0.65521837  1  -0.031841  0  0.002332  -0.030857  0  3.902131  0
C  C60  1  0.26290382  0.57366241  0.21801761  1  -0.102515  0  -0.066744  -0.024675  0  3.982582  0
C  C61  1  0.20303905  0.50115465  0.14190198  1  0.036304  0  -0.089411  -0.228761  0  3.885556  0
C  C62  1  0.33887789  0.58210656  0.28268881  1  -0.042056  0  -0.064072  -0.019096  0  3.970494  0
C  C63  1  0.33135957  0.52091056  0.30477334  1  -0.013374  0  -0.087488  -0.227474  0  3.894626  0
C  C64  1  0.65645671  0.12053604  0.05543008  1  1.530696  0  0.214017  0.652592  0  4.14215  0
C  C65  1  0.48115127  0.10249019  0.09700483  1  1.529465  0  0.219927  0.606815  0  4.120801  0
C  C66  1  0.42781540  0.88239957  0.05057845  1  1.514969  0  0.210082  0.640525  0  4.160309  0
C  C67  1  0.40393930  0.52751623  0.37344218  1  1.504052  0  0.211241  0.638121  0  4.161943  0
C  C68  1  0.50042103  0.87436614  0.88240877  1  1.557587  0  0.216549  0.667133  0  4.132988  0
C  C69  1  0.10381901  0.66130664  0.04959706  1  1.506896  0  0.207193  0.635907  0  4.162709  0
C  C70  1  0.86644647  0.49696353  0.88450770  1  1.543753  0  0.221068  0.606218  0  4.123427  0
C  C71  1  0.88828667  0.41145816  0.04419759  1  1.513137  0  0.213099  0.647993  0  4.145039  0
C  C72  1  0.12228999  0.49475298  0.08376307  1  1.539226  0  0.20952  0.640634  0  4.157421  0
C  C73  1  0.78281910  0.34624210  0.08875144  1  -0.086045  0  -0.060474  -0.055393  0  3.931395  0
C  C74  1  0.82646047  0.33865122  0.04418168  1  -0.026776  0  -0.093404  -0.231306  0  3.905968  0
C  C75  1  0.71156825  0.27089594  0.07622241  1  -0.029022  0  0.014821  0.117636  0  3.965161  0
C  C76  1  0.72289731  0.20332657  0.07351572  1  -0.028884  0  -0.091946  -0.285827  0  3.838092  0
C  C77  1  0.20280998  0.71860898  0.99903638  1  -0.07895  0  -0.063168  -0.010231  0  3.980228  0
C  C78  1  0.46554742  0.57774311  0.59715047  1  1.559695  0  0.227954  0.619997  0  4.124182  0
C  C79  1  0.18051772  0.73207490  0.06163446  1  0.027706  0  -0.092781  -0.24102  0  3.889953  0
C  C80  1  0.27586651  0.77874057  0.99934371  1  -0.053743  0  -0.064442  -0.014661  0  3.982241  0
C  C81  1  0.36046949  0.82702794  0.06271171  1  -0.043287  0  -0.091054  -0.237028  0  3.885476  0
C  C82  1  0.64513589  0.37705788  0.37863491  1  0.083783  0  -0.103462  -0.175572  0  3.950348  0
C  C83  1  0.72390658  0.38000676  0.39017533  1  -0.325902  0  -0.049809  0.072438  0  3.960175  0
C  C84  1  0.72713451  0.31634885  0.32757268  1  -0.027129  0  -0.098646  -0.124324  0  4.019894  0
C  C85  1  0.64994156  0.24952557  0.25442227  1  -0.018178  0  -0.085927  -0.104313  0  3.958413  0
C  C86  1  0.56682376  0.24320946  0.23944068  1  0.02593  0  0.002505  0.057011  0  3.942046  0
C  C87  1  0.31785979  0.23630609  0.19597138  1  -0.050605  0  -0.009936  0.069752  0  4.003586  0
C  C88  1  0.29362694  0.28620364  0.16422504  1  -0.036902  0  -0.093603  -0.135164  0  3.980909  0
C  C89  1  0.21118555  0.27977396  0.14534649  1  -0.055367  0  -0.096184  -0.08169  0  4.050527  0
C  C90  1  0.15268931  0.22451299  0.15899961  1  -0.017929  0  -0.095046  -0.092243  0  4.036641  0
C  C91  1  0.17671226  0.17500460  0.19115687  1  -0.030691  0  -0.093599  -0.083519  0  4.039835  0
C  C92  1  0.25853662  0.18053523  0.20901256  1  -0.020804  0  -0.089247  -0.122825  0  3.977237  0
C  C93  1  0.38287027  0.65874064  0.61097724  1  -0.008627  0  -0.010549  0.079314  0  4.002216  0
C  C94  1  0.39007591  0.68388670  0.55069848  1  -0.024422  0  -0.094579  -0.136002  0  3.963204  0
C  C95  1  0.32784877  0.70174047  0.50760443  1  -0.055054  0  -0.095716  -0.084349  0  4.050954  0
C  C96  1  0.25718149  0.69374938  0.52303241  1  0.010598  0  -0.092483  -0.089192  0  4.030696  0
C  C97  1  0.24910162  0.66793099  0.58223237  1  -0.113913  0  -0.090977  -0.078899  0  4.035024  0
C  C98  1  0.31130615  0.65053285  0.62588161  1  -0.026355  0  -0.086485  -0.122248  0  3.966546  0
C  C99  1  0.63207982  0.27976069  0.06672922  1  -0.057594  0  -0.010194  0.061876  0  3.968698  0
C  C100  1  0.63966915  0.34713983  0.13518720  1  -0.095876  0  -0.092307  -0.138157  0  3.99164  0
C  C101  1  0.56810351  0.36024931  0.12703539  1  0.050658  0  -0.093943  -0.082986  0  4.040513  0
C  C102  1  0.48843886  0.30745091  0.04972964  1  -0.102173  0  -0.09186  -0.086839  0  4.030939  0
C  C103  1  0.48084242  0.24145059  0.98089281  1  -0.062983  0  -0.092626  -0.078032  0  4.034032  0
C  C104  1  0.55201132  0.22751262  0.98911174  1  0.030624  0  -0.089095  -0.117114  0  3.967253  0
C  C105  1  0.76660929  0.56260089  0.85935012  1  0.063929  0  -0.015943  0.085205  0  4.007238  0
C  C106  1  0.67510828  0.52979470  0.82273120  1  -0.067195  0  -0.092133  -0.124323  0  3.966178  0
C  C107  1  0.64049358  0.58000235  0.85459069  1  -0.103728  0  -0.100777  -0.089518  0  4.041569  0
C  C108  1  0.69689434  0.66420177  0.92341293  1  -0.055478  0  -0.097904  -0.082768  0  4.027477  0
C  C109  1  0.78802579  0.69749683  0.96032755  1  -0.008114  0  -0.097457  -0.088177  0  4.036419  0
C  C110  1  0.82269458  0.64712031  0.92903975  1  -0.044372  0  -0.092461  -0.120528  0  3.985821  0
I  I111  1  0.84147030  0.65801919  0.73974062  1  0.15031  0  0.073859  -0.00134  0  1.445995  0
I  I112  1  0.47776457  0.69637136  0.90203501  1  0.100183  0  0.074812  -0.024424  0  1.359127  0
I  I113  1  0.84145254  0.48149863  0.50304665  1  0.079396  0  0.033458  -0.073825  0  1.309157  0
O  O114  1  0.57414770  0.47267033  0.56378287  1  -1.169802  0  -0.311519  -0.567033  0  2.309504  0
O  O115  1  0.68339764  0.08997379  0.10365435  1  -1.132805  0  -0.32635  -0.540599  0  2.190224  0
O  O116  1  0.42555037  0.06951531  0.01694224  1  -1.131476  0  -0.316175  -0.529838  0  2.232163  0
O  O117  1  0.53165408  0.07454012  0.12304493  1  -1.17944  0  -0.307992  -0.572654  0  2.355757  0
O  O118  1  0.40166094  0.89623452  0.98846653  1  -1.179735  0  -0.319378  -0.588157  0  2.336912  0
O  O119  1  0.50949606  0.91308082  0.10414967  1  -1.119699  0  -0.323405  -0.534081  0  2.205969  0
O  O120  1  0.44900231  0.90298397  0.85655531  1  -1.127028  0  -0.319893  -0.5286  0  2.204376  0
O  O121  1  0.55350161  0.90218771  0.96024100  1  -1.174357  0  -0.312743  -0.572753  0  2.340464  0
O  O122  1  0.06890206  0.58658446  0.98620405  1  -1.184331  0  -0.315766  -0.583814  0  2.320326  0
O  O123  1  0.07739942  0.67980341  0.10566905  1  -1.118794  0  -0.328287  -0.537941  0  2.188132  0
O  O124  1  0.89481526  0.44741280  0.85268152  1  -1.136825  0  -0.321916  -0.536549  0  2.263586  0
O  O125  1  0.66922771  0.58734136  0.56692901  1  -1.132171  0  -0.318603  -0.524693  0  2.29522  0
O  O126  1  0.89001378  0.53741994  0.96389870  1  -1.170027  0  -0.303975  -0.556151  0  2.341406  0
O  O127  1  0.91037239  0.39134366  0.98617938  1  -1.166242  0  -0.318701  -0.573167  0  2.283457  0
O  O128  1  0.91440084  0.48903629  0.09999077  1  -1.128949  0  -0.322134  -0.535158  0  2.225707  0
O  O129  1  0.08712451  0.44323628  0.00214309  1  -1.133073  0  -0.32654  -0.536206  0  2.193983  0
O  O130  1  0.09246721  0.53970602  0.11752450  1  -1.174473  0  -0.313744  -0.577684  0  2.304268  0
O  O131  1  0.43162005  0.33992738  0.38927292  1  -1.12261  0  -0.30854  -0.518398  0  2.258662  0
O  O132  1  0.52620593  0.44881236  0.38489276  1  -1.164569  0  -0.306853  -0.567179  0  2.313322  0
O  O133  1  0.38252795  0.47343912  0.39826333  1  -1.158506  0  -0.311045  -0.56758  0  2.292554  0
O  O134  1  0.48376448  0.58681634  0.40429251  1  -1.130866  0  -0.325499  -0.542248  0  2.226701  0
O  O135  1  0.42187576  0.49693450  0.57010659  1  -1.12305  0  -0.313077  -0.517554  0  2.220535  0
O  O136  1  0.52172393  0.61188827  0.57740889  1  -1.16598  0  -0.302469  -0.558601  0  2.292784  0
O  O137  1  0.57850230  0.08361374  0.99435534  1  -1.174903  0  -0.304128  -0.567218  0  2.326719  0
