# generated using pymatgen
data_CoH20C18(NO)4
_symmetry_space_group_name_H-M   'P 1'
_cell_length_a   9.51514522
_cell_length_b   13.45847093
_cell_length_c   18.45177266
_cell_angle_alpha   109.82118261
_cell_angle_beta   90.01361565
_cell_angle_gamma   109.21679820
_symmetry_Int_Tables_number   1
_chemical_formula_structural   CoH20C18(NO)4
_chemical_formula_sum   'Co4 H80 C72 N16 O16'
_cell_volume   2082.36551485
_cell_formula_units_Z   4
loop_
 _symmetry_equiv_pos_site_id
 _symmetry_equiv_pos_as_xyz
  1  'x, y, z'
loop_
 _atom_site_type_symbol
 _atom_site_label
 _atom_site_symmetry_multiplicity
 _atom_site_fract_x
 _atom_site_fract_y
 _atom_site_fract_z
 _atom_site_occupancy
 _atom_site_pbe_bader_charge
 _atom_site_pbe_bader_spin_density
 _atom_site_pbe_cm5_charge
 _atom_site_pbe_ddec_charge
 _atom_site_pbe_ddec_spin_density
 _atom_site_pbe_ddec_sum_bond_order
 _atom_site_pbe_magmom
Co  Co0  1  0.22353355  0.49102836  0.31901707  1  1.287351  2.619594  0.667431  0.839367  2.856765  2.556975  2.601
Co  Co1  1  0.77691315  0.50887954  0.68092501  1  1.288386  2.619366  0.667246  0.838659  2.856231  2.556286  2.6
Co  Co2  1  0.72149722  0.48598173  0.17392591  1  1.286113  2.620866  0.668369  0.839791  2.854635  2.551759  2.602
Co  Co3  1  0.27873211  0.51405517  0.82606095  1  1.285895  2.621059  0.667941  0.839137  2.85468  2.550368  2.602
H  H4  1  0.38483876  0.73465447  0.39653182  1  0.100767  0.001783  0.120565  0.095772  0.000596  0.987932  0.001
H  H5  1  0.61494888  0.26507499  0.60333639  1  0.111635  0.001782  0.120531  0.095957  0.000595  0.987533  0.001
H  H6  1  0.52738414  0.87184848  0.52608740  1  0.044075  0.001037  0.106731  0.111212  0.000482  1.008974  0.0
H  H7  1  0.47228682  0.12803327  0.47382159  1  0.043602  0.001035  0.106407  0.110594  0.000481  1.00945  0.0
H  H8  1  0.45613478  0.58981865  0.59992138  1  0.122263  0.000938  0.111799  0.134621  0.000415  1.012166  0.0
H  H9  1  0.54380056  0.41017614  0.40009355  1  0.121779  0.000934  0.111828  0.134634  0.000412  1.012039  0.0
H  H10  1  0.31287903  0.46404642  0.46855933  1  0.07227  0.001656  0.116589  0.08385  0.000227  1.003739  0.001
H  H11  1  0.68711392  0.53583128  0.53147064  1  0.072063  0.001653  0.116617  0.083979  0.000225  1.004602  0.001
H  H12  1  0.61233595  0.77028777  0.68435812  1  0.060271  0.000324  0.09809  0.081891  0.000248  1.011146  0.0
H  H13  1  0.38763656  0.22977692  0.31559059  1  0.059546  0.000325  0.09806  0.081934  0.000249  1.011055  0.0
H  H14  1  0.70670833  0.86840053  0.63972857  1  0.056977  -0.000854  0.103412  0.082402  -0.000697  0.995161  -0.001
H  H15  1  0.29311552  0.13156559  0.36018824  1  0.057143  -0.000855  0.103473  0.082469  -0.000697  0.994923  -0.001
H  H16  1  0.41158901  0.80954612  0.76200531  1  0.038714  0.000134  0.0935  0.071522  5e-05  0.984141  0.0
H  H17  1  0.58837323  0.19050005  0.23796755  1  0.03858  0.000133  0.093334  0.071237  4.9e-05  0.984424  0.0
H  H18  1  0.31077257  0.77883769  0.67129318  1  0.061524  -0.000231  0.099411  0.082416  -0.000261  1.00395  0.0
H  H19  1  0.68913442  0.22119764  0.32870139  1  0.061818  -0.000231  0.099325  0.082122  -0.000259  1.00404  0.0
H  H20  1  0.73131988  0.03393512  0.73510487  1  0.011079  -4.2e-05  0.101646  0.077425  -3.9e-05  0.979084  0.0
H  H21  1  0.26862833  0.96605551  0.26481908  1  0.010979  -4.2e-05  0.101559  0.077175  -3.9e-05  0.979031  0.0
H  H22  1  0.66186002  0.96274088  0.80099305  1  -0.000642  3.5e-05  0.086652  0.052052  2.2e-05  0.989798  0.0
H  H23  1  0.33808652  0.03723886  0.19893579  1  -0.002225  3.5e-05  0.08645  0.051667  2.2e-05  0.989673  0.0
H  H24  1  0.99504776  0.47841285  0.43076014  1  0.118191  0.001241  0.115803  0.082903  3e-05  1.034499  0.001
H  H25  1  0.00491975  0.52155722  0.56920047  1  0.121029  0.001253  0.115826  0.082889  4.3e-05  1.034168  0.001
H  H26  1  0.86232656  0.34502267  0.49707488  1  0.098595  0.000862  0.106245  0.115979  0.000295  1.045223  0.0
H  H27  1  0.13759568  0.65501384  0.50297744  1  0.091468  0.000872  0.106018  0.116196  0.0003  1.045002  0.0
H  H28  1  0.01798258  0.09741304  0.33874305  1  0.075172  0.001  0.10563  0.108061  0.000472  1.015704  0.0
H  H29  1  0.98200252  0.90259443  0.66137581  1  0.074999  0.001004  0.1057  0.108313  0.000474  1.015548  0.0
H  H30  1  0.15319418  0.24347563  0.28198853  1  0.119803  0.001638  0.120637  0.094773  0.00052  1.001067  0.001
H  H31  1  0.84671173  0.75643347  0.71808928  1  0.117653  0.001637  0.120671  0.095253  0.000516  1.000979  0.001
H  H32  1  0.82573387  0.17274810  0.51818116  1  0.046906  -0.000195  0.096224  0.072122  -0.000153  0.988164  0.0
H  H33  1  0.17424202  0.82730518  0.48189752  1  0.048293  -0.000197  0.096464  0.072464  -0.000153  0.987402  0.0
H  H34  1  0.74041615  0.07259165  0.42451220  1  0.053271  -0.00119  0.10812  0.089874  -0.000965  0.982356  -0.001
H  H35  1  0.25954525  0.92749069  0.57556280  1  0.054683  -0.001205  0.108118  0.0899  -0.000979  0.982467  -0.001
H  H36  1  0.74067957  0.91116692  0.43983653  1  0.061423  -8.6e-05  0.104348  0.08279  -9.1e-05  0.974293  0.0
H  H37  1  0.25921055  0.08880637  0.56024247  1  0.062578  -8.6e-05  0.104302  0.082815  -9.1e-05  0.974403  0.0
H  H38  1  0.80379702  0.98780603  0.54122762  1  -0.002768  5.1e-05  0.085038  0.046085  3.4e-05  0.997338  0.0
H  H39  1  0.19603976  0.01214887  0.45884359  1  7.9e-05  5.1e-05  0.085133  0.04609  3.4e-05  0.997659  0.0
H  H40  1  0.04697109  0.15616244  0.57737450  1  0.029486  0.000134  0.093072  0.067493  8.2e-05  0.974829  0.0
H  H41  1  0.95293594  0.84382534  0.42270102  1  0.030005  0.000136  0.093195  0.067646  8.4e-05  0.975272  0.0
H  H42  1  0.14068137  0.18688220  0.49987712  1  0.040143  -9.6e-05  0.102589  0.085457  -0.000119  0.979848  0.0
H  H43  1  0.85921747  0.81308704  0.50020088  1  0.039157  -9.7e-05  0.102683  0.085616  -0.00012  0.979825  0.0
H  H44  1  0.64446874  0.23644150  0.09538733  1  0.115104  0.001721  0.120523  0.095495  0.000561  0.996027  0.001
H  H45  1  0.35563597  0.76354409  0.90459013  1  0.1217  0.001724  0.120637  0.09558  0.000562  0.996306  0.001
H  H46  1  0.50504047  0.08539581  0.96885988  1  0.069274  0.001052  0.105694  0.109062  0.000495  1.020816  0.0
H  H47  1  0.49498846  0.91462047  0.03114194  1  0.069308  0.001052  0.105658  0.109202  0.000495  1.020521  0.0
H  H48  1  0.37227950  0.33444798  0.91945457  1  0.092348  0.000923  0.106081  0.119872  0.000353  1.036341  0.0
H  H49  1  0.62779145  0.66558491  0.08057898  1  0.090484  0.000921  0.106206  0.119943  0.000351  1.036474  0.0
H  H50  1  0.50573180  0.47252892  0.05061362  1  0.093518  0.001351  0.116004  0.082134  7.4e-05  1.033307  0.001
H  H51  1  0.49445849  0.52748144  0.94937862  1  0.092604  0.001349  0.116125  0.082311  7.1e-05  1.032993  0.001
H  H52  1  0.23013584  0.06630928  0.86728777  1  0.052471  -0.001268  0.108362  0.089406  -0.001024  0.996868  -0.001
H  H53  1  0.76989537  0.93371458  0.13271863  1  0.052108  -0.001265  0.108294  0.089279  -0.001021  0.996901  -0.001
H  H54  1  0.32957349  0.15524640  0.81804447  1  0.015818  -0.000236  0.09597  0.07129  -0.000164  0.981477  0.0
H  H55  1  0.67045189  0.84481422  0.18197370  1  0.015967  -0.000236  0.095971  0.071264  -0.000164  0.981471  0.0
H  H56  1  0.21319860  0.89311047  0.78235213  1  0.049751  -0.000155  0.101724  0.081102  -0.00017  0.978428  0.0
H  H57  1  0.78678190  0.10694610  0.21765907  1  0.049461  -0.000153  0.101686  0.080982  -0.000169  0.978652  0.0
H  H58  1  0.27729962  0.96126540  0.71461984  1  0.003693  3.9e-05  0.085279  0.04859  1.3e-05  1.011604  0.0
H  H59  1  0.72265893  0.03880337  0.28538462  1  0.003911  3.9e-05  0.085267  0.048474  1.4e-05  1.012168  0.0
H  H60  1  0.63327973  0.14879471  0.84559468  1  0.028751  -0.000106  0.101134  0.081433  -0.000117  0.986204  0.0
H  H61  1  0.36676218  0.85122003  0.15437424  1  0.028509  -0.000106  0.101091  0.081289  -0.000117  0.986235  0.0
H  H62  1  0.53692094  0.11897133  0.75361840  1  0.012906  8.2e-05  0.091294  0.061677  5.5e-05  0.977188  0.0
H  H63  1  0.46305508  0.88106083  0.24635968  1  0.012264  8.1e-05  0.091215  0.06162  5.4e-05  0.977287  0.0
H  H64  1  0.81327417  0.46516662  0.01056402  1  0.078614  0.001652  0.116792  0.084459  0.000265  0.999491  0.001
H  H65  1  0.18687261  0.53482379  0.98940541  1  0.078634  0.001645  0.116772  0.084621  0.000265  0.999225  0.001
H  H66  1  0.95444246  0.59647560  0.94473754  1  0.122228  0.00098  0.111091  0.134071  0.000433  1.01272  0.0
H  H67  1  0.04552754  0.40352629  0.05520977  1  0.123503  0.000979  0.110959  0.134035  0.000433  1.012879  0.0
H  H68  1  0.01887362  0.87124631  0.16165226  1  0.055314  0.000993  0.106274  0.112251  0.000459  1.00629  0.0
H  H69  1  0.98103591  0.12874719  0.83832929  1  0.055283  0.000992  0.106325  0.112375  0.000457  1.006385  0.0
H  H70  1  0.87763513  0.72884229  0.21970971  1  0.115507  0.001723  0.120261  0.096797  0.000572  0.990919  0.001
H  H71  1  0.12241855  0.27108726  0.78024958  1  0.114396  0.001717  0.120195  0.096684  0.000569  0.990909  0.001
H  H72  1  0.20742951  0.86401658  0.04400994  1  0.063825  -0.000963  0.105648  0.085923  -0.000787  0.994487  -0.001
H  H73  1  0.79250243  0.13601574  0.95596655  1  0.065517  -0.000956  0.105682  0.086028  -0.000782  0.994666  -0.001
H  H74  1  0.09829134  0.78248687  0.95189116  1  0.067835  0.000292  0.099239  0.083599  0.000223  0.997417  0.0
H  H75  1  0.90166870  0.21757099  0.04808350  1  0.068143  0.000294  0.099181  0.083569  0.000224  0.997204  0.0
H  H76  1  0.81686456  0.81313096  0.97599906  1  0.043338  -0.000215  0.100756  0.084157  -0.000242  0.994695  0.0
H  H77  1  0.18306778  0.18690225  0.02400367  1  0.043643  -0.000214  0.100736  0.084233  -0.000241  0.994425  0.0
H  H78  1  0.93140001  0.85681479  0.90830631  1  0.026737  5.2e-05  0.090857  0.061834  2.3e-05  0.979542  0.0
H  H79  1  0.06850402  0.14321382  0.09170395  1  0.026305  5.4e-05  0.090719  0.061804  2.4e-05  0.979508  0.0
H  H80  1  0.19478078  0.99725121  0.96058198  1  -0.010228  8e-06  0.088562  0.056117  4e-06  1.005142  0.0
H  H81  1  0.80515285  0.00279207  0.03942269  1  -0.010532  8e-06  0.088389  0.055741  4e-06  1.005529  0.0
H  H82  1  0.24943079  0.04541413  0.06266422  1  0.00996  -9.1e-05  0.099138  0.073677  -9e-05  0.993593  0.0
H  H83  1  0.75049924  0.95462577  0.93734883  1  0.010668  -9.1e-05  0.09908  0.073586  -9e-05  0.993603  0.0
C  C84  1  0.47845947  0.44047546  0.26082860  1  1.5771  -0.003976  0.202539  0.469403  -0.005274  4.209771  -0.003
C  C85  1  0.52159556  0.55946908  0.73908724  1  1.573071  -0.003979  0.202  0.46844  -0.005274  4.210722  -0.003
C  C86  1  0.47720685  0.54209401  0.23940905  1  1.579132  -0.004783  0.201539  0.474283  -0.005931  4.200422  -0.003
C  C87  1  0.52313865  0.45799168  0.76065923  1  1.580518  -0.004771  0.20183  0.474589  -0.00592  4.19894  -0.003
C  C88  1  0.97744128  0.54307047  0.27957850  1  1.569759  -0.004744  0.202223  0.475088  -0.005865  4.196997  -0.004
C  C89  1  0.02269370  0.45689558  0.72044401  1  1.56847  -0.004726  0.202303  0.474776  -0.00583  4.197298  -0.004
C  C90  1  0.97897837  0.43999006  0.20893150  1  1.582962  -0.004056  0.200493  0.466558  -0.005204  4.213368  -0.003
C  C91  1  0.02137478  0.56012486  0.79104751  1  1.583549  -0.004058  0.200189  0.466121  -0.005204  4.214517  -0.003
C  C92  1  0.40278172  0.70661463  0.44359271  1  0.510403  -0.010579  0.041778  0.084075  -0.010877  3.957299  -0.006
C  C93  1  0.59700656  0.29323048  0.55634629  1  0.504374  -0.010586  0.041289  0.082825  -0.010888  3.958249  -0.006
C  C94  1  0.48258176  0.78166575  0.51506612  1  -0.044464  0.007131  -0.084856  -0.18062  0.003199  3.962906  0.006
C  C95  1  0.51716024  0.21822215  0.48486500  1  -0.049353  0.007132  -0.08439  -0.17928  0.003203  3.963035  0.006
C  C96  1  0.50528352  0.74103143  0.57304439  1  0.043227  -0.017953  0.010558  0.14434  -0.018662  3.942826  -0.012
C  C97  1  0.49460502  0.25890978  0.42689500  1  0.04343  -0.017948  0.01078  0.14423  -0.01866  3.942647  -0.012
C  C98  1  0.44218264  0.62490317  0.55627774  1  -0.069853  0.006321  -0.082685  -0.180537  0.002744  3.930463  0.005
C  C99  1  0.55772852  0.37505355  0.44371805  1  -0.069823  0.006318  -0.082709  -0.180443  0.002743  3.930117  0.005
C  C100  1  0.36263142  0.55499933  0.48346765  1  0.460897  -0.013208  0.043723  0.088899  -0.014247  3.969233  -0.008
C  C101  1  0.63726866  0.44488947  0.51654445  1  0.464774  -0.013226  0.043542  0.088662  -0.014263  3.970227  -0.008
C  C102  1  0.59535715  0.82012801  0.65032927  1  0.291231  0.000239  -0.065191  -0.119029  -0.000439  3.956049  0.001
C  C103  1  0.40448503  0.17986771  0.34960242  1  0.291413  0.000241  -0.06541  -0.119218  -0.000437  3.95617  0.001
C  C104  1  0.38806520  0.84753828  0.72064166  1  0.273712  -6.7e-05  -0.07134  -0.074347  -0.000159  3.925306  0.0
C  C105  1  0.61185883  0.15250230  0.27933741  1  0.274481  -6.9e-05  -0.070992  -0.073497  -0.00016  3.925292  0.0
C  C106  1  0.62876324  0.99380821  0.75716356  1  0.319639  -0.000112  -0.068058  -0.074467  -0.000101  3.977826  0.0
C  C107  1  0.37120624  0.00620204  0.24278202  1  0.321376  -0.000112  -0.067708  -0.073658  -0.000101  3.977272  0.0
C  C108  1  0.99918057  0.39368183  0.41330744  1  0.466022  -0.011512  0.041322  0.080785  -0.012258  3.963862  -0.007
C  C109  1  0.00074182  0.60630269  0.58669413  1  0.465976  -0.01161  0.041524  0.080722  -0.012344  3.963654  -0.007
C  C110  1  0.92388758  0.31879413  0.44879086  1  -0.089355  0.006277  -0.086908  -0.184299  0.002727  3.949087  0.005
C  C111  1  0.07606540  0.68125961  0.55127926  1  -0.085611  0.00635  -0.087098  -0.185069  0.002755  3.949454  0.005
C  C112  1  0.93047888  0.21032425  0.42320471  1  0.047675  -0.016974  0.011809  0.143551  -0.017666  3.940605  -0.011
C  C113  1  0.06948511  0.78973061  0.57691934  1  0.036026  -0.0172  0.012115  0.143991  -0.017894  3.939674  -0.011
C  C114  1  0.01183465  0.18172831  0.36103894  1  -0.084675  0.006595  -0.084471  -0.183551  0.002906  3.972871  0.005
C  C115  1  0.98808534  0.81826978  0.63907707  1  -0.071895  0.006676  -0.084287  -0.183481  0.002939  3.972043  0.006
C  C116  1  0.08605870  0.26159123  0.32925115  1  0.477868  -0.009855  0.045982  0.096439  -0.010382  3.936376  -0.006
C  C117  1  0.91379817  0.73833298  0.67080762  1  0.479171  -0.010019  0.046168  0.095897  -0.010561  3.936913  -0.006
C  C118  1  0.85000140  0.12663510  0.45992876  1  0.293635  -4.6e-05  -0.058614  -0.111306  -0.000506  3.968234  0.001
C  C119  1  0.14994622  0.87339936  0.54016316  1  0.292862  -4.2e-05  -0.058965  -0.11189  -0.00051  3.968006  0.001
C  C120  1  0.84136497  0.95893533  0.48293301  1  0.284496  -3e-05  -0.067953  -0.075963  -3e-05  3.983044  0.0
C  C121  1  0.15851643  0.04104202  0.51714591  1  0.281926  -3.1e-05  -0.068077  -0.076368  -3.1e-05  3.98434  0.0
C  C122  1  0.07140827  0.11763777  0.51746646  1  0.295189  -7.3e-05  -0.068147  -0.07442  -0.000121  3.937871  0.0
C  C123  1  0.92848397  0.88233555  0.48260984  1  0.296742  -7.4e-05  -0.068581  -0.075339  -0.000123  3.938303  0.0
C  C124  1  0.58050610  0.25366932  0.05506247  1  0.456504  -0.010534  0.046507  0.09825  -0.011119  3.933216  -0.006
C  C125  1  0.41961727  0.74634421  0.94493596  1  0.448277  -0.010514  0.04665  0.098823  -0.01109  3.933396  -0.006
C  C126  1  0.50402398  0.17092369  0.98510243  1  0.000779  0.00702  -0.086776  -0.186872  0.003074  3.970618  0.006
C  C127  1  0.49601859  0.82908779  0.01490687  1  0.002145  0.007007  -0.086822  -0.18735  0.003069  3.970659  0.006
C  C128  1  0.42766820  0.19827129  0.93405413  1  -0.016314  -0.017548  0.011279  0.144129  -0.018228  3.942488  -0.011
C  C129  1  0.57235621  0.80173238  0.06595433  1  -0.016182  -0.017501  0.011344  0.144213  -0.018179  3.942195  -0.011
C  C130  1  0.42838971  0.30873125  0.95760179  1  0.003506  0.006392  -0.086921  -0.185996  0.002823  3.948238  0.005
C  C131  1  0.57169564  0.69128427  0.04242531  1  0.005116  0.006374  -0.087207  -0.186097  0.002816  3.948609  0.005
C  C132  1  0.50454971  0.38618021  0.02926109  1  0.388702  -0.011736  0.042319  0.082182  -0.012583  3.973167  -0.007
C  C133  1  0.49561439  0.61382561  0.97075388  1  0.391557  -0.011724  0.042076  0.082033  -0.01257  3.973895  -0.007
C  C134  1  0.34414515  0.11156342  0.85746715  1  0.344601  -2.1e-05  -0.060081  -0.114065  -0.000516  3.972071  0.001
C  C135  1  0.65587522  0.88846444  0.14253319  1  0.341977  -2.2e-05  -0.06007  -0.113974  -0.000514  3.971713  0.001
C  C136  1  0.31405403  0.93305042  0.75909275  1  0.294486  -6.7e-05  -0.070474  -0.076305  -0.0001  3.974739  0.0
C  C137  1  0.68590530  0.06699155  0.24089805  1  0.29443  -6.6e-05  -0.070489  -0.076229  -0.0001  3.975346  0.0
C  C138  1  0.55642788  0.08060438  0.79565667  1  0.316108  -0.00011  -0.06966  -0.074547  -0.000155  3.945696  0.0
C  C139  1  0.44358505  0.91942331  0.20431382  1  0.316811  -0.00011  -0.069523  -0.07449  -0.000155  3.945437  0.0
C  C140  1  0.86096353  0.55586051  0.04221318  1  0.497086  -0.0118  0.045096  0.090391  -0.012758  3.967887  -0.007
C  C141  1  0.13911969  0.44412642  0.95775810  1  0.496906  -0.011718  0.045142  0.09016  -0.012676  3.967392  -0.007
C  C142  1  0.93935226  0.62886390  0.00580485  1  -0.057687  0.00623  -0.083043  -0.179693  0.002733  3.926963  0.005
C  C143  1  0.06060487  0.37113026  0.99414327  1  -0.062103  0.0062  -0.082985  -0.179758  0.002721  3.92674  0.005
C  C144  1  0.99981381  0.74447500  0.04855453  1  -0.010996  -0.016211  0.010547  0.144369  -0.016829  3.942214  -0.01
C  C145  1  0.00011591  0.25552376  0.95139093  1  -0.008695  -0.016114  0.010614  0.144575  -0.016729  3.941903  -0.01
C  C146  1  0.97579871  0.78151264  0.12663245  1  -0.038558  0.006766  -0.086392  -0.182378  0.003056  3.963544  0.005
C  C147  1  0.02413982  0.21847036  0.87331780  1  -0.038564  0.006737  -0.086512  -0.182392  0.003044  3.963358  0.005
C  C148  1  0.89684591  0.70359948  0.15892702  1  0.487228  -0.009422  0.04155  0.085693  -0.009713  3.95568  -0.006
C  C149  1  0.10321152  0.29635523  0.84103306  1  0.487402  -0.009356  0.041696  0.085716  -0.009647  3.955839  -0.006
C  C150  1  0.09207288  0.82744520  0.01378594  1  0.27989  0.000154  -0.063451  -0.116798  -0.000419  3.947335  0.001
C  C151  1  0.90786092  0.17259133  0.98618508  1  0.279067  0.000156  -0.063251  -0.11684  -0.000415  3.948037  0.001
C  C152  1  0.90455294  0.88526636  0.96893851  1  0.29378  -0.000104  -0.069561  -0.071517  -0.000181  3.93515  0.0
C  C153  1  0.09536537  0.11478507  0.03107250  1  0.293608  -0.000102  -0.069419  -0.071553  -0.000179  3.934726  0.0
C  C154  1  0.15360804  0.01844579  0.01834729  1  0.336577  -8e-05  -0.07153  -0.082763  -8.8e-05  3.98118  0.0
C  C155  1  0.84633012  0.98161013  0.98166158  1  0.335058  -8e-05  -0.071252  -0.082139  -8.8e-05  3.98111  0.0
N  N156  1  0.34306491  0.59420914  0.42749599  1  -1.250983  0.057508  -0.336055  -0.260422  0.030777  3.616201  0.049
N  N157  1  0.65682550  0.40564349  0.57249690  1  -1.253788  0.057227  -0.335568  -0.260219  0.030619  3.616078  0.049
N  N158  1  0.52572377  0.90144049  0.69221923  1  -1.022982  -0.000494  -0.347429  -0.15576  -0.000612  3.485842  -0.001
N  N159  1  0.47416395  0.09858692  0.30772733  1  -1.023815  -0.000495  -0.347536  -0.155943  -0.000613  3.487112  -0.001
N  N160  1  0.08285099  0.36730957  0.35587346  1  -1.226939  0.062939  -0.334729  -0.252386  0.033992  3.59436  0.051
N  N161  1  0.91705934  0.63262623  0.64412855  1  -1.22839  0.06327  -0.335206  -0.251632  0.034175  3.595476  0.051
N  N162  1  0.93305919  0.05434509  0.46308755  1  -1.033136  -0.000107  -0.346061  -0.152344  -0.000159  3.504823  0.0
N  N163  1  0.06682375  0.94563815  0.53699390  1  -1.034539  -0.000106  -0.345815  -0.151843  -0.000159  3.504834  0.0
N  N164  1  0.58302506  0.36067672  0.07672073  1  -1.21891  0.062945  -0.336824  -0.252969  0.033978  3.600485  0.051
N  N165  1  0.41718227  0.63935319  0.92329368  1  -1.220151  0.062944  -0.336689  -0.253207  0.033961  3.601085  0.051
N  N166  1  0.41566524  0.02912519  0.82275495  1  -1.038422  -6.7e-05  -0.346251  -0.155652  -0.000113  3.493331  0.0
N  N167  1  0.58434564  0.97090500  0.17722699  1  -1.035942  -6.7e-05  -0.346266  -0.155561  -0.000113  3.493304  0.0
N  N168  1  0.83984214  0.59165412  0.11750578  1  -1.247971  0.059604  -0.336024  -0.261387  0.032014  3.607948  0.05
N  N169  1  0.16031144  0.40829455  0.88246854  1  -1.246635  0.059563  -0.335671  -0.260947  0.032017  3.607158  0.05
N  N170  1  0.03686316  0.92030424  0.02477330  1  -1.027987  -0.000352  -0.345914  -0.15395  -0.000441  3.480447  0.0
N  N171  1  0.96306779  0.07974487  0.97523497  1  -1.028378  -0.000346  -0.346128  -0.15413  -0.000436  3.481905  0.0
O  O172  1  0.37281623  0.40306144  0.29755293  1  -1.164754  0.076272  -0.306845  -0.52752  0.03958  2.380487  0.065
O  O173  1  0.62711837  0.59687698  0.70231533  1  -1.162169  0.075907  -0.306611  -0.527304  0.039391  2.379331  0.065
O  O174  1  0.37736049  0.58369567  0.26391944  1  -1.135196  0.08177  -0.307415  -0.50032  0.042538  2.304414  0.07
O  O175  1  0.62316355  0.41654194  0.73626489  1  -1.136942  0.082115  -0.307281  -0.500059  0.042713  2.304023  0.07
O  O176  1  0.58408413  0.40329638  0.24201681  1  -1.143562  0.072204  -0.30451  -0.503808  0.037531  2.308783  0.063
O  O177  1  0.41588850  0.59659248  0.75788801  1  -1.14269  0.072298  -0.304277  -0.503398  0.037566  2.309333  0.063
O  O178  1  0.57690561  0.57602945  0.19875202  1  -1.148796  0.082354  -0.312386  -0.519828  0.042977  2.334463  0.069
O  O179  1  0.42350883  0.42406238  0.80134867  1  -1.148407  0.082369  -0.312724  -0.520073  0.042969  2.333098  0.069
O  O180  1  0.07922302  0.58014874  0.33673447  1  -1.147969  0.08384  -0.314558  -0.520822  0.043802  2.332597  0.07
O  O181  1  0.92087395  0.41968365  0.66328217  1  -1.147302  0.084199  -0.31471  -0.520464  0.043977  2.333342  0.071
O  O182  1  0.08578156  0.40417332  0.20989293  1  -1.13853  0.07148  -0.307032  -0.504213  0.037129  2.295779  0.063
O  O183  1  0.91473770  0.59609637  0.79004188  1  -1.140308  0.071292  -0.30704  -0.504188  0.037004  2.296618  0.062
O  O184  1  0.87528574  0.58240639  0.27551973  1  -1.135738  0.07849  -0.305222  -0.501153  0.040735  2.310822  0.068
O  O185  1  0.12473188  0.41747244  0.72446717  1  -1.135042  0.078389  -0.304879  -0.500635  0.040679  2.310967  0.068
O  O186  1  0.87185579  0.39980761  0.15402410  1  -1.165907  0.077645  -0.308498  -0.527052  0.040234  2.372322  0.066
O  O187  1  0.12845607  0.60041135  0.84598381  1  -1.165066  0.077621  -0.308169  -0.526651  0.040215  2.371828  0.066
