# generated using pymatgen
data_CrCuH40C20(NO)4
_symmetry_space_group_name_H-M   'P 1'
_cell_length_a   9.45411399
_cell_length_b   11.69069329
_cell_length_c   14.26230000
_cell_angle_alpha   107.46040836
_cell_angle_beta   107.47518156
_cell_angle_gamma   102.37299022
_symmetry_Int_Tables_number   1
_chemical_formula_structural   CrCuH40C20(NO)4
_chemical_formula_sum   'Cr2 Cu2 H80 C40 N8 O8'
_cell_volume   1351.68012952
_cell_formula_units_Z   2
loop_
 _symmetry_equiv_pos_site_id
 _symmetry_equiv_pos_as_xyz
  1  'x, y, z'
loop_
 _atom_site_type_symbol
 _atom_site_label
 _atom_site_symmetry_multiplicity
 _atom_site_fract_x
 _atom_site_fract_y
 _atom_site_fract_z
 _atom_site_occupancy
 _atom_site_hle17_ddec_charge
 _atom_site_hle17_ddec_spin_density
 _atom_site_hle17_ddec_sum_bond_order
 _atom_site_hle17_magmom
 _atom_site_hse06_10hf_ddec_charge
 _atom_site_hse06_10hf_ddec_spin_density
 _atom_site_hse06_10hf_ddec_sum_bond_order
 _atom_site_hse06_10hf_magmom
 _atom_site_hse06_ddec_charge
 _atom_site_hse06_ddec_spin_density
 _atom_site_hse06_ddec_sum_bond_order
 _atom_site_hse06_magmom
 _atom_site_pbe_bader_charge
 _atom_site_pbe_bader_spin_density
 _atom_site_pbe_cm5_charge
 _atom_site_pbe_ddec_charge
 _atom_site_pbe_ddec_spin_density
 _atom_site_pbe_ddec_sum_bond_order
 _atom_site_pbe_magmom
Cr  Cr0  1  0.28253104  0.17897695  0.27685598  1  1.741942  -0.012009  3.710384  -0.008  1.808684  -0.00728  4.18277  -0.005  1.893277  -0.006932  4.153592  -0.005  1.981813  -0.005211  1.200124  1.753697  -0.007442  4.200092  -0.005
Cr  Cr1  1  0.71748426  0.82104632  0.72311528  1  1.742497  -0.012037  3.709536  -0.008  1.809108  -0.00728  4.182025  -0.005  1.893898  -0.00693  4.152644  -0.005  1.981866  -0.005209  1.20025  1.754114  -0.007439  4.199358  -0.005
Cu  Cu2  1  0.00000229  0.00000285  0.00000466  1  0.723347  0.626242  1.801556  0.446  0.677257  0.717795  2.168377  0.551  0.751128  0.780708  2.120685  0.628  0.934053  0.506477  0.743911  0.636226  0.677925  2.199984  0.506
Cu  Cu3  1  0.49998992  0.49999023  0.49999331  1  0.734555  0.629889  1.797504  0.449  0.694202  0.723287  2.161272  0.556  0.768702  0.787576  2.112572  0.635  0.952767  0.511251  0.738305  0.653706  0.683224  2.193082  0.511
H  H4  1  0.92425954  0.13019758  0.11816010  1  0.277859  -0.002133  0.920243  -0.002  0.273431  -0.000786  0.969038  -0.001  0.280967  -0.001092  0.963498  -0.001  0.464374  -0.000801  0.290632  0.268024  -0.000551  0.973329  -0.001
H  H5  1  0.07573886  0.86980095  0.88184237  1  0.277922  -0.002132  0.920169  -0.002  0.273485  -0.000786  0.968964  -0.001  0.281023  -0.001092  0.963421  -0.001  0.464478  -0.000801  0.290677  0.26808  -0.00055  0.973254  -0.001
H  H6  1  0.91613138  0.05951150  0.84475573  1  0.279392  -0.00149  0.963967  -0.002  0.266484  -0.000463  1.029709  -0.001  0.274371  -0.000698  1.024712  -0.001  0.492953  -0.000372  0.277899  0.260897  -0.000236  1.033516  0.0
H  H7  1  0.08387415  0.94049084  0.15524630  1  0.279313  -0.00149  0.96402  -0.002  0.266425  -0.000463  1.029717  -0.001  0.274303  -0.000698  1.024736  -0.001  0.492803  -0.000372  0.27787  0.260839  -0.000236  1.033519  0.0
H  H8  1  0.56827032  0.35455795  0.36541176  1  0.275342  -0.00134  0.964776  -0.002  0.263883  -0.000285  1.028013  0.0  0.271408  -0.000538  1.023635  -0.001  0.478148  -0.000316  0.277388  0.258587  -0.000133  1.031268  0.0
H  H9  1  0.43173861  0.64544724  0.63458744  1  0.275399  -0.00134  0.964729  -0.002  0.263931  -0.000285  1.028006  0.0  0.271465  -0.000537  1.023615  -0.001  0.478096  -0.000315  0.277398  0.258633  -0.000133  1.031266  0.0
H  H10  1  0.55055930  0.68304727  0.46598937  1  0.279521  -0.002316  0.90984  -0.002  0.273844  -0.000962  0.961116  -0.001  0.280982  -0.001224  0.956183  -0.001  0.475261  -0.000928  0.293323  0.268724  -0.000682  0.965005  -0.001
H  H11  1  0.44943785  0.31694555  0.53401356  1  0.27963  -0.002321  0.909646  -0.002  0.273802  -0.000963  0.961128  -0.001  0.280936  -0.001224  0.956204  -0.001  0.475257  -0.000929  0.293281  0.268682  -0.000683  0.965016  -0.001
H  H12  1  0.23288601  0.37146921  0.03952842  1  0.092076  -1.3e-05  0.979774  0.0  0.112751  2.8e-05  1.046515  0.0  0.114047  2e-05  1.046596  0.0  -0.006644  7.2e-05  0.08363  0.111513  3.5e-05  1.046917  0.0
H  H13  1  0.76711136  0.62853218  0.96046964  1  0.092058  -1.3e-05  0.97972  0.0  0.112715  2.8e-05  1.046472  0.0  0.114008  2e-05  1.04656  0.0  -0.006481  7.2e-05  0.083618  0.111482  3.5e-05  1.046873  0.0
H  H14  1  0.38178699  0.31299962  0.01600088  1  0.093445  -0.000225  0.97911  0.0  0.114194  -0.000118  1.047042  0.0  0.115403  -0.000109  1.047243  0.0  0.010687  -0.000115  0.084568  0.11296  -0.000117  1.047382  0.0
H  H15  1  0.61821098  0.68701128  0.98399614  1  0.093404  -0.000225  0.979072  0.0  0.11416  -0.000118  1.046993  0.0  0.115383  -0.000109  1.047182  0.0  0.010725  -0.000115  0.084571  0.11293  -0.000117  1.047334  0.0
H  H16  1  0.27812841  0.25425219  0.08734643  1  0.13344  -5e-05  0.974777  0.0  0.148311  -5.2e-05  1.04522  0.0  0.14999  -9.3e-05  1.044888  0.0  0.113292  0.00015  0.094532  0.146956  1e-06  1.045733  0.0
H  H17  1  0.72188510  0.74575872  0.91265158  1  0.133522  -5.1e-05  0.974651  0.0  0.148417  -5.3e-05  1.045082  0.0  0.150102  -9.3e-05  1.044738  0.0  0.113171  0.00015  0.094553  0.147063  1e-06  1.045592  0.0
H  H18  1  0.11731482  0.22498266  0.85544132  1  0.023779  0.005741  0.921046  0.007  0.040273  0.004221  0.976746  0.005  0.038931  0.003146  0.977841  0.004  0.019686  0.009436  0.10041  0.041211  0.005035  0.976026  0.005
H  H19  1  0.88267876  0.77501492  0.14455646  1  0.023783  0.005738  0.921069  0.007  0.040296  0.004222  0.97676  0.005  0.038956  0.003146  0.977853  0.004  0.019707  0.009436  0.100413  0.041237  0.005035  0.976046  0.005
H  H20  1  0.12257656  0.00594506  0.79336213  1  0.095456  -0.000143  0.91085  0.0  0.113764  -5e-05  0.964479  0.0  0.115066  -4.2e-05  0.964167  0.0  0.07194  -3.2e-05  0.106699  0.11282  -5.3e-05  0.9648  0.0
H  H21  1  0.87741963  0.99405348  0.20664130  1  0.095419  -0.000139  0.910895  0.0  0.113767  -5e-05  0.964504  0.0  0.115072  -4.2e-05  0.964191  0.0  0.071938  -3.2e-05  0.106698  0.112824  -5.4e-05  0.964823  0.0
H  H22  1  0.30729272  0.12607467  0.84667503  1  0.075703  -0.000474  0.94146  0.0  0.095514  -0.000241  0.999094  0.0  0.09621  -0.000222  0.999691  0.0  0.027684  -0.000238  0.096429  0.095093  -0.000226  0.998494  0.0
H  H23  1  0.69269746  0.87392006  0.15332908  1  0.075677  -0.00047  0.941365  0.0  0.095498  -0.00024  0.999022  0.0  0.096204  -0.000222  0.999606  0.0  0.027889  -0.000238  0.096398  0.095081  -0.000226  0.998422  0.0
H  H24  1  0.35554861  0.96774696  0.90941721  1  0.055466  0.005989  0.923366  0.007  0.074303  0.004507  0.981374  0.005  0.073633  0.003398  0.982017  0.004  0.033883  0.010348  0.101525  0.074506  0.005491  0.981411  0.006
H  H25  1  0.64444901  0.03224967  0.09058324  1  0.055386  0.005993  0.92349  0.007  0.07426  0.004508  0.981477  0.005  0.07359  0.003398  0.982118  0.004  0.033839  0.01035  0.101496  0.074464  0.005492  0.981514  0.006
H  H26  1  0.36539389  0.09143194  0.02290545  1  0.06959  0.000829  0.931607  0.001  0.085988  0.000719  0.997581  0.001  0.085966  0.00048  0.997605  0.001  0.04313  0.001893  0.107076  0.085647  0.000861  0.997726  0.001
H  H27  1  0.63459865  0.90856849  0.97709633  1  0.069527  0.000829  0.931612  0.001  0.085979  0.000719  0.997559  0.001  0.085957  0.00048  0.997576  0.001  0.043093  0.001893  0.107073  0.085638  0.000861  0.997702  0.001
H  H28  1  0.69617584  0.06865745  0.90084540  1  0.067371  0.000159  0.899655  0.001  0.080234  7e-05  0.95772  0.0  0.080417  2.7e-05  0.957888  0.0  0.089142  0.000552  0.117147  0.079777  0.00017  0.958092  0.0
H  H29  1  0.30381760  0.93133442  0.09915305  1  0.067458  0.000162  0.899594  0.001  0.080213  7e-05  0.957738  0.0  0.080396  2.7e-05  0.957907  0.0  0.089226  0.000552  0.117144  0.079755  0.00017  0.958108  0.0
H  H30  1  0.79553973  0.29499983  0.11297020  1  0.073012  -0.000285  0.929657  0.0  0.094406  -6e-05  0.986964  0.0  0.094747  -5.6e-05  0.987919  0.0  -0.004163  -6e-06  0.09414  0.094145  -6.4e-05  0.986289  0.0
H  H31  1  0.20445116  0.70499395  0.88702891  1  0.072995  -0.000286  0.929757  0.0  0.094353  -6.1e-05  0.987097  0.0  0.094692  -5.6e-05  0.988059  0.0  -0.004242  -6e-06  0.094122  0.094095  -6.4e-05  0.986422  0.0
H  H32  1  0.60620576  0.17928715  0.04129586  1  0.071916  -0.000194  0.961328  0.0  0.088173  7.4e-05  1.02626  0.0  0.089015  3.4e-05  1.026411  0.0  0.039038  0.000234  0.09282  0.087848  0.000104  1.025695  0.0
H  H33  1  0.39378839  0.82070378  0.95869969  1  0.071931  -0.000194  0.961355  0.0  0.088211  7.4e-05  1.026257  0.0  0.089056  3.4e-05  1.026401  0.0  0.03903  0.000234  0.092843  0.087887  0.000104  1.02569  0.0
H  H34  1  0.56933758  0.24500157  0.88778985  1  0.059154  -8.7e-05  0.942234  0.0  0.081449  -5.5e-05  0.999964  0.0  0.081661  -4.5e-05  1.000955  0.0  0.012736  4e-06  0.089806  0.081282  -4.3e-05  0.999298  0.0
H  H35  1  0.43065513  0.75499126  0.11220939  1  0.059159  -8.6e-05  0.942311  0.0  0.081459  -5.5e-05  1.000033  0.0  0.081671  -4.5e-05  1.001025  0.0  0.012995  4e-06  0.089832  0.081293  -4.3e-05  0.999366  0.0
H  H36  1  0.61326519  0.37675678  0.00559661  1  0.058997  0.00044  0.958555  0.001  0.07949  0.000277  1.019605  0.0  0.079743  0.000185  1.020704  0.0  0.002639  0.000683  0.087744  0.079115  0.000338  1.019336  0.0
H  H37  1  0.38672316  0.62323890  0.99440597  1  0.058953  0.000438  0.958554  0.001  0.079476  0.000277  1.019571  0.0  0.079729  0.000185  1.02067  0.0  0.002631  0.000683  0.087736  0.0791  0.000338  1.019303  0.0
H  H38  1  0.89309199  0.44929736  0.02828251  1  0.056002  -5.1e-05  0.95068  0.0  0.076553  -1.7e-05  1.014514  0.0  0.076781  -1.6e-05  1.015535  0.0  0.025931  6.5e-05  0.086587  0.076283  -5e-06  1.013986  0.0
H  H39  1  0.10690041  0.55069737  0.97172204  1  0.055936  -5.1e-05  0.950671  0.0  0.076485  -1.8e-05  1.014499  0.0  0.076714  -1.6e-05  1.015517  0.0  0.025925  6.5e-05  0.086556  0.076218  -5e-06  1.013967  0.0
H  H40  1  0.76957518  0.43384192  0.90147139  1  0.055324  0.000459  0.971396  0.001  0.075098  0.000318  1.034219  0.0  0.075438  0.000209  1.034948  0.0  0.015562  0.000807  0.085447  0.074897  0.000418  1.033735  0.0
H  H41  1  0.23042180  0.56615852  0.09853548  1  0.055321  0.000459  0.971341  0.001  0.075092  0.000318  1.034158  0.0  0.075431  0.000209  1.034892  0.0  0.015471  0.000807  0.085415  0.074894  0.000418  1.033673  0.0
H  H42  1  0.79212310  0.21942106  0.81752756  1  0.089113  -0.000181  0.921237  0.0  0.109111  8.3e-05  0.976381  0.0  0.110554  4.6e-05  0.975349  0.0  0.074518  0.000251  0.095995  0.107982  0.000134  0.977195  0.0
H  H43  1  0.20787373  0.78057367  0.18247437  1  0.089034  -0.00018  0.921218  0.0  0.109132  8.4e-05  0.976288  0.0  0.110574  4.6e-05  0.975249  0.0  0.074126  0.000251  0.09601  0.108001  0.000134  0.97711  0.0
H  H44  1  0.97936228  0.33939843  0.88873020  1  0.064468  -0.000228  0.958622  0.0  0.079782  6.4e-05  1.026497  0.0  0.080717  2.3e-05  1.02665  0.0  -0.002461  0.000271  0.088195  0.078964  0.000136  1.026735  0.0
H  H45  1  0.02063795  0.66059915  0.11127101  1  0.064407  -0.000231  0.958593  0.0  0.079762  6.4e-05  1.02647  0.0  0.080694  2.3e-05  1.026621  0.0  -0.002478  0.000272  0.088185  0.078974  0.000136  1.026677  0.0
H  H46  1  0.01085299  0.27833691  0.04677500  1  0.056456  0.000135  0.922302  0.0  0.074553  5.8e-05  0.97711  0.0  0.074531  2.9e-05  0.977673  0.0  0.039029  0.000449  0.111827  0.074396  0.000117  0.976986  0.0
H  H47  1  0.98914613  0.72166067  0.95322949  1  0.056477  0.000136  0.922342  0.0  0.074588  5.8e-05  0.977121  0.0  0.074564  2.9e-05  0.977687  0.0  0.039127  0.000449  0.11183  0.074431  0.000117  0.977  0.0
H  H48  1  0.21517800  0.46648551  0.20227852  1  0.095972  -3.9e-05  0.97877  0.0  0.115295  -9e-06  1.047931  0.0  0.116712  -1e-06  1.047616  0.0  0.014137  -4e-06  0.085368  0.113952  -1.3e-05  1.048647  0.0
H  H49  1  0.78482130  0.53350446  0.79772483  1  0.095945  -4.8e-05  0.978842  0.0  0.115306  -9e-06  1.04795  0.0  0.116729  -0.0  1.047624  0.0  0.017447  -4e-06  0.085361  0.113974  -1.3e-05  1.048653  0.0
H  H50  1  0.18526191  0.41345668  0.30025754  1  0.128057  -9.6e-05  0.969631  0.0  0.143995  -8.8e-05  1.03733  0.0  0.145623  -0.000118  1.036734  0.0  0.08829  7.6e-05  0.094042  0.142722  -3e-05  1.03793  0.0
H  H51  1  0.81472866  0.58653900  0.69974899  1  0.128035  -0.000103  0.969574  0.0  0.143937  -8.9e-05  1.037317  0.0  0.145567  -0.000118  1.036718  0.0  0.087685  7.6e-05  0.093993  0.142665  -3e-05  1.037919  0.0
H  H52  1  0.07533308  0.50615509  0.25312034  1  0.097184  -0.000262  0.966149  0.0  0.119775  -0.000152  1.031288  0.0  0.120792  -0.000138  1.031878  0.0  0.013662  -0.000115  0.086153  0.118862  -0.000126  1.030992  0.0
H  H53  1  0.92466304  0.49384059  0.74687958  1  0.097197  -0.00027  0.966102  0.0  0.119751  -0.000152  1.031283  0.0  0.120766  -0.000138  1.031875  0.0  0.013694  -0.000115  0.086156  0.118838  -0.000126  1.03099  0.0
H  H54  1  0.32887819  0.69016650  0.32798145  1  0.024602  0.005917  0.911969  0.007  0.04178  0.004468  0.966185  0.005  0.040446  0.003333  0.967373  0.004  0.030159  0.009824  0.101478  0.04263  0.00529  0.965453  0.006
H  H55  1  0.67112061  0.30983298  0.67201924  1  0.02463  0.005917  0.912  0.007  0.041784  0.004466  0.966204  0.005  0.040448  0.003332  0.967391  0.004  0.030263  0.00982  0.101525  0.042641  0.005288  0.965472  0.006
H  H56  1  0.36169148  0.75766406  0.51737249  1  0.096951  -0.000152  0.914422  0.0  0.114323  -7.6e-05  0.96938  0.0  0.115482  -5.7e-05  0.969317  0.0  0.030071  -5.4e-05  0.107952  0.113383  -7.6e-05  0.969652  0.0
H  H57  1  0.63830842  0.24233543  0.48262772  1  0.09697  -0.000152  0.914378  0.0  0.114311  -7.5e-05  0.96936  0.0  0.115468  -5.8e-05  0.969297  0.0  0.030075  -5.4e-05  0.107955  0.113372  -7.6e-05  0.96963  0.0
H  H58  1  0.16547816  0.70093289  0.42442893  1  0.079229  -0.000473  0.927473  0.0  0.100013  -0.000227  0.98179  0.0  0.100645  -0.000211  0.98247  0.0  0.053316  -0.000196  0.098224  0.099638  -0.000207  0.981024  0.0
H  H59  1  0.83451496  0.29906089  0.57557062  1  0.079226  -0.000472  0.927498  0.0  0.100028  -0.000226  0.981791  0.0  0.10066  -0.000211  0.982465  0.0  0.05331  -0.000196  0.09821  0.09965  -0.000207  0.981028  0.0
H  H60  1  0.86382859  0.51346462  0.55491806  1  0.058785  0.000453  0.931802  0.001  0.076871  0.000428  0.995921  0.001  0.076685  0.000267  0.996063  0.001  0.045189  0.001373  0.103896  0.076695  0.000629  0.995966  0.001
H  H61  1  0.13617654  0.48653677  0.44508997  1  0.058801  0.000462  0.931855  0.001  0.076918  0.000428  0.995923  0.001  0.07673  0.000267  0.996065  0.001  0.04511  0.001374  0.103919  0.076741  0.000629  0.995968  0.001
H  H62  1  0.84085749  0.37969125  0.44405732  1  0.050837  0.005896  0.923439  0.007  0.069707  0.004366  0.981549  0.005  0.069155  0.003236  0.981797  0.004  0.017088  0.010122  0.100096  0.069971  0.005373  0.981426  0.006
H  H63  1  0.15914653  0.62031014  0.55594908  1  0.050894  0.005903  0.92343  0.007  0.069759  0.004366  0.981547  0.005  0.069205  0.003235  0.981794  0.004  0.017045  0.010121  0.100095  0.070024  0.005372  0.98142  0.006
H  H64  1  0.77124671  0.62233782  0.44499542  1  0.058955  0.000159  0.900301  0.001  0.074277  8.1e-05  0.954724  0.0  0.074854  4.1e-05  0.954179  0.0  0.069588  0.000543  0.110281  0.073706  0.000183  0.955299  0.0
H  H65  1  0.22876039  0.37766833  0.55501207  1  0.058909  0.000159  0.900382  0.001  0.074264  8.1e-05  0.954765  0.0  0.074842  4.1e-05  0.954218  0.0  0.069723  0.000543  0.110265  0.073694  0.000183  0.955334  0.0
H  H66  1  0.67591484  0.38903131  0.23862835  1  0.087838  -0.000298  0.926381  0.0  0.108556  -7.5e-05  0.981793  0.0  0.109566  -6.1e-05  0.981793  0.0  0.032974  -5.2e-05  0.096327  0.107778  -8.5e-05  0.981919  0.0
H  H67  1  0.32408625  0.61097103  0.76137911  1  0.087851  -0.000292  0.926335  0.0  0.108599  -7.6e-05  0.981717  0.0  0.10961  -6.1e-05  0.981715  0.0  0.032902  -5.2e-05  0.096324  0.107821  -8.5e-05  0.981844  0.0
H  H68  1  0.86843507  0.46794323  0.33861213  1  0.066131  -0.000258  0.955625  0.0  0.083068  4e-06  1.020064  0.0  0.083673  -2.1e-05  1.020599  0.0  -0.000191  0.000197  0.089804  0.08305  6.2e-05  1.018869  0.0
H  H69  1  0.13156974  0.53206006  0.66139420  1  0.066143  -0.000257  0.955648  0.0  0.083095  4e-06  1.020065  0.0  0.083701  -2.1e-05  1.020599  0.0  -0.000246  0.000197  0.089806  0.083078  6.2e-05  1.01887  0.0
H  H70  1  0.88370009  0.66498563  0.30365309  1  0.058471  -4.4e-05  0.927575  0.0  0.078817  6e-06  0.986024  0.0  0.079555  -2e-06  0.986159  0.0  -0.020973  0.000118  0.087769  0.078321  3.8e-05  0.98585  0.0
H  H71  1  0.11629982  0.33501385  0.69635062  1  0.058461  -4.6e-05  0.927581  0.0  0.078805  6e-06  0.986039  0.0  0.079556  -2e-06  0.98616  0.0  -0.020988  0.000118  0.087757  0.078309  3.8e-05  0.985866  0.0
H  H72  1  0.83846761  0.53491460  0.18458588  1  0.054625  0.000468  0.960762  0.001  0.072972  0.000316  1.027892  0.0  0.073425  0.000205  1.028421  0.0  0.013001  0.000802  0.085116  0.072376  0.00042  1.028131  0.0
H  H73  1  0.16153269  0.46508584  0.81541744  1  0.054632  0.000466  0.960715  0.001  0.072961  0.000316  1.027871  0.0  0.073414  0.000205  1.0284  0.0  0.01296  0.000802  0.085128  0.072365  0.00042  1.02811  0.0
H  H74  1  0.66831971  0.67010478  0.15539450  1  0.059071  0.000564  0.970543  0.001  0.075888  0.000471  1.037587  0.0  0.076158  0.000322  1.038662  0.0  0.004848  0.001028  0.086902  0.07569  0.000592  1.036935  0.0
H  H75  1  0.33167719  0.32989280  0.84460464  1  0.05902  0.000567  0.970587  0.001  0.075842  0.000471  1.03763  0.0  0.076111  0.000322  1.038706  0.0  0.004828  0.001028  0.086872  0.075644  0.000592  1.036976  0.0
H  H76  1  0.55509392  0.51354740  0.12612763  1  0.056805  -4.9e-05  0.950334  0.0  0.078203  -1e-05  1.011038  0.0  0.078464  -1e-05  1.012031  0.0  -0.005339  3.9e-05  0.086669  0.077952  -1.9e-05  1.010482  0.0
H  H77  1  0.44490520  0.48645018  0.87387545  1  0.056828  -4.8e-05  0.950265  0.0  0.078212  -1e-05  1.011001  0.0  0.078475  -1e-05  1.011996  0.0  -0.005334  3.9e-05  0.086662  0.077957  -1.9e-05  1.010447  0.0
H  H78  1  0.46512288  0.66913328  0.23392575  1  0.068827  -0.000215  0.970281  0.0  0.085403  4.5e-05  1.036322  0.0  0.086179  1.3e-05  1.036708  0.0  0.020343  0.00019  0.091097  0.084775  7.6e-05  1.036218  0.0
H  H79  1  0.53487610  0.33085859  0.76607310  1  0.068774  -0.000217  0.970265  0.0  0.085364  4.4e-05  1.036267  0.0  0.086141  1.3e-05  1.036655  0.0  0.020752  0.00019  0.091052  0.084729  7.6e-05  1.036171  0.0
H  H80  1  0.65599731  0.74369964  0.33578472  1  0.077676  -0.000271  0.911216  0.0  0.099532  -6.9e-05  0.962875  0.0  0.100284  -6.3e-05  0.96319  0.0  0.023975  -4e-06  0.09678  0.098903  -6.7e-05  0.962733  0.0
H  H81  1  0.34400149  0.25629985  0.66421807  1  0.077684  -0.000272  0.911168  0.0  0.099514  -6.9e-05  0.962842  0.0  0.100265  -6.3e-05  0.963161  0.0  0.023988  -4e-06  0.096778  0.098885  -6.7e-05  0.9627  0.0
H  H82  1  0.45276388  0.46549023  0.26205116  1  0.061423  0.000144  0.912479  0.0  0.078426  5.7e-05  0.968022  0.0  0.077962  2.2e-05  0.969234  0.0  0.06377  0.000469  0.117114  0.078384  0.000108  0.967662  0.0
H  H83  1  0.54723928  0.53450640  0.73794969  1  0.061381  0.000142  0.912482  0.0  0.078408  5.7e-05  0.968011  0.0  0.077929  2.2e-05  0.969242  0.0  0.06377  0.000469  0.117111  0.078364  0.000108  0.967652  0.0
C  C84  1  0.26648211  0.28568355  0.02085923  1  -0.35607  0.000305  3.663877  0.001  -0.440396  0.000284  3.90973  0.0  -0.443377  0.00013  3.918833  0.0  -0.076182  0.00079  -0.250323  -0.437854  0.00042  3.904151  0.001
C  C85  1  0.73351604  0.71431974  0.97913525  1  -0.356061  0.000302  3.663689  0.001  -0.440353  0.000283  3.909476  0.0  -0.443347  0.00013  3.918565  0.0  -0.076068  0.000791  -0.250305  -0.437814  0.00042  3.903909  0.001
C  C86  1  0.85299252  0.81848199  0.08551426  1  0.210208  -0.003464  3.600476  -0.004  0.200166  -0.000325  3.846406  -0.002  0.206079  -0.001151  3.863352  -0.002  0.305887  0.000823  0.000442  0.196141  0.000437  3.835233  -0.001
C  C87  1  0.14700374  0.18151940  0.91448638  1  0.210195  -0.003486  3.600526  -0.004  0.200209  -0.000327  3.846316  -0.002  0.206121  -0.00115  3.863253  -0.002  0.305984  0.000823  0.000466  0.196209  0.000437  3.835101  -0.001
C  C88  1  0.78545279  0.91959083  0.13166808  1  -0.182612  0.001512  3.651747  0.003  -0.225524  0.001046  3.907241  0.002  -0.228276  0.000667  3.92082  0.001  -0.047212  0.002664  -0.156628  -0.223734  0.001577  3.897795  0.002
C  C89  1  0.21453999  0.08040485  0.86833608  1  -0.182594  0.001529  3.651964  0.003  -0.225416  0.001047  3.907264  0.002  -0.228156  0.000667  3.920846  0.001  -0.046803  0.002664  -0.156615  -0.223627  0.001576  3.897807  0.002
C  C90  1  0.71433962  0.98053817  0.05706777  1  0.044481  -0.004228  3.64617  -0.005  -0.015083  -0.000407  3.918451  -0.002  -0.009338  -0.001234  3.932421  -0.002  0.292012  0.000459  -0.068151  -0.018513  0.000377  3.909032  -0.002
C  C91  1  0.28565657  0.01946037  0.94293427  1  0.044292  -0.004226  3.646094  -0.005  -0.015191  -0.000406  3.918244  -0.002  -0.009456  -0.001237  3.932215  -0.002  0.29184  0.000458  -0.068206  -0.018621  0.000376  3.908829  -0.002
C  C92  1  0.78264660  0.13875550  0.98013046  1  0.102113  -0.002378  3.581105  -0.003  0.083046  -0.000129  3.825736  -0.001  0.086921  -0.000893  3.842374  -0.001  0.27395  0.000966  0.003161  0.080709  0.000637  3.814424  -0.001
C  C93  1  0.21734769  0.86124113  0.01986793  1  0.101985  -0.002376  3.581224  -0.003  0.083066  -0.000127  3.825665  -0.001  0.086942  -0.000894  3.842302  -0.001  0.273649  0.000967  0.003193  0.080733  0.000637  3.814349  -0.001
C  C94  1  0.70896354  0.23111517  0.03180086  1  -0.156575  0.005245  3.666006  0.006  -0.201961  0.003422  3.926588  0.004  -0.203512  0.002515  3.940602  0.003  -0.012466  0.005471  -0.164141  -0.200664  0.004083  3.91614  0.004
C  C95  1  0.29102957  0.76887861  0.96819659  1  -0.156552  0.005246  3.666202  0.006  -0.201947  0.003422  3.926733  0.004  -0.203501  0.002516  3.940748  0.003  -0.012356  0.005472  -0.164147  -0.200653  0.004083  3.916282  0.004
C  C96  1  0.66287752  0.30921260  0.96632392  1  -0.103971  0.000689  3.697187  0.001  -0.147159  0.000628  3.964543  0.001  -0.148275  0.000423  3.979959  0.001  -0.003788  0.001272  -0.16713  -0.146175  0.000803  3.953795  0.001
C  C97  1  0.33711431  0.69078879  0.03367865  1  -0.103929  0.000691  3.697366  0.001  -0.147146  0.000629  3.964709  0.001  -0.148262  0.000422  3.980127  0.001  -0.004168  0.001272  -0.167146  -0.146164  0.000803  3.953964  0.001
C  C98  1  0.80372468  0.37940294  0.95005555  1  -0.105917  0.000614  3.700982  0.001  -0.148815  0.000556  3.967983  0.001  -0.14975  0.000369  3.983075  0.0  -0.053545  0.001123  -0.167699  -0.147772  0.00073  3.957102  0.001
C  C99  1  0.19627119  0.62059750  0.04994829  1  -0.105852  0.000615  3.700979  0.001  -0.148712  0.000558  3.967978  0.001  -0.149653  0.000368  3.983065  0.0  -0.053245  0.001123  -0.167614  -0.147673  0.00073  3.957106  0.001
C  C100  1  0.87657022  0.28703185  0.89811257  1  -0.160791  0.005391  3.661127  0.006  -0.205116  0.003441  3.919506  0.004  -0.206819  0.002495  3.932987  0.003  -0.045699  0.005621  -0.165669  -0.203487  0.004179  3.909836  0.004
C  C101  1  0.12342787  0.71296859  0.10188891  1  -0.160581  0.005395  3.660918  0.006  -0.20508  0.003439  3.919456  0.004  -0.206763  0.002494  3.932917  0.003  -0.045414  0.00562  -0.165655  -0.203472  0.004178  3.909782  0.004
C  C102  1  0.92493917  0.21194121  0.96629652  1  0.112154  -0.002324  3.576028  -0.003  0.096206  -9.6e-05  3.809536  -0.001  0.10013  -0.000885  3.826583  -0.001  0.321872  0.001181  -0.00083  0.093826  0.000774  3.797917  0.0
C  C103  1  0.07505773  0.78805637  0.03370262  1  0.112058  -0.00235  3.576074  -0.003  0.0961  -9.7e-05  3.809603  -0.001  0.100019  -0.000884  3.826652  -0.001  0.321915  0.00118  -0.00091  0.093719  0.000773  3.797992  0.0
C  C104  1  0.19112413  0.49377304  0.27497640  1  -0.349184  0.000657  3.661757  0.001  -0.434955  0.000514  3.911631  0.001  -0.437678  0.000293  3.920936  0.001  -0.076943  0.001214  -0.24971  -0.432724  0.00072  3.905768  0.001
C  C105  1  0.80887049  0.50622169  0.72502859  1  -0.349126  0.000691  3.66162  0.001  -0.434883  0.000515  3.911449  0.001  -0.437607  0.000292  3.920755  0.001  -0.079638  0.001213  -0.24965  -0.432659  0.00072  3.905592  0.001
C  C106  1  0.31509122  0.61722343  0.36220962  1  0.214341  -0.003491  3.606509  -0.004  0.200665  -0.000276  3.858376  -0.002  0.206256  -0.001086  3.875814  -0.002  0.301116  0.000866  0.002513  0.196923  0.000467  3.846797  -0.001
C  C107  1  0.68491044  0.38277225  0.63779350  1  0.214402  -0.003516  3.606372  -0.004  0.200855  -0.000274  3.858016  -0.002  0.206446  -0.001085  3.875448  -0.002  0.300906  0.000868  0.002484  0.197086  0.000468  3.846482  -0.001
C  C108  1  0.26650326  0.67094592  0.45514161  1  -0.186284  0.001475  3.650629  0.002  -0.22921  0.001028  3.907551  0.002  -0.232036  0.000649  3.921374  0.001  -0.014338  0.002527  -0.156149  -0.227385  0.001501  3.897994  0.002
C  C109  1  0.73349919  0.32905167  0.54486073  1  -0.186342  0.001467  3.650508  0.002  -0.229277  0.001026  3.907374  0.002  -0.23209  0.000651  3.921182  0.001  -0.013998  0.002528  -0.156115  -0.227444  0.001502  3.897823  0.002
C  C110  1  0.78043578  0.42053785  0.49392463  1  0.053077  -0.004025  3.64457  -0.005  -0.006167  -0.000385  3.917303  -0.002  -0.000171  -0.001227  3.931224  -0.002  0.282717  0.000405  -0.069032  -0.00987  0.000329  3.908116  -0.002
C  C111  1  0.21956896  0.57946259  0.50608028  1  0.052829  -0.004083  3.644757  -0.005  -0.006404  -0.00039  3.917513  -0.002  -0.000396  -0.001226  3.931423  -0.002  0.283193  0.000403  -0.069114  -0.010106  0.000328  3.90833  -0.002
C  C112  1  0.68700064  0.53235313  0.37919125  1  0.106885  -0.002617  3.569279  -0.003  0.089497  -0.000273  3.810817  -0.001  0.093333  -0.001047  3.827553  -0.002  0.279457  0.000883  0.000635  0.087207  0.000506  3.79934  -0.001
C  C113  1  0.31301011  0.46765112  0.62081649  1  0.10688  -0.002607  3.569456  -0.003  0.089487  -0.000273  3.811027  -0.001  0.093321  -0.001048  3.827772  -0.002  0.280041  0.000882  0.00062  0.087201  0.000506  3.799544  -0.001
C  C114  1  0.75905490  0.48289913  0.29858711  1  -0.161193  0.005394  3.656225  0.006  -0.205478  0.003414  3.914227  0.004  -0.207189  0.002461  3.928271  0.003  -0.000983  0.005546  -0.165153  -0.204103  0.004074  3.903724  0.004
C  C115  1  0.24095213  0.51710416  0.70141825  1  -0.161291  0.005379  3.656232  0.006  -0.20561  0.003414  3.91426  0.004  -0.207323  0.002461  3.928308  0.003  -0.001433  0.005548  -0.165155  -0.204237  0.004074  3.903758  0.004
C  C116  1  0.79158280  0.57454231  0.24418975  1  -0.103499  0.000693  3.703556  0.001  -0.147309  0.000692  3.975111  0.001  -0.148141  0.000463  3.990081  0.0  0.005611  0.00124  -0.166385  -0.146503  0.000863  3.964646  0.001
C  C117  1  0.20841750  0.42545813  0.75581147  1  -0.103436  0.000706  3.703532  0.001  -0.147244  0.000693  3.975127  0.001  -0.148086  0.000463  3.990104  0.0  0.005649  0.00124  -0.166383  -0.146439  0.000863  3.964662  0.001
C  C118  1  0.64304673  0.60171375  0.19170149  1  -0.102868  0.000824  3.689859  0.001  -0.143301  0.000792  3.954716  0.001  -0.144384  0.000538  3.969961  0.001  0.024922  0.001497  -0.166801  -0.142212  0.001052  3.943733  0.001
C  C119  1  0.35695057  0.39828479  0.80829937  1  -0.102835  0.000809  3.689904  0.001  -0.143276  0.000791  3.954734  0.001  -0.144358  0.000539  3.969986  0.001  0.02486  0.001497  -0.166769  -0.142181  0.001052  3.943743  0.001
C  C120  1  0.57288886  0.65158356  0.27266548  1  -0.159015  0.004987  3.674064  0.005  -0.206214  0.003199  3.937315  0.003  -0.20767  0.00233  3.95085  0.003  -0.038164  0.005202  -0.164188  -0.204848  0.003834  3.927516  0.004
C  C121  1  0.42711287  0.34841498  0.72733836  1  -0.159029  0.004993  3.674067  0.005  -0.206171  0.003199  3.937257  0.003  -0.207633  0.002331  3.950797  0.003  -0.038474  0.005202  -0.164163  -0.204801  0.003834  3.927459  0.004
C  C122  1  0.53758197  0.55738842  0.32422100  1  0.108027  -0.002224  3.58374  -0.003  0.089063  -4.4e-05  3.825144  -0.001  0.092998  -0.000788  3.842346  -0.001  0.29004  0.001111  0.001546  0.086812  0.000744  3.813351  0.0
C  C123  1  0.46242191  0.44260727  0.67578186  1  0.108099  -0.00222  3.583961  -0.003  0.089115  -4.2e-05  3.82535  -0.001  0.093061  -0.000787  3.842551  -0.001  0.289861  0.001112  0.001596  0.086863  0.000745  3.813554  0.0
N  N124  1  0.83760834  0.06697327  0.04427944  1  -0.403786  0.09054  3.255826  0.113  -0.354758  0.064665  3.523405  0.085  -0.383116  0.0536  3.537991  0.076  -1.072107  0.102768  -0.501297  -0.33762  0.069882  3.514869  0.087
N  N125  1  0.16238334  0.93302241  0.95572170  1  -0.403872  0.090534  3.255793  0.113  -0.354862  0.064662  3.523333  0.085  -0.383205  0.0536  3.537883  0.076  -1.072129  0.102765  -0.501395  -0.337724  0.06988  3.514796  0.087
N  N126  1  0.00126832  0.87899829  0.07743916  1  -0.43905  0.092074  3.160879  0.115  -0.396107  0.063576  3.424905  0.083  -0.425297  0.052501  3.438257  0.074  -1.072162  0.10202  -0.492481  -0.378466  0.069334  3.417283  0.087
N  N127  1  0.99873126  0.12100310  0.92256496  1  -0.439096  0.092068  3.160786  0.115  -0.396187  0.063572  3.424829  0.083  -0.425366  0.0525  3.438167  0.074  -1.072056  0.102016  -0.492544  -0.378548  0.069333  3.417196  0.087
N  N128  1  0.64404424  0.44247596  0.42839648  1  -0.410763  0.092805  3.207425  0.116  -0.365313  0.064656  3.477843  0.085  -0.394523  0.05295  3.492234  0.075  -1.054664  0.103855  -0.49537  -0.347811  0.070407  3.469431  0.088
N  N129  1  0.35596375  0.55752163  0.57160557  1  -0.410664  0.092807  3.207226  0.116  -0.365293  0.064657  3.477758  0.085  -0.394507  0.052952  3.492135  0.075  -1.054599  0.103854  -0.495349  -0.347793  0.070407  3.469352  0.088
N  N130  1  0.46926708  0.60002862  0.40351363  1  -0.432657  0.088886  3.192341  0.111  -0.387835  0.062634  3.454441  0.082  -0.416151  0.051739  3.468095  0.073  -1.075461  0.100047  -0.491637  -0.371074  0.068159  3.446807  0.085
N  N131  1  0.53073393  0.39997087  0.59649100  1  -0.43276  0.08888  3.192468  0.111  -0.387878  0.062629  3.454604  0.082  -0.416198  0.051734  3.46827  0.073  -1.07549  0.100036  -0.491561  -0.371106  0.068152  3.446967  0.085
O  O132  1  0.13829476  0.18639115  0.18000976  1  -0.841972  -0.000145  1.481932  0.002  -0.844884  -0.000916  1.764244  0.001  -0.875956  -0.001205  1.752299  0.001  -0.930827  0.000166  -0.561588  -0.82462  -0.000588  1.772196  0.001
O  O133  1  0.86169589  0.81360738  0.81996382  1  -0.842072  -0.00012  1.481396  0.002  -0.844948  -0.000913  1.763714  0.001  -0.876077  -0.001207  1.751724  0.001  -0.930675  0.000167  -0.561612  -0.824689  -0.000587  1.771679  0.001
O  O134  1  0.44859198  0.21907852  0.25794624  1  -0.807911  0.000716  1.330556  0.001  -0.809377  -0.000212  1.57172  0.0  -0.833835  -0.000265  1.559605  0.0  -0.917332  0.000192  -0.57437  -0.793252  -2.6e-05  1.579971  0.0
O  O135  1  0.55140676  0.78094761  0.74201682  1  -0.808194  0.000726  1.330411  0.001  -0.809662  -0.000211  1.571674  0.0  -0.834173  -0.000264  1.559504  0.0  -0.917477  0.000193  -0.574545  -0.793529  -2.5e-05  1.579928  0.0
O  O136  1  0.23769566  0.03174251  0.27187713  1  -0.798269  0.000159  1.332524  0.001  -0.802998  -0.000567  1.56264  0.0  -0.826461  -0.000443  1.549085  0.0  -0.896174  -0.000428  -0.574168  -0.787529  -0.000591  1.571688  0.0
O  O137  1  0.76235344  0.96828742  0.72810741  1  -0.798383  0.00015  1.332409  0.0  -0.803048  -0.000568  1.562543  0.0  -0.826571  -0.000441  1.548953  0.0  -0.896195  -0.000427  -0.574094  -0.787579  -0.00059  1.571594  0.0
O  O138  1  0.30400559  0.28143980  0.39419755  1  -0.843806  -6.3e-05  1.428986  0.003  -0.853461  -0.001039  1.703391  0.001  -0.883078  -0.00133  1.68744  0.001  -0.925537  0.000113  -0.569414  -0.834377  -0.00069  1.713809  0.001
O  O139  1  0.69603767  0.71857872  0.60577810  1  -0.843916  -7.1e-05  1.428743  0.002  -0.853573  -0.001039  1.70316  0.001  -0.883246  -0.001329  1.687174  0.001  -0.925766  0.000113  -0.569461  -0.834488  -0.00069  1.713576  0.001
