# generated using pymatgen
data_CuH24C30(N2O3)2
_symmetry_space_group_name_H-M   'P 1'
_cell_length_a   8.40399250
_cell_length_b   15.27111106
_cell_length_c   24.35062292
_cell_angle_alpha   100.64240896
_cell_angle_beta   90.00645682
_cell_angle_gamma   90.00044809
_symmetry_Int_Tables_number   1
_chemical_formula_structural   CuH24C30(N2O3)2
_chemical_formula_sum   'Cu4 H96 C120 N16 O24'
_cell_volume   3071.36220988
_cell_formula_units_Z   4
loop_
 _symmetry_equiv_pos_site_id
 _symmetry_equiv_pos_as_xyz
  1  'x, y, z'
loop_
 _atom_site_type_symbol
 _atom_site_label
 _atom_site_symmetry_multiplicity
 _atom_site_fract_x
 _atom_site_fract_y
 _atom_site_fract_z
 _atom_site_occupancy
 _atom_site_pbe_bader_charge
 _atom_site_pbe_bader_spin_density
 _atom_site_pbe_cm5_charge
 _atom_site_pbe_ddec_charge
 _atom_site_pbe_ddec_spin_density
 _atom_site_pbe_ddec_sum_bond_order
 _atom_site_pbe_magmom
Cu  Cu0  1  0.80158273  0.70995514  0.74700047  1  1.053468  -0.566658  0.745428  0.780041  -0.755054  2.208795  -0.567
Cu  Cu1  1  0.30158683  0.29004268  0.75300695  1  1.053243  0.566688  0.74567  0.780025  0.755127  2.210178  0.567
Cu  Cu2  1  0.19841894  0.29002483  0.25300498  1  1.053617  0.566733  0.745829  0.780352  0.75518  2.210183  0.567
Cu  Cu3  1  0.69840175  0.70997149  0.24698578  1  1.053313  -0.566754  0.746056  0.780265  -0.755248  2.211793  -0.567
H  H4  1  0.66549729  0.81979849  0.96257318  1  0.115305  -5e-06  0.104296  0.109203  1.3e-05  1.003232  0.0
H  H5  1  0.16555279  0.18018354  0.53740266  1  0.115083  5e-06  0.104373  0.109482  -1.3e-05  1.00315  0.0
H  H6  1  0.33445441  0.18020742  0.03743949  1  0.114921  5e-06  0.104398  0.10948  -1.3e-05  1.003077  0.0
H  H7  1  0.83444649  0.81979686  0.46256916  1  0.114759  -5e-06  0.104369  0.109455  1.3e-05  1.003141  0.0
H  H8  1  0.78951116  0.89113410  0.05441728  1  0.079419  -0.000239  0.1047  0.103592  -0.000125  1.010326  0.0
H  H9  1  0.28947652  0.10888020  0.44558570  1  0.079597  0.000239  0.104761  0.103772  0.000124  1.010134  0.0
H  H10  1  0.21044054  0.10888970  0.94560536  1  0.080388  0.000239  0.104622  0.103622  0.000125  1.010432  0.0
H  H11  1  0.71056322  0.89109893  0.55438104  1  0.079562  -0.000239  0.104708  0.103669  -0.000124  1.01017  0.0
H  H12  1  0.24536442  0.88709130  0.97330181  1  0.05372  -2.9e-05  0.10335  0.096914  -1e-05  1.000125  0.0
H  H13  1  0.74538002  0.11294402  0.52674229  1  0.053232  2.9e-05  0.103326  0.096879  1e-05  1.000316  0.0
H  H14  1  0.75460275  0.11291995  0.02671110  1  0.053539  2.8e-05  0.103269  0.096738  1e-05  1.000378  0.0
H  H15  1  0.25464783  0.88705677  0.47325293  1  0.053372  -2.8e-05  0.10335  0.096864  -1e-05  1.000553  0.0
H  H16  1  0.12011877  0.81661346  0.88230956  1  0.114539  -0.000441  0.108836  0.119379  -0.000366  0.994071  0.0
H  H17  1  0.62026490  0.18338447  0.61772333  1  0.113125  0.000442  0.108916  0.119518  0.000365  0.993368  0.0
H  H18  1  0.87981032  0.18338107  0.11770585  1  0.113394  0.000442  0.10886  0.119423  0.000365  0.99376  0.0
H  H19  1  0.37968560  0.81661240  0.38226567  1  0.112608  -0.000441  0.109005  0.119647  -0.000365  0.99343  0.0
H  H20  1  0.22921404  0.94891433  0.06922454  1  0.034131  -4e-06  0.096129  0.024662  -7e-06  0.968153  0.0
H  H21  1  0.72920953  0.05113682  0.43081342  1  0.033733  4e-06  0.096012  0.024465  7e-06  0.968333  0.0
H  H22  1  0.77074718  0.05109902  0.93078001  1  0.033632  4e-06  0.09608  0.024549  7e-06  0.968292  0.0
H  H23  1  0.27083616  0.94887803  0.56917816  1  0.034262  -4e-06  0.095829  0.024145  -7e-06  0.968405  0.0
H  H24  1  0.43458084  0.70309293  0.63353441  1  0.101959  -0.000347  0.101506  0.107228  -0.000336  1.046228  0.0
H  H25  1  0.93445758  0.29687940  0.86644458  1  0.101944  0.000346  0.101718  0.107588  0.000336  1.046101  0.0
H  H26  1  0.56544343  0.29689250  0.36646142  1  0.102345  0.000345  0.101555  0.107343  0.000336  1.046137  0.0
H  H27  1  0.06556908  0.70314658  0.13356354  1  0.102171  -0.000345  0.101658  0.107365  -0.000335  1.046204  0.0
H  H28  1  0.24438351  0.68903548  0.55362710  1  0.076072  -4.2e-05  0.104969  0.102609  -1.4e-05  1.00332  0.0
H  H29  1  0.74437137  0.31094753  0.94633225  1  0.06104  4.2e-05  0.104997  0.102529  1.4e-05  1.00319  0.0
H  H30  1  0.75560626  0.31097591  0.44637433  1  0.076179  4.2e-05  0.104903  0.102515  1.4e-05  1.003374  0.0
H  H31  1  0.25560888  0.68906854  0.05366810  1  0.060972  -4.2e-05  0.105004  0.102512  -1.4e-05  1.003207  0.0
H  H32  1  0.61400324  0.57033435  0.44118494  1  0.078787  -0.000261  0.108945  0.11049  -0.000135  0.995431  0.0
H  H33  1  0.11408931  0.42966525  0.05880147  1  0.079451  0.000262  0.109002  0.110561  0.000135  0.995222  0.0
H  H34  1  0.38596392  0.42965253  0.55880203  1  0.079296  0.000262  0.108963  0.110434  0.000135  0.995466  0.0
H  H35  1  0.88587786  0.57035194  0.94121626  1  0.079837  -0.000262  0.108875  0.110234  -0.000135  0.995703  0.0
H  H36  1  0.80577167  0.58696865  0.52221745  1  0.088821  -2.3e-05  0.106179  0.111003  1.1e-05  0.995216  0.0
H  H37  1  0.30576178  0.41304771  0.97780246  1  0.088775  2.3e-05  0.106205  0.111146  -1.1e-05  0.995045  0.0
H  H38  1  0.19421453  0.41300683  0.47777472  1  0.088283  2.3e-05  0.106185  0.111035  -1.1e-05  0.995292  0.0
H  H39  1  0.69422919  0.58697420  0.02221133  1  0.088692  -2.3e-05  0.106235  0.111124  1.1e-05  0.995124  0.0
H  H40  1  0.18191524  0.64504277  0.45844465  1  0.044816  4e-06  0.101437  0.034789  5e-06  0.958762  0.0
H  H41  1  0.68194849  0.35492917  0.04152061  1  0.044719  -4e-06  0.101369  0.034573  -4e-06  0.958727  0.0
H  H42  1  0.81808524  0.35498799  0.54155542  1  0.045246  -4e-06  0.101486  0.034874  -5e-06  0.958619  0.0
H  H43  1  0.31804723  0.64505551  0.95848293  1  0.044837  4e-06  0.101306  0.034523  4e-06  0.958587  0.0
H  H44  1  0.94180564  0.90117838  0.79821787  1  0.188362  -0.000212  0.139759  0.118322  -2.8e-05  1.009923  0.0
H  H45  1  0.44178302  0.09884956  0.70179696  1  0.188446  0.000213  0.139711  0.118237  2.9e-05  1.010097  0.0
H  H46  1  0.05820079  0.09881312  0.20177376  1  0.188102  0.000213  0.139716  0.118283  2.9e-05  1.009889  0.0
H  H47  1  0.55820319  0.90115637  0.29821407  1  0.188202  -0.000213  0.139767  0.118226  -2.9e-05  1.01001  0.0
H  H48  1  0.80769045  0.98672068  0.64918367  1  0.098292  -0.001085  0.12587  0.129203  -0.000555  0.996478  -0.001
H  H49  1  0.30768163  0.01331208  0.85080536  1  0.097237  0.001085  0.125942  0.129251  0.000555  0.996387  0.001
H  H50  1  0.19228861  0.01329676  0.35081439  1  0.097607  0.001087  0.125882  0.129235  0.000555  0.996376  0.001
H  H51  1  0.69228196  0.98667189  0.14920097  1  0.096828  -0.001087  0.12605  0.129512  -0.000555  0.996234  -0.001
H  H52  1  0.70189831  0.81378235  0.64550384  1  0.134159  -0.000627  0.120718  0.114298  -0.000248  1.027895  0.0
H  H53  1  0.20191480  0.18621979  0.85446900  1  0.134782  0.000627  0.120741  0.114538  0.000248  1.027546  0.0
H  H54  1  0.29812477  0.18621310  0.35449197  1  0.134506  0.000627  0.120767  0.114433  0.000248  1.027719  0.0
H  H55  1  0.79809283  0.81378552  0.14553867  1  0.134678  -0.000628  0.120706  0.114489  -0.000248  1.027564  0.0
H  H56  1  0.06600365  0.06254656  0.71819675  1  0.072137  -0.000159  0.111968  0.098746  -8.8e-05  0.981262  0.0
H  H57  1  0.56602556  0.93749806  0.78183163  1  0.071498  0.00016  0.11183  0.098702  8.8e-05  0.980888  0.0
H  H58  1  0.93400160  0.93745873  0.28181174  1  0.072032  0.00016  0.111941  0.098613  8.8e-05  0.981381  0.0
H  H59  1  0.43397015  0.06249541  0.21816189  1  0.071316  -0.00016  0.111818  0.098676  -8.8e-05  0.980916  0.0
H  H60  1  0.03948937  0.04446609  0.78754968  1  0.113849  -7e-06  0.113492  0.102567  -7e-06  1.031084  0.0
H  H61  1  0.53942223  0.95555856  0.71247307  1  0.114073  7e-06  0.113476  0.102549  7e-06  1.03135  0.0
H  H62  1  0.96049564  0.95552455  0.21245664  1  0.113759  7e-06  0.113495  0.102533  7e-06  1.031079  0.0
H  H63  1  0.46054493  0.04445023  0.28752271  1  0.114516  -7e-06  0.11351  0.10267  -7e-06  1.031112  0.0
H  H64  1  0.98015590  0.19612888  0.69920554  1  0.103738  -0.00013  0.096076  0.108297  -0.000114  1.074393  0.0
H  H65  1  0.48021412  0.80387235  0.80081502  1  0.103264  0.00013  0.095878  0.10799  0.000114  1.074547  0.0
H  H66  1  0.01984339  0.80384985  0.30079318  1  0.104055  0.00013  0.096056  0.108257  0.000114  1.074443  0.0
H  H67  1  0.51978398  0.19613977  0.19918198  1  0.103247  -0.000131  0.095852  0.107938  -0.000114  1.074566  0.0
H  H68  1  0.61328653  0.34816338  0.79782485  1  0.089092  -0.000194  0.10147  0.102623  -0.000148  1.032217  0.0
H  H69  1  0.11322157  0.65182989  0.70215411  1  0.089421  0.000194  0.101424  0.102555  0.000148  1.032259  0.0
H  H70  1  0.38672704  0.65183814  0.20216594  1  0.089327  0.000194  0.101469  0.102504  0.000148  1.03236  0.0
H  H71  1  0.88677891  0.34816944  0.29785121  1  0.08944  -0.000194  0.101432  0.102563  -0.000148  1.032331  0.0
H  H72  1  0.57656199  0.22797581  0.85035044  1  0.099892  -3.6e-05  0.097008  0.10078  -2.7e-05  1.024642  0.0
H  H73  1  0.07647626  0.77201549  0.64962221  1  0.099176  3.6e-05  0.09695  0.100663  2.7e-05  1.024492  0.0
H  H74  1  0.42342897  0.77203695  0.14964828  1  0.099644  3.6e-05  0.097  0.100789  2.7e-05  1.02458  0.0
H  H75  1  0.92350280  0.22797787  0.35037992  1  0.099303  -3.6e-05  0.096904  0.100601  -2.7e-05  1.024478  0.0
H  H76  1  0.74052395  0.08850223  0.82838936  1  0.036241  -1.3e-05  0.093675  0.094174  -3e-06  1.030108  0.0
H  H77  1  0.24048223  0.91149703  0.67160400  1  0.035479  1.4e-05  0.093677  0.094111  3e-06  1.029979  0.0
H  H78  1  0.25946582  0.91150772  0.17162052  1  0.036829  1.3e-05  0.093656  0.094138  3e-06  1.030156  0.0
H  H79  1  0.75948731  0.08850041  0.32839205  1  0.036439  -1.3e-05  0.093651  0.09408  -3e-06  1.029992  0.0
H  H80  1  0.93449685  0.33497350  0.68463870  1  0.101022  3.6e-05  0.115565  0.11475  1.2e-05  0.972607  0.0
H  H81  1  0.43452730  0.66501040  0.81537495  1  0.10075  -3.6e-05  0.115606  0.114935  -1.3e-05  0.972417  0.0
H  H82  1  0.06553457  0.66499196  0.31535390  1  0.101476  -3.6e-05  0.115631  0.114908  -1.3e-05  0.97265  0.0
H  H83  1  0.56549936  0.33502166  0.18462774  1  0.101484  3.6e-05  0.11567  0.114943  1.3e-05  0.972474  0.0
H  H84  1  0.72614422  0.34999923  0.67922547  1  0.127143  5.5e-05  0.116945  0.109513  4.4e-05  1.001737  0.0
H  H85  1  0.22617798  0.64997613  0.82075682  1  0.126928  -5.4e-05  0.117049  0.109627  -4.4e-05  1.002062  0.0
H  H86  1  0.27389076  0.64998628  0.32076503  1  0.127101  -5.5e-05  0.116984  0.109534  -4.4e-05  1.00165  0.0
H  H87  1  0.77385344  0.35002787  0.17924865  1  0.12606  5.4e-05  0.117029  0.109619  4.4e-05  1.002017  0.0
H  H88  1  0.73982818  0.51172482  0.68097301  1  0.197686  -0.000311  0.135888  0.111267  -4.8e-05  1.049624  0.0
H  H89  1  0.23982032  0.48825318  0.81901285  1  0.197629  0.000312  0.135908  0.11098  4.8e-05  1.04995  0.0
H  H90  1  0.26019848  0.48825310  0.31903670  1  0.197265  0.000312  0.135874  0.111118  4.8e-05  1.049508  0.0
H  H91  1  0.76019444  0.51176309  0.18097191  1  0.197418  -0.000312  0.135945  0.111096  -4.8e-05  1.049651  0.0
H  H92  1  0.93341497  0.60431588  0.84152075  1  0.131441  -0.000686  0.113963  0.111528  -0.00028  1.047119  -0.001
H  H93  1  0.43339119  0.39566795  0.65849905  1  0.130956  0.000687  0.113932  0.111558  0.00028  1.047185  0.001
H  H94  1  0.06664500  0.39564151  0.15847704  1  0.13038  0.000686  0.113908  0.111704  0.00028  1.04697  0.001
H  H95  1  0.56667355  0.60436417  0.34149913  1  0.130824  -0.000687  0.113794  0.111522  -0.00028  1.047222  -0.001
H  H96  1  0.94755534  0.41956751  0.81764242  1  0.194342  -0.000909  0.120997  0.129391  -0.000323  1.048215  -0.001
H  H97  1  0.44752667  0.58039567  0.68237568  1  0.194476  0.000909  0.121137  0.129499  0.000323  1.048067  0.001
H  H98  1  0.05254628  0.58037664  0.18234638  1  0.162315  0.000939  0.120921  0.129195  0.000324  1.0481  0.001
H  H99  1  0.55259162  0.41964899  0.31763305  1  0.161072  -0.000939  0.120974  0.129295  -0.000324  1.048316  -0.001
C  C100  1  0.80544071  0.77719019  0.86251845  1  1.535453  0.000866  0.195419  0.546011  -0.000665  4.242714  0.002
C  C101  1  0.30549183  0.22281220  0.63749731  1  1.535984  -0.000865  0.195073  0.54572  0.000665  4.242756  -0.002
C  C102  1  0.19458001  0.22281560  0.13750324  1  1.536397  -0.000863  0.195638  0.546103  0.000667  4.242439  -0.002
C  C103  1  0.69454315  0.77716552  0.36247542  1  1.536742  0.000863  0.195491  0.546691  -0.000665  4.241738  0.002
C  C104  1  0.88540492  0.81534244  0.91742413  1  0.017741  -0.009959  -0.002897  0.001419  -0.007081  3.910068  -0.008
C  C105  1  0.38546232  0.18465927  0.58260081  1  0.017669  0.009957  -0.002929  0.001744  0.007079  3.90949  0.008
C  C106  1  0.11456345  0.18466658  0.08260576  1  0.017389  0.009956  -0.002902  0.001649  0.007079  3.910198  0.008
C  C107  1  0.61453696  0.81532052  0.41736641  1  0.016897  -0.009954  -0.002943  0.001345  -0.007078  3.910221  -0.008
C  C108  1  0.79206821  0.83549588  0.96599916  1  -0.024853  -0.000777  -0.080459  -0.097312  -0.000542  3.972446  -0.001
C  C109  1  0.29212346  0.16450056  0.53401140  1  -0.023167  0.000775  -0.08053  -0.097656  0.000542  3.972368  0.001
C  C110  1  0.20787992  0.16451455  0.03402515  1  -0.023012  0.000776  -0.080494  -0.097689  0.000543  3.972866  0.001
C  C111  1  0.70787582  0.83547989  0.46595673  1  -0.022763  -0.000775  -0.080407  -0.097498  -0.000542  3.973018  -0.001
C  C112  1  0.86045378  0.87468540  0.01643540  1  -0.068137  -0.000916  -0.076499  -0.089563  -0.000607  3.956542  -0.001
C  C113  1  0.36045573  0.12531763  0.48356893  1  -0.068794  0.000916  -0.076507  -0.089686  0.000607  3.956561  0.001
C  C114  1  0.13949911  0.12533107  0.98358594  1  -0.069015  0.000916  -0.076661  -0.089762  0.000607  3.956977  0.001
C  C115  1  0.63956734  0.87466678  0.51640255  1  -0.068125  -0.000916  -0.076593  -0.089526  -0.000607  3.956811  -0.001
C  C116  1  0.02408932  0.89423391  0.01911181  1  0.012949  0.000582  -0.024822  6.8e-05  0.000393  4.049688  0.0
C  C117  1  0.52409590  0.10578381  0.48091026  1  0.013877  -0.000582  -0.02501  -0.000348  -0.000393  4.050706  0.0
C  C118  1  0.97586833  0.10577998  0.98090306  1  0.013881  -0.000582  -0.024785  -0.000114  -0.000393  4.050303  0.0
C  C119  1  0.47593552  0.89421180  0.51907325  1  0.013767  0.000583  -0.024854  -0.000436  0.000393  4.050641  0.0
C  C120  1  0.11814891  0.87206035  0.97089134  1  -0.10374  -8.8e-05  -0.07863  -0.105889  -2e-06  3.984889  0.0
C  C121  1  0.61816526  0.12795895  0.52914044  1  -0.103186  8.9e-05  -0.078275  -0.105547  2e-06  3.985296  0.0
C  C122  1  0.88181826  0.12795085  0.02912567  1  -0.104109  8.9e-05  -0.078335  -0.105384  2e-06  3.985092  0.0
C  C123  1  0.38185901  0.87203663  0.47084512  1  -0.102985  -8.9e-05  -0.078291  -0.10525  -2e-06  3.985335  0.0
C  C124  1  0.04925825  0.83295347  0.92028531  1  -0.03823  0.000202  -0.081056  -0.090457  6.9e-05  3.952675  0.0
C  C125  1  0.54933090  0.16705629  0.57975451  1  -0.038778  -0.000204  -0.081249  -0.090736  -7e-05  3.951583  0.0
C  C126  1  0.95070178  0.16705232  0.07973680  1  -0.038464  -0.000204  -0.081211  -0.090768  -7.1e-05  3.952078  0.0
C  C127  1  0.45066719  0.83293336  0.42022499  1  -0.03938  0.000206  -0.08139  -0.091029  7.2e-05  3.951406  0.0
C  C128  1  0.09740823  0.94005266  0.07127693  1  0.914321  9.4e-05  0.099454  0.272712  5.6e-05  3.986521  0.0
C  C129  1  0.59737873  0.05997258  0.42873808  1  0.915599  -9.4e-05  0.099748  0.273133  -5.6e-05  3.987577  0.0
C  C130  1  0.90255299  0.05996063  0.92873253  1  0.914623  -9.4e-05  0.099754  0.273197  -5.6e-05  3.986269  0.0
C  C131  1  0.40266696  0.94002830  0.57125017  1  0.916746  9.4e-05  0.099712  0.273288  5.6e-05  3.987414  0.0
C  C132  1  0.74533635  0.65237736  0.63056446  1  1.553643  0.000606  0.193587  0.537951  -0.00088  4.256005  0.003
C  C133  1  0.24533906  0.34760514  0.86943549  1  1.552534  -0.000607  0.193593  0.538046  0.000878  4.255279  -0.003
C  C134  1  0.25459988  0.34759340  0.36943125  1  1.552638  -0.000599  0.193693  0.538193  0.000881  4.255824  -0.003
C  C135  1  0.75460074  0.65242019  0.13057173  1  1.552004  0.000604  0.193623  0.538035  -0.00088  4.255235  0.003
C  C136  1  0.63033421  0.64469196  0.58226320  1  -0.029204  -0.010722  -0.006177  -0.004352  -0.007652  3.924503  -0.008
C  C137  1  0.13030172  0.35531730  0.91771929  1  -0.027316  0.010723  -0.006313  -0.004384  0.007653  3.924419  0.008
C  C138  1  0.36964961  0.35530229  0.41772137  1  -0.028446  0.010722  -0.006236  -0.004404  0.007654  3.924468  0.008
C  C139  1  0.86968568  0.64469387  0.08229977  1  -0.025989  -0.01072  -0.006249  -0.004336  -0.007652  3.924387  -0.008
C  C140  1  0.47297786  0.67436770  0.59136783  1  -0.007226  -0.000604  -0.086161  -0.100479  -0.000504  3.956024  0.0
C  C141  1  0.97293235  0.32562948  0.90860298  1  -0.008616  0.000599  -0.086338  -0.101186  0.0005  3.956548  0.0
C  C142  1  0.52701667  0.32563248  0.40862281  1  -0.00842  0.000601  -0.086164  -0.100658  0.0005  3.95592  0.0
C  C143  1  0.02706218  0.67438243  0.09141042  1  -0.01085  -0.000595  -0.086369  -0.101127  -0.000497  3.956429  0.0
C  C144  1  0.36760927  0.66686172  0.54670957  1  -0.070659  -0.000354  -0.077162  -0.099012  -0.000182  3.967333  0.0
C  C145  1  0.86759276  0.33313330  0.95326327  1  -0.056436  0.000353  -0.077405  -0.098806  0.000182  3.967007  0.0
C  C146  1  0.63237693  0.33314374  0.45328621  1  -0.070366  0.000354  -0.077117  -0.098869  0.000182  3.967223  0.0
C  C147  1  0.13238869  0.66688002  0.04674414  1  -0.055648  -0.000353  -0.077226  -0.098516  -0.000182  3.967043  0.0
C  C148  1  0.41860336  0.62897409  0.49267674  1  -0.023392  -0.000331  -0.023941  -0.000939  -0.000206  4.053384  0.0
C  C149  1  0.91862586  0.37102071  0.00729896  1  -0.022915  0.000326  -0.023861  -0.001118  0.000203  4.053396  0.0
C  C150  1  0.58138403  0.37102869  0.50731955  1  -0.023334  0.000327  -0.024008  -0.001083  0.000204  4.053515  0.0
C  C151  1  0.08135796  0.62898994  0.99270813  1  -0.022855  -0.000323  -0.024088  -0.001525  -0.000201  4.053312  0.0
C  C152  1  0.57701869  0.60007545  0.48343710  1  -0.031094  -0.000703  -0.072599  -0.081558  -0.000479  3.942056  -0.001
C  C153  1  0.07704596  0.39992941  0.01655168  1  -0.031426  0.000704  -0.072714  -0.081474  0.00048  3.941492  0.001
C  C154  1  0.42296156  0.39991675  0.51655175  1  -0.031314  0.000704  -0.072616  -0.08127  0.00048  3.94194  0.001
C  C155  1  0.92293549  0.60008447  0.98346361  1  -0.031886  -0.000704  -0.072429  -0.080753  -0.00048  3.941451  -0.001
C  C156  1  0.68225993  0.60855717  0.52797732  1  -0.046134  -0.001581  -0.079672  -0.096043  -0.001025  3.967058  -0.001
C  C157  1  0.18225877  0.39145609  0.97201087  1  -0.046977  0.001578  -0.079674  -0.0963  0.001023  3.966773  0.001
C  C158  1  0.31772984  0.39143306  0.47200882  1  -0.045875  0.00158  -0.079746  -0.096324  0.001025  3.967261  0.001
C  C159  1  0.81773458  0.60855642  0.02800753  1  -0.046664  -0.001578  -0.079881  -0.096541  -0.001024  3.966844  -0.001
C  C160  1  0.30350083  0.61836098  0.44671844  1  0.936228  -0.000121  0.100881  0.267159  -7.7e-05  3.989297  0.0
C  C161  1  0.80355684  0.38162501  0.05325645  1  0.936719  0.00012  0.101226  0.267805  7.6e-05  3.989714  0.0
C  C162  1  0.69649132  0.38165646  0.55327961  1  0.936052  0.000121  0.100933  0.267239  7.7e-05  3.989157  0.0
C  C163  1  0.19643175  0.61836698  0.94674921  1  0.936922  -0.000121  0.101294  0.267887  -7.7e-05  3.989098  0.0
C  C164  1  0.88941679  0.89935386  0.75739561  1  0.960544  0.001464  0.145602  0.093888  0.000484  3.908239  0.0
C  C165  1  0.38940380  0.10066882  0.74260763  1  0.960119  -0.001465  0.145585  0.093941  -0.000482  3.908533  0.0
C  C166  1  0.11058130  0.10064627  0.24259872  1  0.960925  -0.001465  0.145634  0.093912  -0.000484  3.908169  -0.001
C  C167  1  0.61057884  0.89932978  0.25740253  1  0.960433  0.001465  0.145761  0.094419  0.000482  3.907828  0.0
C  C168  1  0.82242493  0.94178602  0.67842732  1  0.269269  -0.003013  0.000991  -0.118336  -0.002029  3.932052  -0.002
C  C169  1  0.32243433  0.05823937  0.82156612  1  0.271353  0.003015  0.001055  -0.118217  0.00203  3.932664  0.002
C  C170  1  0.17756484  0.05822543  0.32156959  1  0.270532  0.003015  0.001038  -0.118271  0.002031  3.931994  0.002
C  C171  1  0.67754354  0.94175058  0.17844217  1  0.271659  -0.003017  0.001036  -0.118454  -0.002032  3.93275  -0.002
C  C172  1  0.77039361  0.85625807  0.67737733  1  0.457766  -0.001058  0.003851  -0.019654  -0.001387  3.998439  -0.001
C  C173  1  0.27041630  0.14376203  0.82260656  1  0.457583  0.001051  0.003618  -0.020179  0.001384  3.99941  0.001
C  C174  1  0.22960925  0.14374806  0.32261771  1  0.456803  0.00106  0.003706  -0.01995  0.001387  3.998806  0.001
C  C175  1  0.72957467  0.85623259  0.17740188  1  0.456291  -0.001057  0.003652  -0.020002  -0.001384  3.999428  -0.001
C  C176  1  0.97680256  0.05260904  0.74940006  1  0.271259  -0.000991  -0.050942  -0.117499  -0.000762  3.898644  -0.001
C  C177  1  0.47678379  0.94741820  0.75062078  1  0.272065  0.000992  -0.05088  -0.117465  0.000763  3.898704  0.001
C  C178  1  0.02319674  0.94739028  0.25060567  1  0.271623  0.000993  -0.050944  -0.117261  0.000764  3.898585  0.001
C  C179  1  0.52320241  0.05258256  0.24937690  1  0.27103  -0.000994  -0.050914  -0.117476  -0.000764  3.898694  -0.001
C  C180  1  0.86823883  0.13235760  0.76139957  1  -0.006038  2.3e-05  -0.020604  0.095918  2.9e-05  3.988726  0.0
C  C181  1  0.36822095  0.86765161  0.73861154  1  -0.006246  -2.3e-05  -0.020462  0.096072  -2.9e-05  3.988142  0.0
C  C182  1  0.13176165  0.86763904  0.23860707  1  -0.006303  -2.2e-05  -0.020631  0.095769  -2.9e-05  3.988694  0.0
C  C183  1  0.63176406  0.13235251  0.26138491  1  -0.005912  2.3e-05  -0.020473  0.095909  2.9e-05  3.988142  0.0
C  C184  1  0.88882574  0.20137487  0.73162134  1  -0.102482  -0.000171  -0.096769  -0.203164  -0.000159  3.946744  0.0
C  C185  1  0.38885254  0.79862566  0.76839196  1  -0.10211  0.000171  -0.09657  -0.202814  0.000159  3.945682  0.0
C  C186  1  0.11117593  0.79861052  0.26837778  1  -0.102431  0.000171  -0.096728  -0.203009  0.000159  3.946514  0.0
C  C187  1  0.61113842  0.20138508  0.23160775  1  -0.102146  -0.000171  -0.096531  -0.202644  -0.000159  3.945547  0.0
C  C188  1  0.79795605  0.27930985  0.74387640  1  0.00655  -8.8e-05  -0.008313  0.113763  -5.4e-05  3.966267  0.0
C  C189  1  0.29795862  0.72068145  0.75611874  1  0.006729  8.8e-05  -0.00819  0.113929  5.4e-05  3.965527  0.0
C  C190  1  0.20204562  0.72067296  0.25611624  1  0.006195  8.9e-05  -0.008178  0.113891  5.5e-05  3.966395  0.0
C  C191  1  0.70202997  0.27933189  0.24388662  1  0.006811  -8.8e-05  -0.008104  0.113822  -5.4e-05  3.965423  0.0
C  C192  1  0.68515634  0.28796123  0.78681187  1  0.006524  -0.001283  -0.091077  -0.146126  -0.000923  3.970693  -0.001
C  C193  1  0.18512033  0.71203268  0.71317686  1  0.006955  0.001282  -0.091117  -0.146072  0.000922  3.97004  0.001
C  C194  1  0.31484652  0.71203558  0.21318164  1  0.006457  0.001283  -0.091069  -0.145908  0.000923  3.970992  0.001
C  C195  1  0.81486706  0.28797132  0.28682902  1  0.006916  -0.001283  -0.091185  -0.146047  -0.000922  3.970035  -0.001
C  C196  1  0.66475281  0.21932132  0.81698428  1  -0.074173  3e-05  -0.093444  -0.069891  -5e-06  4.031351  0.0
C  C197  1  0.16469208  0.78067398  0.68299727  1  -0.074471  -3e-05  -0.093415  -0.069948  5e-06  4.030575  0.0
C  C198  1  0.33524172  0.78068342  0.18301470  1  -0.074115  -2.9e-05  -0.093494  -0.070076  6e-06  4.03167  0.0
C  C199  1  0.83528698  0.21932605  0.31700525  1  -0.074766  3e-05  -0.093343  -0.070006  -6e-06  4.030537  0.0
C  C200  1  0.75515594  0.14161503  0.80437569  1  -0.092452  -0.001122  -0.101148  -0.149314  -0.000737  3.985346  -0.001
C  C201  1  0.25512086  0.85838218  0.69562231  1  -0.091629  0.001122  -0.101202  -0.149207  0.000737  3.98506  0.001
C  C202  1  0.24483859  0.85838831  0.19562929  1  -0.092836  0.001122  -0.101135  -0.149185  0.000737  3.985517  0.001
C  C203  1  0.74485463  0.14161923  0.30437668  1  -0.09221  -0.001122  -0.101187  -0.149049  -0.000737  3.985031  -0.001
C  C204  1  0.82432542  0.34973513  0.70898626  1  0.264224  -0.001008  -0.042807  -0.11322  -0.000803  3.861947  -0.001
C  C205  1  0.32434275  0.65024552  0.79101000  1  0.26494  0.001008  -0.043007  -0.113729  0.000803  3.862457  0.001
C  C206  1  0.17570481  0.65023769  0.29100477  1  0.26396  0.001009  -0.042937  -0.113536  0.000804  3.862196  0.001
C  C207  1  0.67568391  0.34977385  0.20899403  1  0.26482  -0.001009  -0.043071  -0.113747  -0.000804  3.862289  -0.001
C  C208  1  0.79140911  0.51428646  0.72186571  1  0.968051  0.001476  0.142032  0.098275  0.000291  3.895166  0.0
C  C209  1  0.29138799  0.48568949  0.77812923  1  0.968523  -0.001477  0.142162  0.098747  -0.000292  3.89527  0.0
C  C210  1  0.20863302  0.48568218  0.27813919  1  0.967812  -0.001478  0.142218  0.09855  -0.000292  3.894755  0.0
C  C211  1  0.70864819  0.51433473  0.22186060  1  0.966521  0.001467  0.142089  0.098519  0.000293  3.894962  0.0
C  C212  1  0.89200525  0.55842401  0.80513987  1  0.407969  -0.001735  -0.010957  -0.039529  -0.001966  4.008807  -0.002
C  C213  1  0.39197361  0.44154781  0.69487530  1  0.408445  0.001731  -0.011126  -0.040271  0.001965  4.009463  0.002
C  C214  1  0.10806067  0.44152933  0.19486072  1  0.408257  0.001734  -0.011063  -0.040371  0.001965  4.009188  0.002
C  C215  1  0.60809113  0.55848902  0.30512016  1  0.40693  -0.001735  -0.01117  -0.040679  -0.001964  4.009296  -0.002
C  C216  1  0.89885922  0.46708965  0.79421402  1  0.249073  -0.003571  -0.000758  -0.102328  -0.002451  3.904563  -0.003
C  C217  1  0.39882860  0.53288154  0.70579941  1  0.250174  0.003571  -0.000992  -0.102268  0.002452  3.904766  0.003
C  C218  1  0.10121265  0.53286240  0.20578354  1  0.283466  0.003542  -0.000834  -0.102126  0.002452  3.904733  0.003
C  C219  1  0.60124685  0.46715724  0.29419957  1  0.285178  -0.003542  -0.000632  -0.101866  -0.002453  3.904856  -0.003
N  N220  1  0.81283742  0.83045194  0.72690662  1  -1.200274  -0.070866  -0.378059  -0.304875  -0.049295  3.642209  -0.062
N  N221  1  0.31283929  0.16956679  0.77308522  1  -1.201243  0.070911  -0.377841  -0.304463  0.049322  3.643067  0.062
N  N222  1  0.18716900  0.16954487  0.27308689  1  -1.200424  0.070929  -0.378054  -0.304741  0.049339  3.64271  0.062
N  N223  1  0.68715048  0.83043516  0.22692451  1  -1.199918  -0.07097  -0.378103  -0.304839  -0.049366  3.643347  -0.062
N  N224  1  0.89655831  0.96789819  0.72939526  1  -1.23275  -0.002128  -0.241007  0.052371  -0.001335  3.794374  -0.002
N  N225  1  0.39654597  0.03212582  0.77060935  1  -1.233042  0.00213  -0.241202  0.052169  0.001337  3.795597  0.002
N  N226  1  0.10343265  0.03210658  0.27060249  1  -1.232938  0.002131  -0.24106  0.052219  0.001337  3.79445  0.002
N  N227  1  0.60343309  0.96786949  0.22939712  1  -1.232652  -0.002132  -0.241338  0.051864  -0.001339  3.795703  -0.002
N  N228  1  0.83406726  0.44051503  0.74156235  1  -1.243069  -0.002254  -0.235347  0.062357  -0.001389  3.739749  -0.002
N  N229  1  0.33404642  0.55946159  0.75843668  1  -1.243396  0.002252  -0.235405  0.062187  0.001388  3.739879  0.002
N  N230  1  0.16598676  0.55944970  0.25843509  1  -1.243391  0.002254  -0.235424  0.062393  0.001389  3.739275  0.002
N  N231  1  0.66600760  0.44056587  0.24156052  1  -1.243292  -0.002253  -0.23545  0.062597  -0.001389  3.739559  -0.002
N  N232  1  0.82507327  0.58716011  0.75962195  1  -1.207272  -0.084467  -0.384517  -0.302942  -0.058235  3.657528  -0.073
N  N233  1  0.32504421  0.41281510  0.74038186  1  -1.208727  0.084464  -0.384397  -0.302297  0.058231  3.657694  0.073
N  N234  1  0.17497600  0.41280583  0.24038508  1  -1.207731  0.084491  -0.384319  -0.302298  0.058252  3.657464  0.073
N  N235  1  0.67499791  0.58721113  0.25960698  1  -1.206234  -0.084479  -0.384328  -0.302102  -0.058253  3.657522  -0.073
O  O236  1  0.90240054  0.75753143  0.82056575  1  -1.116323  -0.109104  -0.327279  -0.543342  -0.072361  2.350394  -0.099
O  O237  1  0.40241842  0.24250817  0.67947317  1  -1.116786  0.109085  -0.327146  -0.543202  0.072356  2.350517  0.099
O  O238  1  0.09765587  0.24248829  0.17946297  1  -1.116836  0.109028  -0.327506  -0.543431  0.072316  2.350838  0.099
O  O239  1  0.59763678  0.75746760  0.32049562  1  -1.117226  -0.109012  -0.327426  -0.543572  -0.072314  2.351165  -0.099
O  O240  1  0.65761855  0.76833570  0.86057952  1  -1.147291  -1.4e-05  -0.329789  -0.561541  0.000293  2.132319  -0.001
O  O241  1  0.15765331  0.23163297  0.63939678  1  -1.147273  1.1e-05  -0.329596  -0.561537  -0.000295  2.132168  0.001
O  O242  1  0.34240573  0.23165497  0.13942475  1  -1.147742  9e-06  -0.329803  -0.561587  -0.000297  2.132379  0.001
O  O243  1  0.84238287  0.76834725  0.36058898  1  -1.147251  -6e-06  -0.329764  -0.561886  0.000299  2.131641  -0.001
O  O244  1  0.02473270  0.96885832  0.11473129  1  -1.108321  0.000242  -0.258947  -0.373585  0.000152  2.194049  0.0
O  O245  1  0.52472929  0.03116083  0.38528315  1  -1.109223  -0.000241  -0.259252  -0.373825  -0.000152  2.194717  0.0
O  O246  1  0.97522733  0.03115163  0.88527818  1  -1.108336  -0.000242  -0.259239  -0.37391  -0.000152  2.193588  0.0
O  O247  1  0.47531402  0.96883470  0.61470651  1  -1.110214  0.000242  -0.259229  -0.373884  0.000152  2.194888  0.0
O  O248  1  0.67513028  0.66948663  0.67913983  1  -1.107359  -0.122201  -0.330577  -0.55073  -0.08098  2.38817  -0.111
O  O249  1  0.17515470  0.33044463  0.82084178  1  -1.106991  0.122198  -0.330665  -0.550936  0.080958  2.388062  0.111
O  O250  1  0.32477738  0.33044077  0.32085517  1  -1.107273  0.122142  -0.330881  -0.551218  0.080937  2.388965  0.111
O  O251  1  0.82475892  0.66961805  0.17916707  1  -1.10705  -0.122141  -0.330741  -0.551132  -0.080913  2.388972  -0.111
O  O252  1  0.89113437  0.64409728  0.62216919  1  -1.169711  -0.002328  -0.326478  -0.543389  -0.001212  2.10316  -0.002
O  O253  1  0.39112507  0.35590694  0.87786878  1  -1.169161  0.002314  -0.326356  -0.543259  0.001204  2.103063  0.002
O  O254  1  0.10881137  0.35589798  0.37784097  1  -1.16956  0.002316  -0.326393  -0.543287  0.001205  2.103179  0.002
O  O255  1  0.60882424  0.64409054  0.12212441  1  -1.169468  -0.002303  -0.326504  -0.543315  -0.001197  2.102872  -0.002
O  O256  1  0.33270478  0.58257304  0.39823790  1  -1.109738  -0.000271  -0.251986  -0.362098  -0.000177  2.220645  0.0
O  O257  1  0.83278464  0.41740833  0.10173596  1  -1.109549  0.000269  -0.252128  -0.362352  0.000175  2.220964  0.0
O  O258  1  0.66729332  0.41744773  0.60176055  1  -1.109778  0.000269  -0.251989  -0.362184  0.000175  2.220653  0.0
O  O259  1  0.16721823  0.58256829  0.89827154  1  -1.10953  -0.000267  -0.252075  -0.362266  -0.000174  2.220768  0.0
