# generated using pymatgen
data_Y4H36C57(O11F6)3
_symmetry_space_group_name_H-M   'P 1'
_cell_length_a   7.88788954
_cell_length_b   21.35143614
_cell_length_c   22.94726422
_cell_angle_alpha   82.56440624
_cell_angle_beta   82.42046015
_cell_angle_gamma   80.01879131
_symmetry_Int_Tables_number   1
_chemical_formula_structural   Y4H36C57(O11F6)3
_chemical_formula_sum   'Y8 H72 C114 O66 F36'
_cell_volume   3750.43831912
_cell_formula_units_Z   2
loop_
 _symmetry_equiv_pos_site_id
 _symmetry_equiv_pos_as_xyz
  1  'x, y, z'
loop_
 _atom_site_type_symbol
 _atom_site_label
 _atom_site_symmetry_multiplicity
 _atom_site_fract_x
 _atom_site_fract_y
 _atom_site_fract_z
 _atom_site_occupancy
 _atom_site_pbe_bader_charge
 _atom_site_pbe_bader_spin_density
 _atom_site_pbe_cm5_charge
 _atom_site_pbe_ddec_charge
 _atom_site_pbe_ddec_spin_density
 _atom_site_pbe_ddec_sum_bond_order
 _atom_site_pbe_magmom
Y  Y0  1  0.80585684  0.42186412  0.28781035  1  2.291579  0  1.2919  1.824177  0  2.344357  0
Y  Y1  1  0.37941078  0.47154624  0.43392936  1  2.292634  0  1.302692  1.810341  0  2.361753  0
Y  Y2  1  0.46868611  0.24706815  0.09745693  1  2.302057  0  1.292987  1.839582  0  2.31543  0
Y  Y3  1  0.23157134  0.09489397  0.03622661  1  2.302923  0  1.316535  1.84285  0  2.410397  0
Y  Y4  1  0.19415136  0.57813738  0.71218481  1  2.291796  0  1.291872  1.824158  0  2.344328  0
Y  Y5  1  0.62059468  0.52845574  0.56606978  1  2.292656  0  1.302696  1.810262  0  2.361873  0
Y  Y6  1  0.53131054  0.75293048  0.90254433  1  2.302136  0  1.292985  1.83962  0  2.315385  0
Y  Y7  1  0.76842383  0.90510514  0.96377466  1  2.302916  0  1.31657  1.843005  0  2.410174  0
H  H8  1  0.50363311  0.41580350  0.22314380  1  0.637999  0  0.303156  0.39401  0  0.941072  0
H  H9  1  0.63237231  0.45873977  0.18457624  1  0.629858  0  0.326144  0.4139  0  0.881144  0
H  H10  1  0.00574858  0.45238695  0.16173043  1  0.615935  0  0.34064  0.426093  0  0.844691  0
H  H11  1  0.92516930  0.38816074  0.16661251  1  0.6361  0  0.293087  0.372208  0  0.974898  0
H  H12  1  0.19923772  0.40095024  0.25855587  1  0.650676  0  0.300562  0.393705  0  0.940055  0
H  H13  1  0.15653874  0.45166595  0.30443748  1  0.63914  0  0.335891  0.427775  0  0.861938  0
H  H14  1  0.07364514  0.42383266  0.40240309  1  0.615862  0  0.308618  0.386383  0  0.945005  0
H  H15  1  0.99579404  0.46696784  0.45209962  1  0.653714  0  0.307294  0.40761  0  0.918696  0
H  H16  1  0.84642376  0.26349521  0.05181236  1  0.65121  0  0.296565  0.398273  0  0.935499  0
H  H17  1  0.81914019  0.27069742  0.12163512  1  0.643671  0  0.297668  0.38955  0  0.946152  0
H  H18  1  0.10636326  0.30734799  0.10986983  1  0.638642  0  0.30129  0.389154  0  0.944865  0
H  H19  1  0.13322273  0.30505845  0.04155117  1  0.6386  0  0.30316  0.397154  0  0.928673  0
H  H20  1  0.44144437  0.36761976  0.14225417  1  0.648388  0  0.29173  0.366697  0  0.978751  0
H  H21  1  0.60227557  0.36239968  0.09369278  1  0.620239  0  0.321578  0.396422  0  0.897303  0
H  H22  1  0.90769455  0.03265354  0.05336994  1  0.657845  0  0.303733  0.400518  0  0.93459  0
H  H23  1  0.86808856  0.10070026  0.08010590  1  0.621994  0  0.328542  0.412935  0  0.887248  0
H  H24  1  0.38637456  0.95729205  0.07662520  1  0.687698  0  0.306127  0.405338  0  0.920679  0
H  H25  1  0.18353691  0.95798826  0.07963188  1  0.60531  0  0.338566  0.422999  0  0.853415  0
H  H26  1  0.56842088  0.63951441  0.24396942  1  0.088697  0  0.108827  0.117932  0  0.996128  0
H  H27  1  0.53801994  0.71246928  0.44136590  1  0.109245  0  0.1056  0.113463  0  1.018576  0
H  H28  1  0.43891543  0.78960106  0.35946802  1  0.11225  0  0.099845  0.112105  0  1.018182  0
H  H29  1  0.36783160  0.76648141  0.12187775  1  0.111178  0  0.10368  0.114058  0  1.017696  0
H  H30  1  0.99252194  0.74604919  0.14472051  1  0.104332  0  0.09968  0.10676  0  1.024508  0
H  H31  1  0.77970313  0.74409456  0.23357734  1  0.090993  0  0.105787  0.112006  0  0.998606  0
H  H32  1  0.33006996  0.28725257  0.43739287  1  0.118394  0  0.113251  0.126705  0  1.004034  0
H  H33  1  0.32958118  0.18098971  0.25823052  1  0.096  0  0.107506  0.111106  0  1.022164  0
H  H34  1  0.22662268  0.12864041  0.35541594  1  0.091587  0  0.09796  0.111725  0  1.020158  0
H  H35  1  0.97601294  0.26618818  0.41274046  1  0.089918  0  0.108765  0.118271  0  1.008665  0
H  H36  1  0.98858780  0.31375574  0.61742580  1  0.093779  0  0.107651  0.114793  0  0.992827  0
H  H37  1  0.15433524  0.21241844  0.58502192  1  0.093902  0  0.098843  0.110131  0  1.014368  0
H  H38  1  0.64474000  0.09593837  0.21595562  1  0.121185  0  0.113445  0.122518  0  1.007902  0
H  H39  1  0.83871225  0.87516049  0.16318141  1  0.058233  0  0.101526  0.105336  0  1.023932  0
H  H40  1  0.90178943  0.90258086  0.25789984  1  0.122631  0  0.100812  0.110782  0  1.017108  0
H  H41  1  0.03237063  0.06655413  0.20869511  1  0.12815  0  0.11091  0.122477  0  1.009117  0
H  H42  1  0.76287203  0.24616979  0.32281762  1  0.125789  0  0.109694  0.114965  0  1.02232  0
H  H43  1  0.70271283  0.13757812  0.35959071  1  0.110492  0  0.100543  0.112838  0  1.010865  0
H  H44  1  0.49636718  0.58419561  0.77685724  1  0.637963  0  0.303162  0.39402  0  0.941055  0
H  H45  1  0.36762095  0.54126078  0.81542189  1  0.629929  0  0.326143  0.413923  0  0.881124  0
H  H46  1  0.99425877  0.54761359  0.83826923  1  0.616009  0  0.340548  0.425991  0  0.844842  0
H  H47  1  0.07483359  0.61184124  0.83338545  1  0.636078  0  0.293113  0.372242  0  0.974825  0
H  H48  1  0.80076332  0.59905318  0.74144722  1  0.65056  0  0.300512  0.393677  0  0.940089  0
H  H49  1  0.84345564  0.54833508  0.69556708  1  0.639303  0  0.335917  0.42785  0  0.861844  0
H  H50  1  0.92635649  0.57616933  0.59759710  1  0.61581  0  0.308623  0.386391  0  0.944984  0
H  H51  1  0.00420845  0.53303509  0.54789998  1  0.65351  0  0.307271  0.407562  0  0.918771  0
H  H52  1  0.15357000  0.73650725  0.94818944  1  0.651179  0  0.296548  0.398216  0  0.935569  0
H  H53  1  0.18085106  0.72930792  0.87836558  1  0.643661  0  0.297639  0.389509  0  0.946188  0
H  H54  1  0.89363513  0.69265256  0.89012937  1  0.638591  0  0.301276  0.389148  0  0.944868  0
H  H55  1  0.86677371  0.69494067  0.95844873  1  0.638631  0  0.30319  0.397201  0  0.928608  0
H  H56  1  0.55854765  0.63238080  0.85774881  1  0.648468  0  0.291769  0.366688  0  0.978741  0
H  H57  1  0.39771686  0.63759992  0.90631161  1  0.620134  0  0.3216  0.396494  0  0.897258  0
H  H58  1  0.09230129  0.96734701  0.94663069  1  0.657888  0  0.303739  0.400554  0  0.934526  0
H  H59  1  0.13190898  0.89929933  0.91989608  1  0.622222  0  0.328541  0.412931  0  0.887282  0
H  H60  1  0.61362236  0.04270898  0.92337576  1  0.687628  0  0.306116  0.405337  0  0.920677  0
H  H61  1  0.81645873  0.04201277  0.92036914  1  0.60527  0  0.338565  0.422999  0  0.853426  0
H  H62  1  0.43156896  0.36048519  0.75602986  1  0.088658  0  0.108746  0.117867  0  0.996252  0
H  H63  1  0.46197439  0.28753175  0.55863126  1  0.109523  0  0.105611  0.113416  0  1.018493  0
H  H64  1  0.56108079  0.21039853  0.64052966  1  0.112228  0  0.099863  0.112097  0  1.018189  0
H  H65  1  0.63216806  0.23351914  0.87812009  1  0.111222  0  0.103684  0.114058  0  1.017744  0
H  H66  1  0.00748012  0.25395183  0.85528239  1  0.104181  0  0.09972  0.106829  0  1.024378  0
H  H67  1  0.22029224  0.25590408  0.76642398  1  0.091013  0  0.105782  0.112008  0  0.998613  0
H  H68  1  0.66993976  0.71274845  0.56260837  1  0.118432  0  0.113244  0.126712  0  1.004017  0
H  H69  1  0.67043402  0.81900747  0.74177311  1  0.096221  0  0.107509  0.111119  0  1.0221  0
H  H70  1  0.77338962  0.87136061  0.64458780  1  0.091766  0  0.098032  0.111899  0  1.019909  0
H  H71  1  0.02399569  0.73381236  0.58725828  1  0.089928  0  0.108712  0.11815  0  1.008801  0
H  H72  1  0.01139867  0.68624577  0.38257471  1  0.093708  0  0.107676  0.114782  0  0.992868  0
H  H73  1  0.84564802  0.78758164  0.41498066  1  0.093832  0  0.098811  0.11016  0  1.014344  0
H  H74  1  0.35526432  0.90406026  0.78404267  1  0.121116  0  0.113488  0.122528  0  1.007874  0
H  H75  1  0.16127990  0.12483671  0.83682066  1  0.058371  0  0.101509  0.105374  0  1.023943  0
H  H76  1  0.09819417  0.09741539  0.74210362  1  0.121825  0  0.100762  0.110677  0  1.017134  0
H  H77  1  0.96762858  0.93344451  0.79130516  1  0.128205  0  0.110925  0.122492  0  1.0091  0
H  H78  1  0.23712568  0.75382932  0.67718092  1  0.125752  0  0.109681  0.114937  0  1.022317  0
H  H79  1  0.29728576  0.86242195  0.64040767  1  0.110453  0  0.100558  0.112855  0  1.010857  0
C  C80  1  0.42958665  0.76493321  0.24147452  1  0.067571  0  -0.009838  -0.271071  0  3.861427  0
C  C81  1  0.49408513  0.72023625  0.29498519  1  -0.086669  0  -0.017596  0.079495  0  3.967362  0
C  C82  1  0.55628126  0.65591852  0.28757044  1  0.006138  0  -0.080033  -0.141725  0  3.918782  0
C  C83  1  0.60109275  0.61110518  0.33538889  1  0.058056  0  0.008353  -0.01181  0  3.895631  0
C  C84  1  0.59370164  0.63196540  0.39152449  1  -0.006472  0  0.004062  -0.03257  0  3.91574  0
C  C85  1  0.54094708  0.69684620  0.39795092  1  -0.098657  0  -0.074734  -0.07603  0  3.963328  0
C  C86  1  0.48673901  0.74038957  0.35108692  1  0.031676  0  -0.092473  -0.129711  0  3.975816  0
C  C87  1  0.66003900  0.54343470  0.32137767  1  1.56079  0  0.230763  0.617994  0  4.121432  0
C  C88  1  0.62723957  0.58991707  0.44740490  1  1.583433  0  0.225613  0.608316  0  4.15862  0
C  C89  1  0.55664827  0.75740895  0.18502105  1  -0.019763  0  -0.018333  0.07257  0  3.960035  0
C  C90  1  0.50327465  0.76271359  0.12862664  1  -0.00974  0  -0.080912  -0.131984  0  3.930654  0
C  C91  1  0.62372471  0.76557143  0.07825401  1  -0.005744  0  -0.00706  -0.045855  0  3.960719  0
C  C92  1  0.80077610  0.76193834  0.08347535  1  -0.026886  0  0.004377  -0.032544  0  3.925887  0
C  C93  1  0.85519907  0.75179821  0.13989936  1  -0.016878  0  -0.086311  -0.10088  0  3.976899  0
C  C94  1  0.73466378  0.75030390  0.18997995  1  -0.055464  0  -0.079443  -0.103059  0  3.949407  0
C  C95  1  0.56698746  0.77211741  0.01823559  1  1.5316  0  0.221446  0.597258  0  4.163308  0
C  C96  1  0.92926926  0.77079824  0.02935402  1  1.619712  0  0.230838  0.622132  0  4.200203  0
C  C97  1  0.24715621  0.74993415  0.23450953  1  1.694047  0  0.304411  0.677186  0  3.960578  0
C  C98  1  0.40790110  0.83695310  0.25210024  1  1.712713  0  0.301897  0.676525  0  3.972158  0
C  C99  1  0.20099200  0.17751816  0.46697282  1  0.048235  0  -0.008756  -0.270798  0  3.846977  0
C  C100  1  0.27024425  0.20384125  0.40416415  1  -0.076134  0  -0.011282  0.091039  0  3.9438  0
C  C101  1  0.32993694  0.26282443  0.39858540  1  0.058579  0  -0.080022  -0.140313  0  3.919353  0
C  C102  1  0.38626104  0.29245804  0.34357065  1  -0.05673  0  -0.004799  -0.041755  0  3.946233  0
C  C103  1  0.38517637  0.26303806  0.29226630  1  -0.014062  0  -0.009466  -0.059047  0  3.951284  0
C  C104  1  0.33038919  0.20354125  0.29804725  1  -0.018614  0  -0.076911  -0.069333  0  3.947828  0
C  C105  1  0.27172776  0.17428109  0.35321798  1  0.000634  0  -0.092223  -0.130499  0  3.965681  0
C  C106  1  0.45715012  0.35346365  0.34206932  1  1.610092  0  0.244052  0.64186  0  4.163644  0
C  C107  1  0.43034911  0.29466108  0.23155155  1  1.564944  0  0.238951  0.623873  0  4.136431  0
C  C108  1  0.08182568  0.23287121  0.49567677  1  -0.069803  0  -0.015882  0.085916  0  3.955247  0
C  C109  1  0.97856346  0.27550718  0.45812311  1  -0.037024  0  -0.084639  -0.142857  0  3.945006  0
C  C110  1  0.88593105  0.33251403  0.47620820  1  0.02799  0  -0.002875  -0.041839  0  3.93079  0
C  C111  1  0.89368982  0.34695543  0.53379971  1  -0.037839  0  -0.000207  -0.02747  0  3.931034  0
C  C112  1  0.98469804  0.30209971  0.57285585  1  0.026316  0  -0.07393  -0.067537  0  3.94644  0
C  C113  1  0.07907535  0.24527782  0.55419350  1  -0.018152  0  -0.089439  -0.128714  0  3.962464  0
C  C114  1  0.78356029  0.37599055  0.43185279  1  1.627296  0  0.247065  0.651472  0  4.135997  0
C  C115  1  0.82170739  0.41212986  0.55035836  1  1.570474  0  0.205009  0.576482  0  4.183571  0
C  C116  1  0.36213519  0.15077639  0.50048791  1  1.730903  0  0.30118  0.678067  0  3.982028  0
C  C117  1  0.09223873  0.12290327  0.46777520  1  1.715224  0  0.299604  0.679422  0  3.97344  0
C  C118  1  0.82067940  0.02454293  0.30071488  1  0.027681  0  -0.012771  -0.278296  0  3.863925  0
C  C119  1  0.77980047  0.00171978  0.24404357  1  0.001122  0  -0.012506  0.085395  0  3.949744  0
C  C120  1  0.68635221  0.04686924  0.20574827  1  0.020643  0  -0.075762  -0.118263  0  3.921078  0
C  C121  1  0.65167588  0.03176824  0.15171459  1  -0.028511  0  -0.0144  -0.070564  0  3.974546  0
C  C122  1  0.70666462  0.96937255  0.13616714  1  -0.014737  0  -0.001665  -0.030262  0  3.938661  0
C  C123  1  0.79429893  0.92344532  0.17532806  1  0.052079  0  -0.084915  -0.09122  0  3.959663  0
C  C124  1  0.83106569  0.93934044  0.22885292  1  -0.096483  0  -0.084289  -0.106529  0  3.952653  0
C  C125  1  0.57165705  0.08395854  0.10904112  1  1.567369  0  0.240297  0.623389  0  4.174781  0
C  C126  1  0.70715948  0.95336895  0.07461447  1  1.553924  0  0.223293  0.594831  0  4.189468  0
C  C127  1  0.85952023  0.09347080  0.28611022  1  0.001432  0  -0.010865  0.087615  0  3.945591  0
C  C128  1  0.97198580  0.10522933  0.23476191  1  -0.025125  0  -0.08111  -0.136198  0  3.929686  0
C  C129  1  0.00866855  0.16630705  0.21449643  1  -0.066987  0  -0.007549  -0.051362  0  3.947204  0
C  C130  1  0.92932279  0.21815400  0.24590194  1  -0.046893  0  -0.003363  -0.046094  0  3.926441  0
C  C131  1  0.82360659  0.20592743  0.29862608  1  -0.023112  0  -0.074479  -0.071891  0  3.924889  0
C  C132  1  0.78839698  0.14441131  0.31885233  1  0.038165  0  -0.082022  -0.108851  0  3.936279  0
C  C133  1  0.14217673  0.17157873  0.16211042  1  1.57659  0  0.247047  0.647162  0  4.146937  0
C  C134  1  0.93947697  0.28680207  0.22399149  1  1.562612  0  0.237574  0.62396  0  4.13862  0
C  C135  1  0.65937316  0.01808744  0.34669264  1  1.731234  0  0.303739  0.680636  0  3.981102  0
C  C136  1  0.98365224  0.98360615  0.32603051  1  1.735065  0  0.302654  0.681371  0  3.972074  0
C  C137  1  0.57040998  0.23506543  0.75852282  1  0.067633  0  -0.009816  -0.27112  0  3.86134  0
C  C138  1  0.50591367  0.27976334  0.70501368  1  -0.086615  0  -0.017664  0.07947  0  3.967438  0
C  C139  1  0.44371754  0.34408108  0.71242799  1  0.006232  0  -0.080008  -0.141775  0  3.918976  0
C  C140  1  0.39890288  0.38889585  0.66461082  1  0.057895  0  0.008433  -0.011671  0  3.895635  0
C  C141  1  0.40629231  0.36803659  0.60847561  1  -0.006487  0  0.004038  -0.032638  0  3.915703  0
C  C142  1  0.45904175  0.30315579  0.60204899  1  -0.098939  0  -0.074733  -0.075937  0  3.963086  0
C  C143  1  0.51325850  0.25961003  0.64891113  1  0.031699  0  -0.092483  -0.129706  0  3.975728  0
C  C144  1  0.33996154  0.45656680  0.67862001  1  1.560955  0  0.230771  0.617896  0  4.121304  0
C  C145  1  0.37276548  0.41008586  0.55259414  1  1.583409  0  0.22563  0.608393  0  4.158848  0
C  C146  1  0.44335416  0.24259112  0.81497760  1  -0.019626  0  -0.018287  0.072694  0  3.959964  0
C  C147  1  0.49672799  0.23728600  0.87137292  1  -0.01008  0  -0.080896  -0.131998  0  3.930477  0
C  C148  1  0.37628071  0.23442768  0.92174766  1  -0.005766  0  -0.007094  -0.045893  0  3.960466  0
C  C149  1  0.19922931  0.23806077  0.91652588  1  -0.026999  0  0.004396  -0.032571  0  3.925673  0
C  C150  1  0.14480405  0.24820329  0.86010257  1  -0.016747  0  -0.086382  -0.101001  0  3.976761  0
C  C151  1  0.26533590  0.24969665  0.81002050  1  -0.055425  0  -0.079433  -0.103058  0  3.94946  0
C  C152  1  0.43302111  0.22788026  0.98176392  1  1.531697  0  0.22145  0.597464  0  4.163145  0
C  C153  1  0.07073609  0.22919800  0.97064756  1  1.619894  0  0.230779  0.622086  0  4.200341  0
C  C154  1  0.75284534  0.25006496  0.76548796  1  1.694089  0  0.304448  0.67719  0  3.960406  0
C  C155  1  0.59209405  0.16304602  0.74789842  1  1.712479  0  0.301941  0.676597  0  3.971927  0
C  C156  1  0.79900385  0.82248239  0.53302999  1  0.04766  0  -0.008793  -0.270842  0  3.846912  0
C  C157  1  0.72977505  0.79615833  0.59583857  1  -0.075859  0  -0.011437  0.091029  0  3.943817  0
C  C158  1  0.67008193  0.73717610  0.60141417  1  0.059063  0  -0.079878  -0.140274  0  3.919216  0
C  C159  1  0.61375398  0.70754250  0.65642823  1  -0.05725  0  -0.004826  -0.041712  0  3.946069  0
C  C160  1  0.61483821  0.73696057  0.70773631  1  -0.013979  0  -0.009489  -0.059064  0  3.951347  0
C  C161  1  0.66962944  0.79645689  0.70195611  1  -0.018985  0  -0.076886  -0.069264  0  3.947601  0
C  C162  1  0.72828837  0.82571992  0.64678471  1  0.000418  0  -0.09226  -0.130745  0  3.965331  0
C  C163  1  0.54285640  0.64653880  0.65792797  1  1.610022  0  0.244036  0.642007  0  4.163446  0
C  C164  1  0.56964889  0.70534043  0.76844974  1  1.564921  0  0.238934  0.623831  0  4.136671  0
C  C165  1  0.91817272  0.76712934  0.50432330  1  -0.069819  0  -0.015832  0.085955  0  3.955249  0
C  C166  1  0.02144178  0.72449528  0.54187424  1  -0.037093  0  -0.084554  -0.142649  0  3.944941  0
C  C167  1  0.11407608  0.66748699  0.52378880  1  0.028253  0  -0.002954  -0.041995  0  3.93117  0
C  C168  1  0.10631307  0.65304656  0.46619824  1  -0.038028  0  -0.00019  -0.027445  0  3.931279  0
C  C169  1  0.01529375  0.69790133  0.42714316  1  0.026423  0  -0.073907  -0.067419  0  3.946406  0
C  C170  1  0.92090918  0.75472226  0.44580727  1  -0.01813  0  -0.089487  -0.128838  0  3.962438  0
C  C171  1  0.21644877  0.62401191  0.56814133  1  1.627278  0  0.247033  0.651364  0  4.136185  0
C  C172  1  0.17829510  0.58787308  0.44964037  1  1.570373  0  0.205024  0.576456  0  4.183592  0
C  C173  1  0.63785725  0.84922320  0.49951735  1  1.731955  0  0.301078  0.677992  0  3.982283  0
C  C174  1  0.90776368  0.87709679  0.53222126  1  1.714396  0  0.299634  0.679293  0  3.97399  0
C  C175  1  0.17931874  0.97545522  0.69928681  1  0.027971  0  -0.012811  -0.278354  0  3.863981  0
C  C176  1  0.22020044  0.99827789  0.75595804  1  0.001228  0  -0.012526  0.085431  0  3.949889  0
C  C177  1  0.31364505  0.95312797  0.79425270  1  0.020544  0  -0.07576  -0.11819  0  3.921291  0
C  C178  1  0.34832563  0.96822800  0.84828543  1  -0.028319  0  -0.014392  -0.070577  0  3.974585  0
C  C179  1  0.29333648  0.03062465  0.86383365  1  -0.014636  0  -0.001659  -0.03021  0  3.938452  0
C  C180  1  0.20569449  0.07655188  0.82467353  1  0.051853  0  -0.08482  -0.091182  0  3.959577  0
C  C181  1  0.16893050  0.06065629  0.77114903  1  -0.095692  0  -0.084288  -0.106492  0  3.952717  0
C  C182  1  0.42833724  0.91603962  0.89095900  1  1.567319  0  0.240309  0.623378  0  4.174913  0
C  C183  1  0.29283670  0.04662778  0.92538617  1  1.554034  0  0.223286  0.594759  0  4.189424  0
C  C184  1  0.14047494  0.90652831  0.71389061  1  0.001474  0  -0.010854  0.087588  0  3.945824  0
C  C185  1  0.02801320  0.89476978  0.76523788  1  -0.025167  0  -0.0811  -0.136144  0  3.929725  0
C  C186  1  0.99132642  0.83369254  0.78550436  1  -0.067223  0  -0.007527  -0.051306  0  3.947049  0
C  C187  1  0.07067324  0.78184607  0.75409699  1  -0.047906  0  -0.003381  -0.046108  0  3.926442  0
C  C188  1  0.17639241  0.79407169  0.70137327  1  -0.023201  0  -0.074455  -0.071892  0  3.924876  0
C  C189  1  0.21160033  0.85558876  0.68114611  1  0.03838  0  -0.082023  -0.108815  0  3.936211  0
C  C190  1  0.85782081  0.82842086  0.83789112  1  1.576812  0  0.246965  0.647003  0  4.147146  0
C  C191  1  0.06052053  0.71319753  0.77600482  1  1.563298  0  0.237572  0.624048  0  4.138661  0
C  C192  1  0.34062822  0.98191215  0.65331003  1  1.731477  0  0.303803  0.680826  0  3.980753  0
C  C193  1  0.01634972  0.01639200  0.67396839  1  1.734642  0  0.302576  0.68108  0  3.972325  0
O  O194  1  0.78683872  0.53319806  0.28117061  1  -1.176879  0  -0.366618  -0.585942  0  2.099501  0
O  O195  1  0.58414009  0.49691695  0.34650653  1  -1.220586  0  -0.352213  -0.63431  0  2.306633  0
O  O196  1  0.56406947  0.53764575  0.45851715  1  -1.212795  0  -0.380196  -0.642619  0  2.412773  0
O  O197  1  0.70437210  0.60824563  0.48553476  1  -1.17961  0  -0.336206  -0.565208  0  2.160892  0
O  O198  1  0.64560677  0.80628609  0.97591975  1  -1.227211  0  -0.375999  -0.686707  0  2.397201  0
O  O199  1  0.45192897  0.74195816  0.00706501  1  -1.170207  0  -0.345389  -0.549154  0  2.084685  0
O  O200  1  0.95511493  0.82830768  0.01307628  1  -1.210987  0  -0.389223  -0.636159  0  2.228832  0
O  O201  1  0.00290192  0.72256683  0.00403520  1  -1.173518  0  -0.298272  -0.538087  0  2.15962  0
O  O202  1  0.61050585  0.35399182  0.31702122  1  -1.209339  0  -0.374465  -0.622964  0  2.331647  0
O  O203  1  0.36212337  0.39889561  0.36682345  1  -1.210033  0  -0.353096  -0.607019  0  2.292857  0
O  O204  1  0.51082379  0.25955330  0.19297905  1  -1.212735  0  -0.369395  -0.602047  0  2.269815  0
O  O205  1  0.38039406  0.35540107  0.21998838  1  -1.200181  0  -0.304812  -0.589241  0  2.205836  0
O  O206  1  0.86883875  0.38976375  0.38127281  1  -1.221656  0  -0.384899  -0.641229  0  2.281292  0
O  O207  1  0.62436197  0.39312747  0.44536991  1  -1.210142  0  -0.340514  -0.586974  0  2.311504  0
O  O208  1  0.75020108  0.42140507  0.60204115  1  -1.177641  0  -0.348009  -0.574648  0  2.151689  0
O  O209  1  0.83129302  0.45917186  0.50940427  1  -1.197827  0  -0.343235  -0.585513  0  2.275925  0
O  O210  1  0.58734203  0.14112427  0.11526208  1  -1.204321  0  -0.364648  -0.615948  0  2.266003  0
O  O211  1  0.50096882  0.06754429  0.06792297  1  -1.206175  0  -0.367158  -0.605558  0  2.297174  0
O  O212  1  0.60046690  0.92108122  0.06004104  1  -1.197488  0  -0.332716  -0.587892  0  2.207613  0
O  O213  1  0.83208838  0.96908848  0.03711305  1  -1.196687  0  -0.33231  -0.590204  0  2.251919  0
O  O214  1  0.24377671  0.21186488  0.16064183  1  -1.202008  0  -0.365537  -0.624295  0  2.342644  0
O  O215  1  0.15115969  0.13285856  0.12374322  1  -1.222323  0  -0.386828  -0.619363  0  2.298258  0
O  O216  1  0.94808768  0.32367008  0.26217899  1  -1.205342  0  -0.37023  -0.604471  0  2.276275  0
O  O217  1  0.92839989  0.30664723  0.16897315  1  -1.19323  0  -0.304592  -0.585978  0  2.220202  0
O  O218  1  0.57609247  0.44914553  0.22447665  1  -1.247716  0  -0.603107  -0.779207  0  2.016662  0
O  O219  1  0.90098952  0.43405865  0.17528701  1  -1.253856  0  -0.58401  -0.796368  0  2.00689  0
O  O220  1  0.10649293  0.43433019  0.27449487  1  -1.276597  0  -0.606369  -0.807151  0  2.03125  0
O  O221  1  0.08897506  0.46258755  0.41838144  1  -1.26172  0  -0.6174  -0.808642  0  2.115995  0
O  O222  1  0.76120981  0.26121177  0.08865372  1  -1.305942  0  -0.625024  -0.834771  0  2.073346  0
O  O223  1  0.19285669  0.31228306  0.07490545  1  -1.268579  0  -0.61019  -0.783049  0  2.000893  0
O  O224  1  0.47728079  0.36286666  0.09940557  1  -1.271796  0  -0.603094  -0.767752  0  2.004048  0
O  O225  1  0.95933984  0.06641613  0.06801264  1  -1.26555  0  -0.623995  -0.807609  0  2.126662  0
O  O226  1  0.27066412  0.98471176  0.08094831  1  -1.270406  0  -0.598985  -0.787248  0  2.023879  0
O  O227  1  0.21315757  0.46680441  0.71882672  1  -1.176885  0  -0.366642  -0.585934  0  2.099308  0
O  O228  1  0.41585533  0.50308456  0.65349095  1  -1.220666  0  -0.352217  -0.634205  0  2.306669  0
O  O229  1  0.43593432  0.46235719  0.54148327  1  -1.212982  0  -0.380136  -0.642624  0  2.412929  0
O  O230  1  0.29563638  0.39175825  0.51446314  1  -1.179468  0  -0.336242  -0.565291  0  2.161053  0
O  O231  1  0.35440140  0.19371254  0.02408098  1  -1.227324  0  -0.375949  -0.686699  0  2.397108  0
O  O232  1  0.54808870  0.25803615  0.99293449  1  -1.170256  0  -0.345402  -0.549251  0  2.084586  0
O  O233  1  0.04488772  0.17169191  0.98692546  1  -1.211103  0  -0.389253  -0.636134  0  2.229055  0
O  O234  1  0.99710282  0.27743085  0.99596623  1  -1.173428  0  -0.298189  -0.538053  0  2.159609  0
O  O235  1  0.38950518  0.64601207  0.68297525  1  -1.209208  0  -0.37439  -0.622957  0  2.331743  0
O  O236  1  0.63788459  0.60110350  0.63317592  1  -1.210033  0  -0.353171  -0.607198  0  2.29264  0
O  O237  1  0.48916801  0.74044773  0.80702127  1  -1.212822  0  -0.369368  -0.602026  0  2.269947  0
O  O238  1  0.61960287  0.64459995  0.78001432  1  -1.20013  0  -0.304785  -0.589207  0  2.205833  0
O  O239  1  0.13117624  0.61023678  0.61872083  1  -1.221439  0  -0.384796  -0.641156  0  2.281453  0
O  O240  1  0.37565053  0.60687594  0.55462438  1  -1.210451  0  -0.3406  -0.586963  0  2.311492  0
O  O241  1  0.24980222  0.57859595  0.39795646  1  -1.177587  0  -0.347976  -0.57458  0  2.151661  0
O  O242  1  0.16871075  0.54083108  0.49059396  1  -1.197759  0  -0.343221  -0.585538  0  2.275983  0
O  O243  1  0.41264569  0.85887437  0.88474177  1  -1.204405  0  -0.364702  -0.616  0  2.266153  0
O  O244  1  0.49902912  0.93245435  0.93207823  1  -1.206128  0  -0.36718  -0.605591  0  2.296999  0
O  O245  1  0.39952995  0.07891694  0.93995939  1  -1.197525  0  -0.332788  -0.587992  0  2.207591  0
O  O246  1  0.16791124  0.03090920  0.96288731  1  -1.196838  0  -0.332224  -0.590034  0  2.251801  0
O  O247  1  0.75621596  0.78813711  0.83935877  1  -1.20213  0  -0.365488  -0.624231  0  2.342749  0
O  O248  1  0.84884193  0.86714342  0.87625697  1  -1.222297  0  -0.386821  -0.619369  0  2.298326  0
O  O249  1  0.05191454  0.67633047  0.73781917  1  -1.205434  0  -0.370183  -0.604455  0  2.276561  0
O  O250  1  0.07159573  0.69335380  0.83102526  1  -1.192879  0  -0.304626  -0.586084  0  2.220091  0
O  O251  1  0.42390889  0.55085406  0.77552253  1  -1.247779  0  -0.60311  -0.77925  0  2.016658  0
O  O252  1  0.09901485  0.56594285  0.82471093  1  -1.253949  0  -0.583943  -0.796278  0  2.006923  0
O  O253  1  0.89350641  0.56567418  0.72550557  1  -1.276601  0  -0.606336  -0.807215  0  2.031129  0
O  O254  1  0.91102528  0.53741443  0.58161751  1  -1.261449  0  -0.617387  -0.808585  0  2.116009  0
O  O255  1  0.23878334  0.73879213  0.91134837  1  -1.305944  0  -0.624968  -0.834667  0  2.073416  0
O  O256  1  0.80714210  0.68771653  0.92509385  1  -1.268555  0  -0.610212  -0.783087  0  2.000818  0
O  O257  1  0.52271231  0.63713437  0.90059731  1  -1.271745  0  -0.603143  -0.767811  0  2.003955  0
O  O258  1  0.04065533  0.93358299  0.93198863  1  -1.265791  0  -0.624027  -0.807682  0  2.126602  0
O  O259  1  0.72933556  0.01528879  0.91905301  1  -1.270325  0  -0.598965  -0.787255  0  2.023848  0
F  F260  1  0.14544066  0.74529144  0.28692127  1  -0.616663  0  -0.090049  -0.195395  0  1.335703  0
F  F261  1  0.15654219  0.79630403  0.19805385  1  -0.613712  0  -0.095404  -0.214936  0  1.341925  0
F  F262  1  0.25930353  0.69367433  0.21120352  1  -0.614627  0  -0.08754  -0.189735  0  1.297635  0
F  F263  1  0.27518135  0.85319193  0.29442359  1  -0.611464  0  -0.096357  -0.209315  0  1.382504  0
F  F264  1  0.55469004  0.85022369  0.26974384  1  -0.6156  0  -0.088076  -0.191516  0  1.354295  0
F  F265  1  0.37631929  0.87701588  0.20226001  1  -0.61421  0  -0.100277  -0.203904  0  1.33813  0
F  F266  1  0.44722925  0.19881244  0.50924434  1  -0.623873  0  -0.090837  -0.199577  0  1.332914  0
F  F267  1  0.47853857  0.10950787  0.46932288  1  -0.61196  0  -0.101589  -0.205434  0  1.365553  0
F  F268  1  0.32163043  0.11942200  0.55451959  1  -0.615407  0  -0.096813  -0.205528  0  1.392638  0
F  F269  1  0.01263390  0.10795636  0.52271942  1  -0.606094  0  -0.103039  -0.205917  0  1.335478  0
F  F270  1  0.18839905  0.06800089  0.44991969  1  -0.608092  0  -0.098603  -0.198535  0  1.328407  0
F  F271  1  0.96478856  0.14162163  0.43139699  1  -0.613198  0  -0.093356  -0.200211  0  1.344581  0
F  F272  1  0.61032791  0.95982878  0.34878127  1  -0.608212  0  -0.10312  -0.2042  0  1.354149  0
F  F273  1  0.52153782  0.06222787  0.33098179  1  -0.623771  0  -0.089431  -0.198422  0  1.370571  0
F  F274  1  0.68564681  0.02623658  0.40227322  1  -0.604223  0  -0.093897  -0.192763  0  1.354735  0
F  F275  1  0.95918254  0.92309485  0.34827273  1  -0.612762  0  -0.096606  -0.19754  0  1.345222  0
F  F276  1  0.12068295  0.97857404  0.28307177  1  -0.616917  0  -0.097659  -0.202582  0  1.344494  0
F  F277  1  0.03211998  0.01081440  0.37012736  1  -0.614799  0  -0.100813  -0.203894  0  1.355657  0
F  F278  1  0.85455934  0.25470528  0.71307658  1  -0.616795  0  -0.090115  -0.195454  0  1.3357  0
F  F279  1  0.84345619  0.20369652  0.80194448  1  -0.613666  0  -0.095374  -0.214912  0  1.341929  0
F  F280  1  0.74069929  0.30632478  0.78879261  1  -0.614518  0  -0.087519  -0.189665  0  1.297615  0
F  F281  1  0.72481503  0.14680432  0.70557623  1  -0.61143  0  -0.096413  -0.209352  0  1.382383  0
F  F282  1  0.44530384  0.14977543  0.73025618  1  -0.615542  0  -0.088116  -0.191558  0  1.354187  0
F  F283  1  0.62367951  0.12298371  0.79773973  1  -0.614056  0  -0.100257  -0.203905  0  1.338112  0
F  F284  1  0.55275801  0.80118429  0.49076194  1  -0.623969  0  -0.090741  -0.19954  0  1.332972  0
F  F285  1  0.52144998  0.89048886  0.53068421  1  -0.612004  0  -0.101649  -0.205468  0  1.365574  0
F  F286  1  0.67834450  0.88057666  0.44548616  1  -0.615934  0  -0.096736  -0.205436  0  1.39272  0
F  F287  1  0.98737958  0.89203269  0.47727612  1  -0.606153  0  -0.103093  -0.205938  0  1.335568  0
F  F288  1  0.81160597  0.93200492  0.55006463  1  -0.607462  0  -0.098623  -0.198472  0  1.328636  0
F  F289  1  0.03521075  0.85838275  0.56859997  1  -0.613024  0  -0.093323  -0.200196  0  1.344729  0
F  F290  1  0.38966431  0.04017130  0.65122176  1  -0.608553  0  -0.103084  -0.204248  0  1.354122  0
F  F291  1  0.47846163  0.93777028  0.66902289  1  -0.623832  0  -0.089502  -0.198481  0  1.370438  0
F  F292  1  0.31435631  0.97376492  0.59772783  1  -0.604236  0  -0.093923  -0.192821  0  1.354617  0
F  F293  1  0.04081923  0.07690379  0.65172699  1  -0.612723  0  -0.096616  -0.197494  0  1.345228  0
F  F294  1  0.87931875  0.02142172  0.71692699  1  -0.616837  0  -0.09766  -0.202525  0  1.34452  0
F  F295  1  0.96789288  0.98918519  0.62986955  1  -0.614546  0  -0.100724  -0.203755  0  1.355756  0
