# generated using pymatgen
data_KH9C7(NO3)2
_symmetry_space_group_name_H-M   'P 1'
_cell_length_a   6.88057776
_cell_length_b   7.07310499
_cell_length_c   21.24158874
_cell_angle_alpha   90.00011334
_cell_angle_beta   90.00007725
_cell_angle_gamma   90.00003916
_symmetry_Int_Tables_number   1
_chemical_formula_structural   KH9C7(NO3)2
_chemical_formula_sum   'K4 H36 C28 N8 O24'
_cell_volume   1033.76543663
_cell_formula_units_Z   4
loop_
 _symmetry_equiv_pos_site_id
 _symmetry_equiv_pos_as_xyz
  1  'x, y, z'
loop_
 _atom_site_type_symbol
 _atom_site_label
 _atom_site_symmetry_multiplicity
 _atom_site_fract_x
 _atom_site_fract_y
 _atom_site_fract_z
 _atom_site_occupancy
 _atom_site_hle17_bader_spin_density
 _atom_site_hle17_ddec_charge
 _atom_site_hle17_ddec_spin_density
 _atom_site_hle17_ddec_sum_bond_order
 _atom_site_hle17_magmom
 _atom_site_hse06_10hf_bader_spin_density
 _atom_site_hse06_10hf_ddec_charge
 _atom_site_hse06_10hf_ddec_spin_density
 _atom_site_hse06_10hf_ddec_sum_bond_order
 _atom_site_hse06_10hf_magmom
 _atom_site_hse06_bader_spin_density
 _atom_site_hse06_ddec_charge
 _atom_site_hse06_ddec_spin_density
 _atom_site_hse06_ddec_sum_bond_order
 _atom_site_hse06_magmom
 _atom_site_pbe_bader_spin_density
 _atom_site_pbe_cm5_charge
 _atom_site_pbe_ddec_charge
 _atom_site_pbe_ddec_spin_density
 _atom_site_pbe_ddec_sum_bond_order
 _atom_site_pbe_magmom
K  K0  1  0.74999977  0.62282645  0.71528020  1  0  0.906103  0  0.499636  0  0  0.861395  0  0.689854  0  0  0.876206  0  0.66395  0  0  0.790864  0.850308  0  0.708322  0
K  K1  1  0.24999575  0.87717419  0.21527897  1  0  0.906112  0  0.499627  0  0  0.861408  0  0.689829  0  0  0.876205  0  0.663948  0  0  0.790869  0.850323  0  0.708294  0
K  K2  1  0.74999974  0.12282701  0.78471976  1  0  0.906098  0  0.499647  0  0  0.861396  0  0.689861  0  0  0.876204  0  0.663966  0  0  0.790872  0.850309  0  0.708328  0
K  K3  1  0.25000153  0.37717333  0.28471664  1  0  0.906097  0  0.499656  0  0  0.861398  0  0.689871  0  0  0.876205  0  0.663973  0  0  0.790867  0.850307  0  0.708341  0
H  H4  1  0.75000078  0.52814749  0.51699133  1  0  0.119504  0  0.975324  0  0  0.128017  0  1.036806  0  0  0.132048  0  1.035164  0  0  0.106769  0.125078  0  1.03831  0
H  H5  1  0.24999827  0.97185337  0.01699157  1  0  0.119492  0  0.975344  0  0  0.128009  0  1.036819  0  0  0.13204  0  1.035179  0  0  0.106765  0.12507  0  1.038323  0
H  H6  1  0.75000013  0.02814358  0.98300904  1  0  0.11945  0  0.975264  0  0  0.128036  0  1.036672  0  0  0.132069  0  1.035028  0  0  0.106769  0.125095  0  1.038176  0
H  H7  1  0.24999907  0.47185370  0.48300881  1  0  0.119497  0  0.97534  0  0  0.128044  0  1.036784  0  0  0.132078  0  1.035139  0  0  0.106779  0.125102  0  1.038289  0
H  H8  1  0.75000089  0.30599215  0.60711587  1  0  0.120348  0  0.936869  0  0  0.130474  0  0.993869  0  0  0.133906  0  0.990397  0  0  0.125574  0.127971  0  0.996351  0
H  H9  1  0.24999965  0.19400855  0.10711640  1  0  0.120343  0  0.936904  0  0  0.130468  0  0.993905  0  0  0.133901  0  0.990431  0  0  0.125556  0.127965  0  0.996386  0
H  H10  1  0.75000021  0.80599123  0.89288468  1  0  0.120359  0  0.936936  0  0  0.13046  0  0.993967  0  0  0.133892  0  0.990491  0  0  0.125555  0.12795  0  0.996446  0
H  H11  1  0.24999896  0.69400905  0.39288474  1  0  0.120382  0  0.936928  0  0  0.130487  0  0.993957  0  0  0.133919  0  0.990483  0  0  0.12557  0.127981  0  0.996436  0
H  H12  1  0.74999935  0.83548341  0.47848442  1  0  0.110589  0  0.960404  0  0  0.116285  0  1.028979  0  0  0.120804  0  1.023719  0  0  0.111853  0.112987  0  1.032771  0
H  H13  1  0.24999727  0.66451879  0.97848452  1  0  0.110588  0  0.960383  0  0  0.116294  0  1.028949  0  0  0.120815  0  1.023687  0  0  0.111841  0.112994  0  1.032747  0
H  H14  1  0.75000113  0.33548099  0.02151514  1  0  0.110577  0  0.960388  0  0  0.116289  0  1.028954  0  0  0.120812  0  1.023688  0  0  0.111824  0.11299  0  1.03275  0
H  H15  1  0.25000050  0.16451920  0.52151618  1  0  0.110541  0  0.960457  0  0  0.116237  0  1.029037  0  0  0.120752  0  1.023785  0  0  0.111826  0.112942  0  1.032824  0
H  H16  1  0.75000056  0.57386117  0.40383596  1  0  0.33683  0  0.899379  0  0  0.318353  0  0.96295  0  0  0.326038  0  0.95726  0  0  0.308741  0.312842  0  0.967094  0
H  H17  1  0.24999866  0.92613635  0.90383577  1  0  0.336817  0  0.899364  0  0  0.318339  0  0.962934  0  0  0.326026  0  0.957242  0  0  0.308737  0.312829  0  0.967078  0
H  H18  1  0.74999974  0.07386343  0.09616437  1  0  0.336824  0  0.899384  0  0  0.318346  0  0.962957  0  0  0.326033  0  0.957265  0  0  0.308731  0.312836  0  0.9671  0
H  H19  1  0.24999929  0.42613720  0.59616464  1  0  0.336815  0  0.899374  0  0  0.318332  0  0.962952  0  0  0.326019  0  0.957258  0  0  0.308733  0.312822  0  0.967095  0
H  H20  1  0.75000038  0.37506996  0.35308122  1  0  0.33584  0  0.918745  0  0  0.312154  0  0.989183  0  0  0.321645  0  0.980543  0  0  0.309946  0.305371  0  0.99537  0
H  H21  1  0.24999827  0.12492937  0.85308177  1  0  0.335836  0  0.918762  0  0  0.312151  0  0.989199  0  0  0.321641  0  0.980562  0  0  0.309954  0.305368  0  0.995387  0
H  H22  1  0.75000013  0.87507041  0.14691884  1  0  0.335841  0  0.918749  0  0  0.312156  0  0.989188  0  0  0.321647  0  0.980546  0  0  0.309948  0.305373  0  0.995376  0
H  H23  1  0.24999947  0.62492699  0.64691938  1  0  0.335859  0  0.918696  0  0  0.312166  0  0.989156  0  0  0.321658  0  0.980513  0  0  0.309942  0.305382  0  0.995344  0
H  H24  1  0.09804580  0.36761877  0.75627596  1  0  0.409978  0  0.901846  0  0  0.379632  0  0.966322  0  0  0.390283  0  0.950406  0  0  0.286425  0.372122  0  0.977546  0
H  H25  1  0.90195245  0.13238423  0.25627674  1  0  0.409969  0  0.901844  0  0  0.37963  0  0.966321  0  0  0.390279  0  0.95041  0  0  0.286408  0.37212  0  0.977545  0
H  H26  1  0.40195647  0.86761707  0.74372487  1  0  0.409984  0  0.901842  0  0  0.379639  0  0.96631  0  0  0.390289  0  0.950391  0  0  0.286447  0.372128  0  0.977535  0
H  H27  1  0.59804498  0.63238091  0.24372269  1  0  0.409926  0  0.901908  0  0  0.379585  0  0.966376  0  0  0.390234  0  0.950463  0  0  0.286407  0.372074  0  0.977602  0
H  H28  1  0.90195696  0.63237960  0.24372464  1  0  0.409985  0  0.901841  0  0  0.379639  0  0.966309  0  0  0.390289  0  0.95039  0  0  0.286445  0.372128  0  0.977534  0
H  H29  1  0.09804304  0.86761838  0.74372481  1  0  0.409985  0  0.901842  0  0  0.37964  0  0.966308  0  0  0.39029  0  0.950389  0  0  0.286446  0.372129  0  0.977533  0
H  H30  1  0.59804193  0.13238130  0.25627526  1  0  0.410013  0  0.901803  0  0  0.379664  0  0.966276  0  0  0.390316  0  0.950354  0  0  0.286456  0.372154  0  0.9775  0
H  H31  1  0.40195632  0.36761887  0.75627556  1  0  0.409978  0  0.901843  0  0  0.379637  0  0.966303  0  0  0.390287  0  0.950383  0  0  0.286439  0.372126  0  0.977527  0
H  H32  1  0.08985881  0.26778688  0.69008173  1  0  0.417846  0  0.887437  0  0  0.388851  0  0.948911  0  0  0.3993  0  0.933515  0  0  0.288515  0.381457  0  0.959805  0
H  H33  1  0.91014062  0.23221431  0.19008163  1  0  0.417846  0  0.887443  0  0  0.388854  0  0.948912  0  0  0.399305  0  0.933513  0  0  0.288502  0.38146  0  0.959808  0
H  H34  1  0.41014193  0.76778700  0.80991952  1  0  0.417812  0  0.887472  0  0  0.388829  0  0.948935  0  0  0.399278  0  0.933539  0  0  0.288485  0.381435  0  0.959831  0
H  H35  1  0.58985834  0.73221420  0.30991739  1  0  0.417797  0  0.887497  0  0  0.388787  0  0.949001  0  0  0.399236  0  0.933604  0  0  0.288477  0.381393  0  0.959896  0
H  H36  1  0.91014104  0.73221431  0.30991888  1  0  0.417826  0  0.88746  0  0  0.388828  0  0.948939  0  0  0.399277  0  0.933544  0  0  0.288494  0.381435  0  0.959833  0
H  H37  1  0.08985778  0.76778689  0.80991945  1  0  0.417801  0  0.887494  0  0  0.388799  0  0.948981  0  0  0.399248  0  0.933585  0  0  0.288477  0.381406  0  0.959876  0
H  H38  1  0.58985647  0.23221278  0.19008062  1  0  0.417808  0  0.887489  0  0  0.388805  0  0.948979  0  0  0.399254  0  0.933583  0  0  0.288473  0.381411  0  0.959875  0
H  H39  1  0.41014151  0.26778699  0.69008133  1  0  0.417795  0  0.887504  0  0  0.388792  0  0.948994  0  0  0.399239  0  0.933599  0  0  0.288469  0.381398  0  0.959889  0
C  C40  1  0.75000046  0.10638764  0.43481466  1  0  -0.198685  0  3.689645  0  0  -0.185451  0  3.945772  0  0  -0.204509  0  3.971075  0  0  -0.03087  -0.173264  0  3.928868  0
C  C41  1  0.25000435  0.39361501  0.93481538  1  0  -0.198698  0  3.689651  0  0  -0.185436  0  3.945724  0  0  -0.20447  0  3.970994  0  0  -0.030852  -0.173246  0  3.92882  0
C  C42  1  0.75000132  0.60638336  0.06518522  1  0  -0.198651  0  3.689622  0  0  -0.185392  0  3.945709  0  0  -0.204458  0  3.971039  0  0  -0.030841  -0.173204  0  3.928809  0
C  C43  1  0.25000084  0.89361497  0.56518594  1  0  -0.198659  0  3.689644  0  0  -0.185362  0  3.945657  0  0  -0.204363  0  3.970881  0  0  -0.030881  -0.173177  0  3.928754  0
C  C44  1  0.75000055  0.30805441  0.44526122  1  0  0.367348  0  3.773022  0  0  0.347088  0  4.029655  0  0  0.366685  0  4.046155  0  0  0.139436  0.334289  0  4.017839  0
C  C45  1  0.25000139  0.19194548  0.94526133  1  0  0.367372  0  3.772961  0  0  0.3471  0  4.029594  0  0  0.366691  0  4.046091  0  0  0.139488  0.334299  0  4.017782  0
C  C46  1  0.74999991  0.80805431  0.05473927  1  0  0.367322  0  3.772925  0  0  0.347048  0  4.029576  0  0  0.366644  0  4.046073  0  0  0.139414  0.334248  0  4.017766  0
C  C47  1  0.24999930  0.69194537  0.55473892  1  0  0.367167  0  3.773008  0  0  0.34688  0  4.029647  0  0  0.366462  0  4.046148  0  0  0.139386  0.334081  0  4.017829  0
C  C48  1  0.75000216  0.37618592  0.50860772  1  0  -0.188526  0  3.686485  0  0  -0.202302  0  3.938035  0  0  -0.215037  0  3.958465  0  0  -0.095639  -0.194093  0  3.924244  0
C  C49  1  0.24999942  0.12381419  0.00860821  1  0  -0.188436  0  3.68648  0  0  -0.202216  0  3.938025  0  0  -0.214953  0  3.958458  0  0  -0.095599  -0.194006  0  3.924234  0
C  C50  1  0.75000044  0.87618135  0.99139240  1  0  -0.18844  0  3.686439  0  0  -0.202286  0  3.938001  0  0  -0.215023  0  3.95843  0  0  -0.095601  -0.194072  0  3.924204  0
C  C51  1  0.24999914  0.62381669  0.49139147  1  0  -0.188457  0  3.686524  0  0  -0.202256  0  3.93806  0  0  -0.214994  0  3.958495  0  0  -0.095636  -0.194044  0  3.924262  0
C  C52  1  0.75000223  0.25453935  0.55887982  1  0  -0.047465  0  3.722341  0  0  -0.074206  0  3.97989  0  0  -0.065492  0  3.995082  0  0  -0.067087  -0.079448  0  3.969356  0
C  C53  1  0.24999811  0.24546106  0.05888038  1  0  -0.047598  0  3.722491  0  0  -0.074338  0  3.980038  0  0  -0.065626  0  3.995237  0  0  -0.06714  -0.079579  0  3.969504  0
C  C54  1  0.75000029  0.75453731  0.94112069  1  0  -0.047464  0  3.722446  0  0  -0.074184  0  3.97999  0  0  -0.06547  0  3.995187  0  0  -0.067039  -0.079413  0  3.969443  0
C  C55  1  0.24999763  0.74546467  0.44112032  1  0  -0.047503  0  3.722432  0  0  -0.074242  0  3.979981  0  0  -0.065528  0  3.995178  0  0  -0.067058  -0.079476  0  3.969437  0
C  C56  1  0.74999923  0.05774880  0.54792342  1  0  0.039019  0  3.7589  0  0  0.021481  0  4.023856  0  0  0.009944  0  4.049138  0  0  0.063887  0.028537  0  4.007101  0
C  C57  1  0.24999961  0.44225154  0.04792317  1  0  0.039036  0  3.758918  0  0  0.021504  0  4.023858  0  0  0.009967  0  4.049139  0  0  0.063886  0.02856  0  4.007104  0
C  C58  1  0.75000024  0.55774682  0.95207650  1  0  0.039064  0  3.758821  0  0  0.021528  0  4.023774  0  0  0.009993  0  4.049053  0  0  0.063885  0.028585  0  4.007019  0
C  C59  1  0.25000063  0.94225522  0.45207719  1  0  0.038999  0  3.758867  0  0  0.02149  0  4.023784  0  0  0.009954  0  4.049067  0  0  0.063866  0.028545  0  4.007027  0
C  C60  1  0.75000088  0.98701801  0.48653801  1  0  -0.061969  0  3.748259  0  0  -0.098959  0  4.01345  0  0  -0.089583  0  4.030503  0  0  -0.070605  -0.104564  0  4.001861  0
C  C61  1  0.25000014  0.51298282  0.98653848  1  0  -0.061966  0  3.74829  0  0  -0.098978  0  4.013463  0  0  -0.089609  0  4.03051  0  0  -0.070603  -0.104584  0  4.001877  0
C  C62  1  0.74999972  0.48701554  0.01346165  1  0  -0.062056  0  3.748242  0  0  -0.099071  0  4.013428  0  0  -0.089699  0  4.03048  0  0  -0.070623  -0.104676  0  4.00184  0
C  C63  1  0.25000043  0.01298460  0.51346212  1  0  -0.061957  0  3.748219  0  0  -0.098971  0  4.013373  0  0  -0.08961  0  4.030416  0  0  -0.070584  -0.104577  0  4.001785  0
C  C64  1  0.75000030  0.01894212  0.37054449  1  0  0.68256  0  3.876826  0  0  0.618846  0  4.188366  0  0  0.653682  0  4.18166  0  0  0.217668  0.595376  0  4.192172  0
C  C65  1  0.25000134  0.48105591  0.87054432  1  0  0.682601  0  3.87671  0  0  0.618907  0  4.18821  0  0  0.653737  0  4.181501  0  0  0.217699  0.595435  0  4.192017  0
C  C66  1  0.74999997  0.51894105  0.12945581  1  0  0.682584  0  3.87673  0  0  0.61889  0  4.18823  0  0  0.653724  0  4.181526  0  0  0.217689  0.595417  0  4.192043  0
C  C67  1  0.24999956  0.98105625  0.62945612  1  0  0.682546  0  3.876855  0  0  0.618858  0  4.188325  0  0  0.653678  0  4.181622  0  0  0.217677  0.595386  0  4.192136  0
N  N68  1  0.75000050  0.43089706  0.39748705  1  0  -0.60331  0  3.139024  0  0  -0.570486  0  3.377033  0  0  -0.594869  0  3.376349  0  0  -0.549335  -0.5533  0  3.376915  0
N  N69  1  0.24999980  0.06910254  0.89748756  1  0  -0.603313  0  3.139109  0  0  -0.570485  0  3.377108  0  0  -0.594869  0  3.376425  0  0  -0.54936  -0.553299  0  3.376992  0
N  N70  1  0.75000006  0.93089724  0.10251305  1  0  -0.603303  0  3.139035  0  0  -0.570487  0  3.377065  0  0  -0.594868  0  3.376379  0  0  -0.549328  -0.553302  0  3.376949  0
N  N71  1  0.24999936  0.56910131  0.60251261  1  0  -0.603192  0  3.138977  0  0  -0.570364  0  3.376979  0  0  -0.594752  0  3.376305  0  0  -0.549265  -0.553179  0  3.37686  0
N  N72  1  0.74999964  0.93070503  0.59953331  1  0  0.463453  0  3.97359  0  0  0.512919  0  4.24862  0  0  0.534309  0  4.260701  0  0  0.01547  0.498749  0  4.240476  0
N  N73  1  0.24999976  0.56929350  0.09953376  1  0  0.463456  0  3.973619  0  0  0.512925  0  4.248655  0  0  0.534319  0  4.260727  0  0  0.015461  0.498757  0  4.240511  0
N  N74  1  0.75000009  0.43070204  0.90046638  1  0  0.463429  0  3.973528  0  0  0.512868  0  4.248601  0  0  0.534257  0  4.260677  0  0  0.01543  0.498695  0  4.240455  0
N  N75  1  0.25000021  0.06929758  0.40046683  1  0  0.463419  0  3.973455  0  0  0.512856  0  4.248525  0  0  0.534244  0  4.260596  0  0  0.015415  0.498684  0  4.240378  0
O  O76  1  0.74999912  0.83891580  0.36639676  1  0  -0.663782  0  2.005741  0  0  -0.596147  0  2.227559  0  0  -0.622217  0  2.217632  0  0  -0.313007  -0.577976  0  2.233911  0
O  O77  1  0.24999849  0.66108433  0.86639780  1  0  -0.663788  0  2.005689  0  0  -0.596175  0  2.227508  0  0  -0.622249  0  2.217587  0  0  -0.31303  -0.578001  0  2.233858  0
O  O78  1  0.74999991  0.33891404  0.13360186  1  0  -0.663821  0  2.00568  0  0  -0.5962  0  2.227486  0  0  -0.622275  0  2.217566  0  0  -0.313047  -0.578036  0  2.233857  0
O  O79  1  0.25000073  0.16108257  0.63360337  1  0  -0.663746  0  2.005739  0  0  -0.596145  0  2.227569  0  0  -0.622216  0  2.217649  0  0  -0.312992  -0.57797  0  2.233911  0
O  O80  1  0.74999733  0.13009825  0.32291061  1  0  -0.662833  0  2.024044  0  0  -0.591845  0  2.244436  0  0  -0.61714  0  2.232009  0  0  -0.304217  -0.574315  0  2.252658  0
O  O81  1  0.24999975  0.36990232  0.82291037  1  0  -0.662822  0  2.023992  0  0  -0.591855  0  2.244369  0  0  -0.617149  0  2.231943  0  0  -0.304221  -0.574325  0  2.252591  0
O  O82  1  0.75000156  0.63009605  0.17708929  1  0  -0.662804  0  2.024009  0  0  -0.591832  0  2.244384  0  0  -0.617126  0  2.231957  0  0  -0.304215  -0.574304  0  2.252611  0
O  O83  1  0.25000107  0.86990153  0.67709000  1  0  -0.662866  0  2.023976  0  0  -0.591904  0  2.244352  0  0  -0.617202  0  2.23193  0  0  -0.304262  -0.574376  0  2.252576  0
O  O84  1  0.74999956  0.75507634  0.58944220  1  0  -0.440813  0  1.781538  0  0  -0.420597  0  1.991975  0  0  -0.432655  0  1.98888  0  0  -0.204619  -0.412405  0  1.994214  0
O  O85  1  0.24999980  0.74492355  0.08944229  1  0  -0.440852  0  1.781496  0  0  -0.420642  0  1.991942  0  0  -0.432698  0  1.98884  0  0  -0.204649  -0.41245  0  1.994181  0
O  O86  1  0.75000005  0.25507199  0.91055596  1  0  -0.440817  0  1.781445  0  0  -0.420609  0  1.991903  0  0  -0.432664  0  1.988807  0  0  -0.204635  -0.412415  0  1.994143  0
O  O87  1  0.25000030  0.24492910  0.41055700  1  0  -0.440795  0  1.781352  0  0  -0.420603  0  1.991826  0  0  -0.432659  0  1.988726  0  0  -0.204609  -0.412409  0  1.994065  0
O  O88  1  0.74999978  0.99606405  0.65464032  1  0  -0.437803  0  1.771397  0  0  -0.420074  0  1.983307  0  0  -0.432048  0  1.979649  0  0  -0.216018  -0.411832  0  1.985733  0
O  O89  1  0.24999985  0.50393764  0.15464072  1  0  -0.437781  0  1.771476  0  0  -0.420054  0  1.983406  0  0  -0.432021  0  1.97973  0  0  -0.216005  -0.411802  0  1.985811  0
O  O90  1  0.75000000  0.49605931  0.84535988  1  0  -0.437786  0  1.771406  0  0  -0.420024  0  1.983299  0  0  -0.432012  0  1.979676  0  0  -0.215997  -0.411795  0  1.985761  0
O  O91  1  0.25000008  0.00393998  0.34536029  1  0  -0.437766  0  1.771412  0  0  -0.419989  0  1.983283  0  0  -0.431976  0  1.979658  0  0  -0.215965  -0.411761  0  1.985745  0
O  O92  1  0.01131753  0.34280775  0.72005642  1  0  -0.916017  0  1.791191  0  0  -0.871943  0  1.961163  0  0  -0.890427  0  1.929552  0  0  -0.744336  -0.85872  0  1.983253  0
O  O93  1  0.98868202  0.15719645  0.22005725  1  0  -0.916019  0  1.791197  0  0  -0.87196  0  1.961137  0  0  -0.890443  0  1.929519  0  0  -0.744318  -0.858736  0  1.983229  0
O  O94  1  0.48868327  0.84280632  0.77994393  1  0  -0.915991  0  1.791204  0  0  -0.871928  0  1.961163  0  0  -0.890408  0  1.929556  0  0  -0.744338  -0.858704  0  1.983254  0
O  O95  1  0.51131689  0.65719611  0.27994172  1  0  -0.91594  0  1.791287  0  0  -0.87186  0  1.961252  0  0  -0.890339  0  1.929644  0  0  -0.744287  -0.858635  0  1.983341  0
O  O96  1  0.98868378  0.65719345  0.27994371  1  0  -0.916005  0  1.791211  0  0  -0.871922  0  1.9612  0  0  -0.890398  0  1.929594  0  0  -0.744333  -0.858697  0  1.98329  0
O  O97  1  0.01131638  0.84280616  0.77994382  1  0  -0.915978  0  1.791232  0  0  -0.871896  0  1.961222  0  0  -0.890375  0  1.929617  0  0  -0.744323  -0.858673  0  1.983312  0
O  O98  1  0.51131513  0.15719487  0.22005574  1  0  -0.916011  0  1.7912  0  0  -0.871926  0  1.961194  0  0  -0.890402  0  1.929586  0  0  -0.74433  -0.858702  0  1.983285  0
O  O99  1  0.48868297  0.34280649  0.72005653  1  0  -0.915982  0  1.791249  0  0  -0.871896  0  1.961236  0  0  -0.890376  0  1.929632  0  0  -0.744311  -0.858673  0  1.983325  0
