# generated using pymatgen
data_CuH18(C5O2)2
_symmetry_space_group_name_H-M   'P 1'
_cell_length_a   5.22587899
_cell_length_b   10.47986226
_cell_length_c   10.87901397
_cell_angle_alpha   82.60399298
_cell_angle_beta   86.65422506
_cell_angle_gamma   86.41016619
_symmetry_Int_Tables_number   1
_chemical_formula_structural   CuH18(C5O2)2
_chemical_formula_sum   'Cu2 H36 C20 O8'
_cell_volume   588.92700165
_cell_formula_units_Z   2
loop_
 _symmetry_equiv_pos_site_id
 _symmetry_equiv_pos_as_xyz
  1  'x, y, z'
loop_
 _atom_site_type_symbol
 _atom_site_label
 _atom_site_symmetry_multiplicity
 _atom_site_fract_x
 _atom_site_fract_y
 _atom_site_fract_z
 _atom_site_occupancy
 _atom_site_hle17_ddec_charge
 _atom_site_hle17_ddec_spin_density
 _atom_site_hle17_ddec_sum_bond_order
 _atom_site_hle17_magmom
 _atom_site_hse06_10hf_ddec_charge
 _atom_site_hse06_10hf_ddec_spin_density
 _atom_site_hse06_10hf_ddec_sum_bond_order
 _atom_site_hse06_10hf_magmom
 _atom_site_hse06_ddec_charge
 _atom_site_hse06_ddec_spin_density
 _atom_site_hse06_ddec_sum_bond_order
 _atom_site_hse06_magmom
 _atom_site_pbe_cm5_charge
 _atom_site_pbe_ddec_charge
 _atom_site_pbe_ddec_spin_density
 _atom_site_pbe_ddec_sum_bond_order
 _atom_site_pbe_magmom
Cu  Cu0  1  0.20483524  0.04858503  0.95315227  1  0.891398  0.645078  1.813892  0.461  0.889038  0.779285  2.213626  0.612  1.008816  0.873451  2.096705  0.714  0.675154  0.822263  0.669421  2.27456  0.516
Cu  Cu1  1  0.79519847  0.95140977  0.04682996  1  0.891502  -0.645072  1.813817  -0.461  0.889064  -0.779278  2.213547  -0.612  1.008761  -0.873453  2.096778  -0.714  0.675114  0.822237  -0.66939  2.274549  -0.515
H  H2  1  0.77810085  0.23788714  0.31282597  1  0.101892  0.001181  0.93841  0.001  0.117536  0.000798  0.996589  0.001  0.118861  0.000558  0.99687  0.001  0.099315  0.116215  0.000888  0.996597  0.001
H  H3  1  0.22188750  0.76210261  0.68717010  1  0.101957  -0.00118  0.938516  -0.001  0.11756  -0.000798  0.996697  -0.001  0.11889  -0.000558  0.996971  -0.001  0.09931  0.116226  -0.000889  0.996718  -0.001
H  H4  1  0.11906390  0.23452722  0.30740427  1  0.101377  -0.000686  0.940639  -0.001  0.115845  -0.000445  1.000376  -0.001  0.117512  -0.00029  1.000058  0.0  0.101675  0.114556  -0.00051  1.000562  -0.001
H  H5  1  0.88091784  0.76546926  0.69258841  1  0.101377  0.000691  0.940689  0.001  0.115832  0.000445  1.000395  0.001  0.117496  0.000291  1.000075  0.0  0.101631  0.114542  0.000511  1.000578  0.001
H  H6  1  0.12127014  0.41092233  0.13387068  1  0.035774  0.000183  0.935893  0.0  0.051626  0.000152  0.993498  0.0  0.051623  0.000101  0.994421  0.0  0.092657  0.051623  0.000182  0.992896  0.0
H  H7  1  0.87869628  0.58907409  0.86612245  1  0.035729  -0.000183  0.936009  0.0  0.051623  -0.000153  0.993614  0.0  0.051618  -0.000101  0.994544  0.0  0.092661  0.051622  -0.000182  0.992996  0.0
H  H8  1  0.94274296  0.58681345  0.25503471  1  0.102617  -0.000197  0.976113  0.0  0.121665  -0.000144  1.040536  0.0  0.123203  -7.3e-05  1.040259  0.0  0.086829  0.120623  -0.000196  1.040709  0.0
H  H9  1  0.05725510  0.41317534  0.74496947  1  0.102527  0.000198  0.976153  0.0  0.121616  0.000144  1.040532  0.0  0.123151  7.2e-05  1.040267  0.0  0.086838  0.120576  0.000196  1.040704  0.0
H  H10  1  0.11079758  0.46347541  0.35257064  1  0.090671  3.7e-05  0.958311  0.0  0.112612  2e-06  1.020857  0.0  0.11375  2e-06  1.021205  0.0  0.083247  0.111731  4e-06  1.020657  0.0
H  H11  1  0.88919639  0.53651535  0.64741871  1  0.090625  -3.6e-05  0.958315  0.0  0.112577  -2e-06  1.020869  0.0  0.113717  -2e-06  1.021214  0.0  0.083203  0.111695  -4e-06  1.020671  0.0
H  H12  1  0.76996913  0.47337221  0.35740500  1  0.086391  7.9e-05  0.967621  0.0  0.107813  5.9e-05  1.031992  0.0  0.108674  3.8e-05  1.032766  0.0  0.081951  0.107102  7e-05  1.031545  0.0
H  H13  1  0.23004136  0.52662434  0.64259790  1  0.086359  -7.9e-05  0.967581  0.0  0.107807  -5.9e-05  1.031942  0.0  0.108669  -3.8e-05  1.032714  0.0  0.081937  0.107091  -7e-05  1.031498  0.0
H  H14  1  0.71722302  0.37210909  0.03652189  1  0.105095  -3.6e-05  0.943167  0.0  0.127887  -1.5e-05  0.999413  0.0  0.128907  -1.4e-05  0.999792  0.0  0.088765  0.127131  -1.3e-05  0.999168  0.0
H  H15  1  0.28273802  0.62788437  0.96348093  1  0.105192  3.5e-05  0.943142  0.0  0.127975  1.5e-05  0.999374  0.0  0.128997  1.3e-05  0.99975  0.0  0.088795  0.127215  1.3e-05  0.999137  0.0
H  H16  1  0.71215814  0.53334310  0.07150262  1  0.100901  -1.9e-05  0.954261  0.0  0.123473  -1.6e-05  1.014416  0.0  0.124434  -6e-06  1.015198  0.0  0.089435  0.122709  -2.5e-05  1.013974  0.0
H  H17  1  0.28781823  0.46665045  0.92849241  1  0.100932  1.7e-05  0.954374  0.0  0.123534  1.6e-05  1.014454  0.0  0.124495  6e-06  1.015236  0.0  0.089448  0.122787  2.5e-05  1.013991  0.0
H  H18  1  0.53351103  0.41683419  0.16805393  1  0.094595  5e-06  0.954398  0.0  0.11795  1.3e-05  1.014608  0.0  0.119056  7e-06  1.015246  0.0  0.085681  0.117119  1.9e-05  1.014157  0.0
H  H19  1  0.46645465  0.58316797  0.83194679  1  0.094657  -7e-06  0.954431  0.0  0.117971  -1.3e-05  1.01465  0.0  0.11908  -7e-06  1.015283  0.0  0.085719  0.117145  -1.9e-05  1.014202  0.0
H  H20  1  0.42611245  0.28127175  0.78424455  1  0.116101  0.000754  0.939296  0.001  0.127442  0.000515  1.003036  0.001  0.129286  0.000311  1.002854  0.0  0.104282  0.125839  0.000605  1.003561  0.001
H  H21  1  0.57394305  0.71873261  0.21578004  1  0.116165  -0.000761  0.939173  -0.001  0.127584  -0.000515  1.002954  -0.001  0.129419  -0.000311  1.002769  0.0  0.104359  0.125978  -0.000604  1.003475  -0.001
H  H22  1  0.72033143  0.32426437  0.70221862  1  0.099083  -0.00103  0.953611  -0.001  0.116004  -0.0007  1.010775  -0.001  0.118285  -0.000484  1.010256  -0.001  0.098506  0.114222  -0.000791  1.011172  -0.001
H  H23  1  0.27969360  0.67575349  0.29777211  1  0.099051  0.001029  0.953749  0.001  0.116063  0.0007  1.010915  0.001  0.118344  0.000483  1.010398  0.001  0.098519  0.114277  0.000791  1.01131  0.001
H  H24  1  0.39691851  0.09754550  0.67378503  1  0.051575  -0.000116  0.921625  0.0  0.065413  -8.6e-05  0.980566  0.0  0.065673  -8.2e-05  0.981286  0.0  0.09475  0.065109  -7.7e-05  0.980433  0.0
H  H25  1  0.60309090  0.90245964  0.32623985  1  0.051492  0.000111  0.921652  0.0  0.065453  8.5e-05  0.980411  0.0  0.065705  8.2e-05  0.981137  0.0  0.094732  0.065142  7.7e-05  0.980295  0.0
H  H26  1  0.72619040  0.04338119  0.50681258  1  0.098516  1.6e-05  0.957355  0.0  0.123419  6e-06  1.01554  0.0  0.124275  5e-06  1.016548  0.0  0.088393  0.12272  4e-06  1.014919  0.0
H  H27  1  0.27380509  0.95662782  0.49319476  1  0.098469  -1.4e-05  0.957499  0.0  0.123397  -5e-06  1.01564  0.0  0.124254  -5e-06  1.016647  0.0  0.088401  0.122722  -4e-06  1.01499  0.0
H  H28  1  0.85367954  0.01826704  0.65626319  1  0.101138  -1.3e-05  0.967849  0.0  0.122352  5e-06  1.028994  0.0  0.1232  -8e-06  1.029616  0.0  0.086044  0.121774  1.8e-05  1.028466  0.0
H  H29  1  0.14633486  0.98174400  0.34373785  1  0.101151  1.5e-05  0.967821  0.0  0.122337  -6e-06  1.029004  0.0  0.123184  8e-06  1.029628  0.0  0.08606  0.121753  -1.7e-05  1.028489  0.0
H  H30  1  0.92965650  0.15637338  0.55234552  1  0.09482  3.5e-05  0.963999  0.0  0.118833  3.2e-05  1.026079  0.0  0.11956  2.1e-05  1.02742  0.0  0.085788  0.118232  3.8e-05  1.025193  0.0
H  H31  1  0.07033274  0.84363948  0.44765601  1  0.09477  -3.2e-05  0.964022  0.0  0.118792  -3.2e-05  1.0261  0.0  0.119518  -2e-05  1.027444  0.0  0.085739  0.118189  -3.8e-05  1.025222  0.0
H  H32  1  0.37676781  0.20918324  0.45477961  1  0.091242  7.7e-05  0.973422  0.0  0.111747  4.7e-05  1.038463  0.0  0.113057  2.8e-05  1.038277  0.0  0.085875  0.110907  5.4e-05  1.038473  0.0
H  H33  1  0.62321864  0.79080642  0.54523582  1  0.091173  -7.8e-05  0.973488  0.0  0.111712  -4.6e-05  1.038479  0.0  0.113025  -2.9e-05  1.038294  0.0  0.085852  0.110869  -5.4e-05  1.038493  0.0
H  H34  1  0.55628489  0.33441692  0.49555122  1  0.085336  -2.5e-05  0.969176  0.0  0.106944  -2.3e-05  1.034366  0.0  0.108244  -1.6e-05  1.034351  0.0  0.081558  0.105909  -2.6e-05  1.03449  0.0
H  H35  1  0.44369013  0.66558720  0.50445361  1  0.085283  2.6e-05  0.969152  0.0  0.106875  2.4e-05  1.034356  0.0  0.108183  1.6e-05  1.034335  0.0  0.081531  0.10584  2.6e-05  1.034474  0.0
H  H36  1  0.24402572  0.30991764  0.56496851  1  0.096766  1.1e-05  0.967825  0.0  0.117989  3.4e-05  1.032005  0.0  0.119095  2.2e-05  1.032532  0.0  0.086653  0.117154  4.3e-05  1.031624  0.0
H  H37  1  0.75594658  0.69007775  0.43504571  1  0.096769  -1e-05  0.967895  0.0  0.117972  -3.4e-05  1.032089  0.0  0.119083  -2.2e-05  1.032627  0.0  0.086634  0.117133  -4.3e-05  1.031712  0.0
C  C38  1  0.96648840  0.16214135  0.15607576  1  0.687552  -0.00013  3.821053  0.0  0.653461  -7.2e-05  4.126281  0.0  0.694163  -5.2e-05  4.122574  0.0  0.214085  0.625706  -6.8e-05  4.13036  0.0
C  C39  1  0.03349811  0.83786286  0.84391678  1  0.687751  0.000147  3.820696  0.0  0.653666  7.6e-05  4.125847  0.0  0.694345  5.6e-05  4.122154  0.0  0.214191  0.625907  7.2e-05  4.129941  0.0
C  C40  1  0.94938191  0.25621848  0.25137377  1  -0.285546  -0.000533  3.637396  -0.001  -0.326228  -0.000229  3.875182  -0.001  -0.334964  -7.5e-05  3.884037  0.0  -0.158535  -0.318809  -0.000365  3.868187  -0.001
C  C41  1  0.05060163  0.74377898  0.74861690  1  -0.285781  0.000518  3.637392  0.001  -0.326335  0.000231  3.875097  0.001  -0.335063  7.4e-05  3.883953  0.0  -0.158525  -0.318904  0.000368  3.868105  0.001
C  C42  1  0.94465798  0.39775699  0.19327673  1  0.131981  -0.001297  3.657875  -0.001  0.141381  -0.000718  3.892356  -0.001  0.142413  -0.000453  3.910783  -0.001  -0.090969  0.140589  -0.000847  3.879494  -0.001
C  C43  1  0.05530986  0.60224327  0.80672048  1  0.132247  0.001292  3.657422  0.001  0.141447  0.000718  3.892125  0.001  0.142476  0.000453  3.910551  0.001  -0.090985  0.140659  0.000847  3.879264  0.001
C  C44  1  0.94307294  0.48519370  0.29532463  1  -0.324639  -0.001154  3.695831  -0.001  -0.403398  -0.000715  3.938349  -0.001  -0.406668  -0.000435  3.949807  -0.001  -0.246288  -0.400735  -0.000864  3.930229  -0.001
C  C45  1  0.05691888  0.51479895  0.70467375  1  -0.324515  0.001154  3.695615  0.001  -0.403301  0.000715  3.938199  0.001  -0.406579  0.000435  3.949672  0.001  -0.246242  -0.400636  0.000864  3.930086  0.001
C  C46  1  0.71449756  0.43190095  0.11256313  1  -0.319782  0.000133  3.671589  0.0  -0.397996  5e-05  3.913596  0.0  -0.400972  3.1e-05  3.925326  0.0  -0.244731  -0.395637  5.9e-05  3.905395  0.0
C  C47  1  0.28547257  0.56809642  0.88743621  1  -0.32008  -0.000123  3.671553  0.0  -0.398221  -4.9e-05  3.913641  0.0  -0.401196  -3.1e-05  3.925362  0.0  -0.244789  -0.395877  -5.9e-05  3.905446  0.0
C  C48  1  0.75476312  0.16073577  0.83941409  1  0.708709  -0.002102  3.785802  -0.003  0.676276  -0.000873  4.079507  -0.002  0.718107  -0.000994  4.074199  -0.002  0.224252  0.64768  -0.000684  4.084071  -0.002
C  C49  1  0.24530553  0.83927067  0.16058414  1  0.709214  0.002085  3.785684  0.003  0.677049  0.000874  4.079072  0.002  0.718884  0.000992  4.073731  0.002  0.224457  0.648445  0.000684  4.083645  0.002
C  C50  1  0.60507616  0.24330795  0.74096543  1  -0.296942  0.00227  3.618146  0.003  -0.338888  0.001224  3.854764  0.002  -0.348863  0.000813  3.863901  0.001  -0.160451  -0.330924  0.001282  3.847919  0.002
C  C51  1  0.39496482  0.75670512  0.25903462  1  -0.297051  -0.00224  3.618018  -0.003  -0.339481  -0.001224  3.855044  -0.002  -0.349446  -0.000808  3.864162  -0.001  -0.160534  -0.331508  -0.001281  3.848187  -0.002
C  C52  1  0.54010048  0.16669102  0.63551882  1  0.13152  0.000453  3.627061  0.0  0.140866  0.000272  3.865186  0.0  0.141956  0.000151  3.883191  0.0  -0.089001  0.140031  0.000335  3.852669  0.0
C  C53  1  0.45991514  0.83331038  0.36448243  1  0.131691  -0.00044  3.62695  0.0  0.141178  -0.000272  3.864915  0.0  0.142277  -0.000154  3.882915  0.0  -0.088926  0.140345  -0.000335  3.852394  0.0
C  C54  1  0.77525288  0.09190924  0.58528791  1  -0.324798  -4.7e-05  3.673894  0.0  -0.403449  3e-06  3.910078  0.0  -0.406088  -2.2e-05  3.921527  0.0  -0.249028  -0.40129  2.4e-05  3.902028  0.0
C  C55  1  0.22475830  0.90809696  0.41471381  1  -0.324778  3e-05  3.673873  0.0  -0.403458  -2e-06  3.910017  0.0  -0.4061  2.2e-05  3.921468  0.0  -0.249009  -0.401316  -2.3e-05  3.901956  0.0
C  C56  1  0.42142149  0.26046748  0.53218079  1  -0.324999  0.000369  3.705422  0.0  -0.4064  0.000227  3.952037  0.0  -0.409134  0.000144  3.962589  0.0  -0.245773  -0.404073  0.000262  3.944488  0.0
C  C57  1  0.57855533  0.73953760  0.46782571  1  -0.32493  -0.000369  3.705618  0.0  -0.406362  -0.000227  3.952167  0.0  -0.409116  -0.000142  3.962722  0.0  -0.245755  -0.404031  -0.000261  3.944613  0.0
O  O58  1  0.15487570  0.17190700  0.07619145  1  -0.567078  0.080349  2.046854  0.105  -0.546977  0.055296  2.320122  0.079  -0.594008  0.044671  2.311031  0.068  -0.316136  -0.519286  0.056573  2.32676  0.078
O  O59  1  0.84509165  0.82809716  0.92379612  1  -0.567272  -0.080374  2.046744  -0.105  -0.547093  -0.055309  2.319926  -0.079  -0.594106  -0.044681  2.310861  -0.068  -0.316297  -0.519383  -0.056592  2.326557  -0.078
O  O60  1  0.20725440  0.91940663  0.83569544  1  -0.575662  0.079696  2.056469  0.104  -0.555625  0.054917  2.333378  0.079  -0.602745  0.043982  2.323814  0.067  -0.315148  -0.527689  0.056693  2.340169  0.078
O  O61  1  0.79274909  0.08056963  0.16431470  1  -0.575675  -0.079723  2.056345  -0.104  -0.5556  -0.054933  2.333251  -0.079  -0.60271  -0.043989  2.323673  -0.067  -0.315171  -0.527651  -0.056717  2.340037  -0.078
O  O62  1  0.99657712  0.17051597  0.83678076  1  -0.572459  0.082782  2.055888  0.109  -0.544198  0.058926  2.328503  0.085  -0.590158  0.047676  2.318781  0.073  -0.302843  -0.516709  0.059493  2.335242  0.083
O  O63  1  0.00350689  0.82947522  0.16319222  1  -0.572594  -0.082763  2.05605  -0.109  -0.544383  -0.058918  2.328566  -0.085  -0.590331  -0.047667  2.318849  -0.073  -0.302838  -0.516876  -0.059494  2.335298  -0.083
O  O64  1  0.37100070  0.91736979  0.08284230  1  -0.613422  0.059471  2.165496  0.077  -0.58487  0.044298  2.46001  0.063  -0.638977  0.03683  2.447654  0.055  -0.316122  -0.552236  0.045132  2.467942  0.062
O  O65  1  0.62906160  0.08264145  0.91715461  1  -0.613129  -0.059456  2.165733  -0.077  -0.584392  -0.044294  2.460177  -0.063  -0.638493  -0.036826  2.447846  -0.055  -0.315928  -0.551769  -0.04513  2.468119  -0.062
