# generated using pymatgen
data_CdH22C22N4O7
_symmetry_space_group_name_H-M   'P 1'
_cell_length_a   17.32055883
_cell_length_b   17.32054504
_cell_length_c   17.32055260
_cell_angle_alpha   65.49970138
_cell_angle_beta   65.49975792
_cell_angle_gamma   65.49974412
_symmetry_Int_Tables_number   1
_chemical_formula_structural   CdH22C22N4O7
_chemical_formula_sum   'Cd6 H132 C132 N24 O42'
_cell_volume   4113.57425431
_cell_formula_units_Z   6
loop_
 _symmetry_equiv_pos_site_id
 _symmetry_equiv_pos_as_xyz
  1  'x, y, z'
loop_
 _atom_site_type_symbol
 _atom_site_label
 _atom_site_symmetry_multiplicity
 _atom_site_fract_x
 _atom_site_fract_y
 _atom_site_fract_z
 _atom_site_occupancy
 _atom_site_pbe_bader_charge
 _atom_site_pbe_bader_spin_density
 _atom_site_pbe_cm5_charge
 _atom_site_pbe_ddec_charge
 _atom_site_pbe_ddec_spin_density
 _atom_site_pbe_ddec_sum_bond_order
 _atom_site_pbe_magmom
Cd  Cd0  1  0.33911369  0.75000085  0.16088523  1  1.278549  0  0.76675  0.885239  0  2.202776  0
Cd  Cd1  1  0.74999979  0.16088278  0.33911207  1  1.278513  0  0.766722  0.885211  0  2.202723  0
Cd  Cd2  1  0.16088480  0.33911357  0.74999709  1  1.278471  0  0.766727  0.885236  0  2.202646  0
Cd  Cd3  1  0.66088824  0.24999973  0.83911617  1  1.278544  0  0.766745  0.885264  0  2.202726  0
Cd  Cd4  1  0.25000016  0.83911649  0.66088493  1  1.278547  0  0.766763  0.88526  0  2.202721  0
Cd  Cd5  1  0.83911581  0.66088614  0.24999945  1  1.278505  0  0.766754  0.885233  0  2.202696  0
H  H6  1  0.58508785  0.81031693  0.35366948  1  0.537367  0  0.303749  0.284621  0  0.992589  0
H  H7  1  0.81031766  0.35366910  0.58508754  1  0.537263  0  0.303732  0.284585  0  0.992628  0
H  H8  1  0.35366965  0.58508713  0.81031851  1  0.53709  0  0.30375  0.284617  0  0.992596  0
H  H9  1  0.91491155  0.14632893  0.68968285  1  0.537063  0  0.303747  0.284608  0  0.992612  0
H  H10  1  0.68968234  0.91491151  0.14632859  1  0.537093  0  0.303752  0.284628  0  0.992575  0
H  H11  1  0.14632809  0.68968239  0.91491316  1  0.537119  0  0.303747  0.284604  0  0.992608  0
H  H12  1  0.41491143  0.18968380  0.64633007  1  0.537078  0  0.30373  0.284597  0  0.992604  0
H  H13  1  0.18968228  0.64633080  0.41491381  1  0.537376  0  0.303726  0.284598  0  0.992664  0
H  H14  1  0.64633095  0.41491321  0.18968355  1  0.537353  0  0.303731  0.284576  0  0.992631  0
H  H15  1  0.08508905  0.85367205  0.31031663  1  0.53705  0  0.303737  0.284587  0  0.992595  0
H  H16  1  0.31031760  0.08508712  0.85367098  1  0.537143  0  0.30378  0.284669  0  0.992554  0
H  H17  1  0.85367052  0.31031600  0.08508706  1  0.537111  0  0.303773  0.284672  0  0.992566  0
H  H18  1  0.29157060  0.89872249  0.25536377  1  0.082378  0  0.115993  0.087432  0  1.001745  0
H  H19  1  0.89872214  0.25536436  0.29157053  1  0.082392  0  0.11599  0.087411  0  1.001761  0
H  H20  1  0.25536569  0.29157088  0.89872156  1  0.082411  0  0.115977  0.087396  0  1.001776  0
H  H21  1  0.20842987  0.24462884  0.60127789  1  0.082263  0  0.115986  0.087415  0  1.001751  0
H  H22  1  0.60127740  0.20842979  0.24463100  1  0.082433  0  0.11598  0.08739  0  1.001729  0
H  H23  1  0.24463018  0.60127886  0.20842974  1  0.082421  0  0.115993  0.087439  0  1.00176  0
H  H24  1  0.70842868  0.10127761  0.74463547  1  0.0824  0  0.115995  0.087417  0  1.00177  0
H  H25  1  0.10127780  0.74463618  0.70842941  1  0.082363  0  0.115991  0.087432  0  1.001745  0
H  H26  1  0.74463624  0.70843034  0.10127727  1  0.082366  0  0.115991  0.087443  0  1.001772  0
H  H27  1  0.79156941  0.75537062  0.39872219  1  0.082411  0  0.11599  0.087413  0  1.001779  0
H  H28  1  0.39872188  0.79156904  0.75536991  1  0.082403  0  0.115975  0.087412  0  1.001748  0
H  H29  1  0.75536910  0.39872187  0.79156923  1  0.082412  0  0.115977  0.08739  0  1.001763  0
H  H30  1  0.35823900  0.94686512  0.32440631  1  0.143611  0  0.113935  0.136911  0  1.021014  0
H  H31  1  0.94686481  0.32440686  0.35823924  1  0.143784  0  0.113938  0.136937  0  1.020999  0
H  H32  1  0.32440806  0.35824024  0.94686358  1  0.143814  0  0.113937  0.136926  0  1.020988  0
H  H33  1  0.14175948  0.17558896  0.55313468  1  0.143716  0  0.113934  0.136931  0  1.021036  0
H  H34  1  0.55313473  0.14175857  0.17559081  1  0.143765  0  0.113943  0.136921  0  1.021008  0
H  H35  1  0.17559113  0.55313444  0.14175974  1  0.143766  0  0.113933  0.136941  0  1.02101  0
H  H36  1  0.64175961  0.05313517  0.67559428  1  0.143798  0  0.113934  0.136901  0  1.02103  0
H  H37  1  0.05313513  0.67559367  0.64176012  1  0.143818  0  0.113953  0.13695  0  1.021023  0
H  H38  1  0.67559189  0.64176157  0.05313583  1  0.143808  0  0.113946  0.136941  0  1.021025  0
H  H39  1  0.85824046  0.82440968  0.44686488  1  0.143739  0  0.113929  0.136934  0  1.021033  0
H  H40  1  0.44686521  0.85824006  0.82440934  1  0.143742  0  0.113943  0.136944  0  1.021048  0
H  H41  1  0.82440948  0.44686400  0.85824137  1  0.14378  0  0.113948  0.136934  0  1.021003  0
H  H42  1  0.58563271  0.71657089  0.29380042  1  0.119208  0  0.110741  0.133872  0  1.016522  0
H  H43  1  0.71657024  0.29379970  0.58563385  1  0.119196  0  0.110735  0.133816  0  1.01649  0
H  H44  1  0.29379643  0.58563648  0.71657097  1  0.119203  0  0.110722  0.133796  0  1.016535  0
H  H45  1  0.91436604  0.20620093  0.78342756  1  0.119225  0  0.110764  0.133872  0  1.016468  0
H  H46  1  0.78342712  0.91436550  0.20620271  1  0.119238  0  0.110744  0.133816  0  1.016528  0
H  H47  1  0.20620130  0.78342663  0.91436601  1  0.119232  0  0.110728  0.133827  0  1.016525  0
H  H48  1  0.41436723  0.28343028  0.70619867  1  0.119192  0  0.110733  0.133834  0  1.016535  0
H  H49  1  0.28342904  0.70619976  0.41436738  1  0.119223  0  0.11073  0.13383  0  1.016533  0
H  H50  1  0.70620019  0.41436693  0.28343031  1  0.119223  0  0.110741  0.133823  0  1.016504  0
H  H51  1  0.08563391  0.79379897  0.21657379  1  0.119257  0  0.110745  0.133857  0  1.016494  0
H  H52  1  0.21657415  0.08563274  0.79379993  1  0.119263  0  0.110758  0.133885  0  1.01648  0
H  H53  1  0.79379931  0.21657181  0.08563452  1  0.119235  0  0.11074  0.133812  0  1.016486  0
H  H54  1  0.50915494  0.67854545  0.22540993  1  0.089567  0  0.113881  0.086734  0  1.013366  0
H  H55  1  0.67854601  0.22540981  0.50915496  1  0.089586  0  0.11388  0.086722  0  1.01336  0
H  H56  1  0.22540982  0.50915405  0.67854651  1  0.089581  0  0.113887  0.086722  0  1.013391  0
H  H57  1  0.99084579  0.27459038  0.82145196  1  0.089635  0  0.113893  0.086709  0  1.013343  0
H  H58  1  0.82145334  0.99084577  0.27458895  1  0.089631  0  0.113898  0.086715  0  1.013335  0
H  H59  1  0.27459057  0.82145210  0.99084465  1  0.089616  0  0.113888  0.086712  0  1.013326  0
H  H60  1  0.49084567  0.32145362  0.77459034  1  0.089584  0  0.113881  0.086725  0  1.013384  0
H  H61  1  0.32145327  0.77459092  0.49084575  1  0.089586  0  0.113894  0.086736  0  1.013384  0
H  H62  1  0.77459079  0.49084630  0.32145381  1  0.089568  0  0.113876  0.086739  0  1.013366  0
H  H63  1  0.00915482  0.72540933  0.17854862  1  0.089638  0  0.113885  0.086704  0  1.013323  0
H  H64  1  0.17854793  0.00915501  0.72540976  1  0.089607  0  0.113895  0.086738  0  1.013308  0
H  H65  1  0.72541004  0.17854697  0.00915388  1  0.089603  0  0.113891  0.086742  0  1.013333  0
H  H66  1  0.62415719  0.91244255  0.37390884  1  0.060395  0  0.098209  0.108624  0  1.008132  0
H  H67  1  0.91244260  0.37390812  0.62415742  1  0.060503  0  0.098187  0.108568  0  1.008081  0
H  H68  1  0.37390856  0.62415828  0.91244274  1  0.060313  0  0.098205  0.108605  0  1.008089  0
H  H69  1  0.87583954  0.12608760  0.58756112  1  0.060408  0  0.09821  0.108561  0  1.008147  0
H  H70  1  0.58756072  0.87583896  0.12608888  1  0.060372  0  0.098202  0.108538  0  1.008152  0
H  H71  1  0.12608853  0.58756048  0.87583997  1  0.060301  0  0.098221  0.108608  0  1.008112  0
H  H72  1  0.37584143  0.08755774  0.62609174  1  0.0605  0  0.09819  0.108552  0  1.008078  0
H  H73  1  0.08755734  0.62609115  0.37584189  1  0.060314  0  0.098204  0.108608  0  1.008093  0
H  H74  1  0.62609271  0.37584313  0.08755686  1  0.060501  0  0.098164  0.108549  0  1.008095  0
H  H75  1  0.12415907  0.87391205  0.41244030  1  0.060422  0  0.098201  0.108561  0  1.008124  0
H  H76  1  0.41243922  0.12416157  0.87391048  1  0.060351  0  0.098218  0.108613  0  1.008125  0
H  H77  1  0.87391141  0.41243878  0.12416107  1  0.060295  0  0.098198  0.108558  0  1.008132  0
H  H78  1  0.56893879  0.85877925  0.48166760  1  0.058326  0  0.106716  0.124609  0  0.971003  0
H  H79  1  0.85878026  0.48166706  0.56893755  1  0.058345  0  0.106732  0.124607  0  0.971013  0
H  H80  1  0.48166691  0.56893852  0.85878098  1  0.058354  0  0.106735  0.12463  0  0.970997  0
H  H81  1  0.93106130  0.01832943  0.64122030  1  0.058221  0  0.106712  0.124631  0  0.971023  0
H  H82  1  0.64122170  0.93106017  0.01832935  1  0.05827  0  0.106703  0.124599  0  0.971038  0
H  H83  1  0.01832886  0.64122072  0.93106212  1  0.05821  0  0.106696  0.124608  0  0.971054  0
H  H84  1  0.43106049  0.14122084  0.51833164  1  0.05833  0  0.106712  0.1246  0  0.970997  0
H  H85  1  0.14121902  0.51833304  0.43106169  1  0.058359  0  0.106736  0.124627  0  0.970995  0
H  H86  1  0.51833370  0.43106245  0.14121850  1  0.058377  0  0.106742  0.124634  0  0.971011  0
H  H87  1  0.06893798  0.98167130  0.35877867  1  0.058215  0  0.106701  0.124616  0  0.971037  0
H  H88  1  0.35877957  0.06893807  0.98166926  1  0.058235  0  0.106712  0.124623  0  0.971045  0
H  H89  1  0.98167108  0.35877855  0.06893892  1  0.058282  0  0.106694  0.124605  0  0.971042  0
H  H90  1  0.59512621  0.00654804  0.45646335  1  0.040499  0  0.089356  0.088093  0  1.002012  0
H  H91  1  0.00654889  0.45646244  0.59512665  1  0.040497  0  0.089354  0.088093  0  1.001998  0
H  H92  1  0.45646328  0.59512861  0.00654827  1  0.040452  0  0.089353  0.088073  0  1.002056  0
H  H93  1  0.90487408  0.04353337  0.49345222  1  0.040425  0  0.089351  0.088072  0  1.002071  0
H  H94  1  0.49345219  0.90487289  0.04353303  1  0.040409  0  0.089343  0.088059  0  1.002032  0
H  H95  1  0.04353454  0.49345206  0.90487274  1  0.040439  0  0.089344  0.088051  0  1.002068  0
H  H96  1  0.40487307  0.99345016  0.54353610  1  0.040571  0  0.089365  0.088117  0  1.002033  0
H  H97  1  0.99345105  0.54353682  0.40487266  1  0.040479  0  0.089342  0.08808  0  1.002029  0
H  H98  1  0.54353732  0.40487364  0.99345126  1  0.040512  0  0.089359  0.088094  0  1.002023  0
H  H99  1  0.09512785  0.95646721  0.50654745  1  0.040419  0  0.089347  0.088069  0  1.002038  0
H  H100  1  0.50654709  0.09512721  0.95646621  1  0.04044  0  0.089332  0.088039  0  1.002057  0
H  H101  1  0.95646540  0.50654784  0.09512804  1  0.040437  0  0.089359  0.088083  0  1.002024  0
H  H102  1  0.51010336  0.06122549  0.40434310  1  0.002028  0  0.085931  0.077143  0  0.998211  0
H  H103  1  0.06122649  0.40434245  0.51010329  1  0.002014  0  0.085927  0.077142  0  0.998184  0
H  H104  1  0.40434344  0.51010500  0.06122529  1  0.002054  0  0.085936  0.077159  0  0.998193  0
H  H105  1  0.98989292  0.09565852  0.43877556  1  0.002065  0  0.085936  0.077158  0  0.998159  0
H  H106  1  0.43877592  0.98989217  0.09565711  1  0.002092  0  0.085931  0.07716  0  0.998169  0
H  H107  1  0.09565773  0.43877613  0.98989238  1  0.002078  0  0.085941  0.07716  0  0.998142  0
H  H108  1  0.48989592  0.93877334  0.59565666  1  0.002025  0  0.085946  0.077205  0  0.99814  0
H  H109  1  0.93877345  0.59565808  0.48989607  1  0.002018  0  0.085938  0.077172  0  0.99814  0
H  H110  1  0.59565849  0.48989686  0.93877212  1  0.001987  0  0.08592  0.077132  0  0.998168  0
H  H111  1  0.01010768  0.90434309  0.56122423  1  0.002082  0  0.085937  0.077173  0  0.998171  0
H  H112  1  0.56122402  0.01010837  0.90434167  1  0.002073  0  0.08594  0.077166  0  0.998165  0
H  H113  1  0.90434155  0.56122460  0.01010775  1  0.002068  0  0.085942  0.077182  0  0.998157  0
H  H114  1  0.03960748  0.98719400  0.23764985  1  0.120727  0  0.102957  0.094177  0  1.080882  0
H  H115  1  0.98719402  0.23764912  0.03960713  1  0.120728  0  0.102976  0.094238  0  1.080834  0
H  H116  1  0.23764761  0.03960775  0.98719409  1  0.120746  0  0.102981  0.094239  0  1.080852  0
H  H117  1  0.46039296  0.26235180  0.51280804  1  0.120737  0  0.10297  0.094223  0  1.080877  0
H  H118  1  0.51280813  0.46039226  0.26235282  1  0.120745  0  0.102972  0.094233  0  1.080885  0
H  H119  1  0.26235430  0.51280663  0.46039196  1  0.120773  0  0.102998  0.094248  0  1.080883  0
H  H120  1  0.96039246  0.01280653  0.76235066  1  0.120718  0  0.102959  0.094172  0  1.080891  0
H  H121  1  0.01280460  0.76235181  0.96039320  1  0.120755  0  0.102969  0.094209  0  1.080864  0
H  H122  1  0.76235101  0.96039254  0.01280592  1  0.12072  0  0.10297  0.09423  0  1.080837  0
H  H123  1  0.53960898  0.73764688  0.48719126  1  0.120679  0  0.102965  0.094216  0  1.080897  0
H  H124  1  0.48719248  0.53960808  0.73764750  1  0.120749  0  0.102974  0.09425  0  1.080872  0
H  H125  1  0.73764697  0.48719289  0.53960785  1  0.120748  0  0.102979  0.094239  0  1.080871  0
H  H126  1  0.47713065  0.80265700  0.98261371  1  0.653162  0  0.300429  0.40143  0  0.917937  0
H  H127  1  0.80265658  0.98261333  0.47712894  1  0.653045  0  0.300441  0.401413  0  0.917954  0
H  H128  1  0.98261302  0.47713016  0.80265780  1  0.653142  0  0.300425  0.401424  0  0.917946  0
H  H129  1  0.02285648  0.51737715  0.69734214  1  0.653053  0  0.30039  0.401393  0  0.917996  0
H  H130  1  0.69734150  0.02285614  0.51737584  1  0.653116  0  0.300416  0.401421  0  0.917967  0
H  H131  1  0.51737706  0.69734327  0.02285702  1  0.653054  0  0.300446  0.401455  0  0.917916  0
H  H132  1  0.52286863  0.19734056  0.01738889  1  0.653193  0  0.30046  0.401462  0  0.917908  0
H  H133  1  0.19734269  0.01738740  0.52287119  1  0.653032  0  0.300433  0.40141  0  0.917962  0
H  H134  1  0.01738692  0.52287038  0.19734098  1  0.653135  0  0.300416  0.401407  0  0.917964  0
H  H135  1  0.97714280  0.48262422  0.30265484  1  0.653082  0  0.300449  0.401463  0  0.917903  0
H  H136  1  0.30265778  0.97714395  0.48262398  1  0.653127  0  0.300412  0.401431  0  0.917944  0
H  H137  1  0.48262156  0.30265638  0.97714498  1  0.65306  0  0.300447  0.401481  0  0.91788  0
C  C138  1  0.35691309  0.86020160  0.26484190  1  0.504491  0  0.04523  0.103939  0  3.989329  0
C  C139  1  0.86020211  0.26484188  0.35691269  1  0.504473  0  0.045274  0.104004  0  3.989309  0
C  C140  1  0.26484219  0.35691353  0.86020261  1  0.504286  0  0.045248  0.103958  0  3.989422  0
C  C141  1  0.14308872  0.23515212  0.63979745  1  0.504803  0  0.045246  0.103931  0  3.989318  0
C  C142  1  0.63979678  0.14308712  0.23515476  1  0.504336  0  0.045254  0.103998  0  3.989272  0
C  C143  1  0.23515499  0.63979774  0.14308766  1  0.504364  0  0.045235  0.103907  0  3.98937  0
C  C144  1  0.64308752  0.13979811  0.73515695  1  0.504368  0  0.045269  0.10401  0  3.989388  0
C  C145  1  0.13979783  0.73515865  0.64308783  1  0.504489  0  0.04526  0.10394  0  3.989357  0
C  C146  1  0.73515841  0.64308872  0.13979750  1  0.504458  0  0.045232  0.103892  0  3.989382  0
C  C147  1  0.85691189  0.76484441  0.36020445  1  0.504361  0  0.045223  0.103964  0  3.989304  0
C  C148  1  0.36020316  0.85691088  0.76484680  1  0.504353  0  0.045256  0.10399  0  3.989298  0
C  C149  1  0.76484562  0.36020324  0.85691182  1  0.504323  0  0.045235  0.10399  0  3.989312  0
C  C150  1  0.39348979  0.88700335  0.30375802  1  -0.0594  0  -0.090939  -0.231184  0  3.922526  0
C  C151  1  0.88700345  0.30375880  0.39348940  1  -0.059592  0  -0.09093  -0.231222  0  3.922508  0
C  C152  1  0.30375967  0.39348967  0.88700241  1  -0.05954  0  -0.090914  -0.231121  0  3.922554  0
C  C153  1  0.10651069  0.19623591  0.61299732  1  -0.059607  0  -0.090918  -0.231168  0  3.922433  0
C  C154  1  0.61299611  0.10650892  0.19624055  1  -0.059567  0  -0.090939  -0.231197  0  3.922451  0
C  C155  1  0.19623950  0.61299696  0.10650954  1  -0.059585  0  -0.090944  -0.231217  0  3.922535  0
C  C156  1  0.60651015  0.11299655  0.69624160  1  -0.059526  0  -0.090939  -0.231159  0  3.922581  0
C  C157  1  0.11299650  0.69624173  0.60651169  1  -0.059633  0  -0.09097  -0.231215  0  3.922524  0
C  C158  1  0.69624093  0.60651194  0.11299738  1  -0.059616  0  -0.090957  -0.231206  0  3.922481  0
C  C159  1  0.89349124  0.80376087  0.38700450  1  -0.059578  0  -0.090943  -0.23124  0  3.922454  0
C  C160  1  0.38700384  0.89348844  0.80376185  1  -0.059635  0  -0.090969  -0.231255  0  3.922479  0
C  C161  1  0.80376045  0.38700294  0.89348950  1  -0.059602  0  -0.090939  -0.231168  0  3.922527  0
C  C162  1  0.47780175  0.83514965  0.31512358  1  0.345952  0  0.122324  0.299338  0  4.006421  0
C  C163  1  0.83515003  0.31512275  0.47780221  1  0.34613  0  0.122329  0.299386  0  4.006364  0
C  C164  1  0.31512315  0.47780234  0.83514872  1  0.346155  0  0.122332  0.2993  0  4.006528  0
C  C165  1  0.02219875  0.18487295  0.66484933  1  0.345956  0  0.122403  0.299448  0  4.006291  0
C  C166  1  0.66484821  0.02219784  0.18487533  1  0.345947  0  0.122376  0.299405  0  4.006339  0
C  C167  1  0.18487467  0.66484949  0.02219918  1  0.345994  0  0.122351  0.299375  0  4.006429  0
C  C168  1  0.52219886  0.16485069  0.68487559  1  0.346077  0  0.122317  0.299293  0  4.006491  0
C  C169  1  0.16485057  0.68487632  0.52219979  1  0.346081  0  0.122304  0.299296  0  4.006404  0
C  C170  1  0.68487547  0.52219922  0.16485250  1  0.346105  0  0.122352  0.299351  0  4.006321  0
C  C171  1  0.97780053  0.81512714  0.33515164  1  0.345969  0  0.122399  0.299451  0  4.006345  0
C  C172  1  0.33515173  0.97779952  0.81512708  1  0.345931  0  0.12239  0.299436  0  4.006272  0
C  C173  1  0.81512661  0.33514939  0.97779974  1  0.345935  0  0.122315  0.299284  0  4.006455  0
C  C174  1  0.52014769  0.75837511  0.28645095  1  0.011334  0  -0.092933  -0.23716  0  3.92849  0
C  C175  1  0.75837659  0.28644921  0.52014861  1  0.011265  0  -0.092936  -0.237115  0  3.928393  0
C  C176  1  0.28644781  0.52015003  0.75837618  1  0.01123  0  -0.092899  -0.23704  0  3.92855  0
C  C177  1  0.97985038  0.21354835  0.74162200  1  0.019216  0  -0.09292  -0.237078  0  3.928383  0
C  C178  1  0.74162010  0.97985060  0.21355097  1  0.019251  0  -0.092921  -0.237102  0  3.928464  0
C  C179  1  0.21354994  0.74162215  0.97985067  1  0.011283  0  -0.092907  -0.237098  0  3.928485  0
C  C180  1  0.47985159  0.24162499  0.71354886  1  0.011326  0  -0.092919  -0.237065  0  3.928447  0
C  C181  1  0.24162468  0.71354967  0.47985262  1  0.011336  0  -0.092927  -0.237092  0  3.928514  0
C  C182  1  0.71354882  0.47985402  0.24162599  1  0.011504  0  -0.092921  -0.237036  0  3.928433  0
C  C183  1  0.02014890  0.78645111  0.25837865  1  0.019227  0  -0.09294  -0.237138  0  3.928468  0
C  C184  1  0.25837852  0.02014779  0.78645271  1  0.019299  0  -0.092924  -0.237098  0  3.928407  0
C  C185  1  0.78645133  0.25837736  0.02014798  1  0.011435  0  -0.092893  -0.236988  0  3.928455  0
C  C186  1  0.47808191  0.73740583  0.24829514  1  0.497235  0  0.040661  0.099003  0  3.990042  0
C  C187  1  0.73740701  0.24829339  0.47808293  1  0.497248  0  0.040656  0.09898  0  3.989993  0
C  C188  1  0.24829416  0.47808374  0.73740611  1  0.497209  0  0.040676  0.099014  0  3.989941  0
C  C189  1  0.02191726  0.25170403  0.76259224  1  0.48938  0  0.040648  0.09898  0  3.989926  0
C  C190  1  0.76259191  0.02191788  0.25170376  1  0.489347  0  0.040678  0.099044  0  3.989959  0
C  C191  1  0.25170429  0.76259269  0.02191769  1  0.497239  0  0.040686  0.099037  0  3.989965  0
C  C192  1  0.52191737  0.26259427  0.75170468  1  0.49724  0  0.040673  0.099012  0  3.989956  0
C  C193  1  0.26259360  0.75170568  0.52191791  1  0.497225  0  0.040659  0.098995  0  3.990036  0
C  C194  1  0.75170445  0.52191973  0.26259432  1  0.497046  0  0.04062  0.098883  0  3.990133  0
C  C195  1  0.97808334  0.74829568  0.23740834  1  0.489295  0  0.040654  0.099022  0  3.989905  0
C  C196  1  0.23740737  0.97808095  0.74829773  1  0.489343  0  0.040641  0.098968  0  3.989932  0
C  C197  1  0.74829764  0.23740663  0.97808135  1  0.497147  0  0.040654  0.098967  0  3.990039  0
C  C198  1  0.49192697  0.92036249  0.39157273  1  1.390838  0  0.257682  0.556871  0  4.006666  0
C  C199  1  0.92036291  0.39157297  0.49192699  1  1.390857  0  0.257642  0.556863  0  4.006561  0
C  C200  1  0.39157373  0.49192613  0.92036382  1  1.390839  0  0.257695  0.557006  0  4.006561  0
C  C201  1  0.00806953  0.10842521  0.57963878  1  1.391043  0  0.257654  0.556866  0  4.006627  0
C  C202  1  0.57963996  0.00806837  0.10842601  1  1.390838  0  0.257652  0.556799  0  4.006586  0
C  C203  1  0.10842609  0.57963590  0.00807286  1  1.390846  0  0.257638  0.556851  0  4.006707  0
C  C204  1  0.50807363  0.07963785  0.60842644  1  1.391147  0  0.257669  0.5568  0  4.006678  0
C  C205  1  0.07963637  0.60842776  0.50807429  1  1.390852  0  0.257649  0.556855  0  4.006687  0
C  C206  1  0.60842621  0.50807567  0.07963733  1  1.390703  0  0.257625  0.556716  0  4.006631  0
C  C207  1  0.99192842  0.89157337  0.42036221  1  1.391072  0  0.257652  0.556845  0  4.006609  0
C  C208  1  0.42036396  0.99192910  0.89157239  1  1.390607  0  0.257654  0.556894  0  4.006629  0
C  C209  1  0.89157319  0.42036166  0.99192801  1  1.391081  0  0.257652  0.556858  0  4.006698  0
C  C210  1  0.55987760  0.91992064  0.42580814  1  -0.050949  0  -0.158365  -0.293824  0  3.928614  0
C  C211  1  0.91992115  0.42580805  0.55987746  1  -0.05108  0  -0.158334  -0.293728  0  3.928499  0
C  C212  1  0.42580746  0.55987749  0.91992132  1  -0.050875  0  -0.158343  -0.293774  0  3.928477  0
C  C213  1  0.94012047  0.07418947  0.58007990  1  -0.050749  0  -0.158355  -0.293748  0  3.928554  0
C  C214  1  0.58008016  0.94012019  0.07418934  1  -0.050568  0  -0.158317  -0.293648  0  3.928597  0
C  C215  1  0.07418965  0.58008099  0.94012045  1  -0.050614  0  -0.158355  -0.293817  0  3.928505  0
C  C216  1  0.44012235  0.08007799  0.57419085  1  -0.050953  0  -0.158323  -0.293638  0  3.928494  0
C  C217  1  0.08007813  0.57419268  0.44012267  1  -0.050874  0  -0.158353  -0.293783  0  3.928589  0
C  C218  1  0.57419248  0.44012368  0.08007836  1  -0.050965  0  -0.158338  -0.293735  0  3.928571  0
C  C219  1  0.05987881  0.92581063  0.41992049  1  -0.050713  0  -0.158329  -0.293742  0  3.928456  0
C  C220  1  0.41992045  0.05988016  0.92580925  1  -0.050699  0  -0.158373  -0.293852  0  3.928639  0
C  C221  1  0.92580963  0.41992038  0.05987884  1  -0.050661  0  -0.158327  -0.293735  0  3.928491  0
C  C222  1  0.53485653  0.00134080  0.45471639  1  0.015608  0  -0.168132  -0.124124  0  3.942451  0
C  C223  1  0.00134124  0.45471628  0.53485652  1  0.037444  0  -0.168142  -0.124181  0  3.942426  0
C  C224  1  0.45471701  0.53485743  0.00134101  1  0.015526  0  -0.168162  -0.124253  0  3.942533  0
C  C225  1  0.96514177  0.04528234  0.49865867  1  0.037287  0  -0.168136  -0.12418  0  3.942553  0
C  C226  1  0.49865984  0.96514201  0.04528177  1  0.015379  0  -0.168117  -0.124172  0  3.942517  0
C  C227  1  0.04528215  0.49865938  0.96514240  1  0.037286  0  -0.168109  -0.124085  0  3.942475  0
C  C228  1  0.46514275  0.99865866  0.54528369  1  0.037237  0  -0.168186  -0.12437  0  3.942631  0
C  C229  1  0.99865870  0.54528362  0.46514310  1  0.01561  0  -0.168145  -0.124221  0  3.942454  0
C  C230  1  0.54528426  0.46514399  0.99865859  1  0.037548  0  -0.16812  -0.124132  0  3.942477  0
C  C231  1  0.03485751  0.95471839  0.50134088  1  0.01544  0  -0.168122  -0.124164  0  3.942534  0
C  C232  1  0.50134077  0.03485833  0.95471682  1  0.037359  0  -0.168133  -0.124128  0  3.942491  0
C  C233  1  0.95471779  0.50134052  0.03485722  1  0.015448  0  -0.168131  -0.124215  0  3.942548  0
C  C234  1  0.20910876  0.91482088  0.14199406  1  1.55336  0  0.191711  0.553571  0  4.239516  0
C  C235  1  0.91482256  0.14199265  0.20910813  1  1.553491  0  0.1917  0.553609  0  4.239513  0
C  C236  1  0.14199380  0.20910838  0.91482101  1  1.553314  0  0.191695  0.553517  0  4.239577  0
C  C237  1  0.29089168  0.35800803  0.58517742  1  1.553569  0  0.191747  0.553587  0  4.239491  0
C  C238  1  0.58517897  0.29089096  0.35800560  1  1.553257  0  0.191671  0.553541  0  4.239572  0
C  C239  1  0.35801005  0.58517966  0.29089003  1  1.553533  0  0.191743  0.553578  0  4.239466  0
C  C240  1  0.79089118  0.08518093  0.85800477  1  1.553265  0  0.191724  0.553555  0  4.239417  0
C  C241  1  0.08517804  0.85800643  0.79089099  1  1.553316  0  0.191748  0.553671  0  4.239385  0
C  C242  1  0.85800548  0.79089045  0.08517644  1  1.553551  0  0.191696  0.553601  0  4.239488  0
C  C243  1  0.70910827  0.64199315  0.41482052  1  1.553306  0  0.191752  0.553624  0  4.239442  0
C  C244  1  0.41482230  0.70910983  0.64199138  1  1.553559  0  0.191703  0.553581  0  4.23956  0
C  C245  1  0.64199387  0.41482225  0.70911058  1  1.553519  0  0.191738  0.553652  0  4.239435  0
C  C246  1  0.14611341  0.00422370  0.11527379  1  0.073832  0  -0.024044  -0.040382  0  4.009642  0
C  C247  1  0.00422488  0.11527369  0.14611424  1  0.074048  0  -0.024072  -0.040419  0  4.009693  0
C  C248  1  0.11527368  0.14611402  0.00422384  1  0.074  0  -0.02405  -0.040386  0  4.009709  0
C  C249  1  0.35388923  0.38472794  0.49577680  1  0.073838  0  -0.024056  -0.040369  0  4.009667  0
C  C250  1  0.49577841  0.35388834  0.38472732  1  0.074143  0  -0.024036  -0.040335  0  4.009641  0
C  C251  1  0.38472825  0.49577808  0.35388810  1  0.074194  0  -0.024073  -0.040325  0  4.009557  0
C  C252  1  0.85388454  0.99577679  0.88472584  1  0.074016  0  -0.024054  -0.040342  0  4.009592  0
C  C253  1  0.99577507  0.88472621  0.85388653  1  0.073852  0  -0.024019  -0.040363  0  4.009621  0
C  C254  1  0.88472493  0.85388627  0.99577559  1  0.073976  0  -0.024069  -0.040403  0  4.009642  0
C  C255  1  0.64611336  0.61527182  0.50422178  1  0.074127  0  -0.024045  -0.040302  0  4.00958  0
C  C256  1  0.50422285  0.64611371  0.61527202  1  0.073987  0  -0.024093  -0.040387  0  4.009503  0
C  C257  1  0.61527302  0.50422334  0.64611381  1  0.073974  0  -0.024036  -0.040338  0  4.009604  0
C  C258  1  0.06201754  0.03108361  0.17231921  1  -0.145792  0  -0.074883  -0.092721  0  3.933479  0
C  C259  1  0.03108289  0.17231918  0.06201711  1  -0.145737  0  -0.074896  -0.092777  0  3.933469  0
C  C260  1  0.17231752  0.06201770  0.03108323  1  -0.14594  0  -0.074892  -0.092779  0  3.933507  0
C  C261  1  0.43798510  0.32768247  0.46891831  1  -0.145917  0  -0.074901  -0.09278  0  3.933489  0
C  C262  1  0.46891839  0.43798447  0.32768296  1  -0.145929  0  -0.074904  -0.092833  0  3.933601  0
C  C263  1  0.32768377  0.46891784  0.43798399  1  -0.145997  0  -0.07496  -0.092867  0  3.933583  0
C  C264  1  0.93798107  0.96891731  0.82768112  1  -0.145765  0  -0.074892  -0.092754  0  3.933508  0
C  C265  1  0.96891573  0.82768111  0.93798232  1  -0.145953  0  -0.074889  -0.092747  0  3.933463  0
C  C266  1  0.82767977  0.93798361  0.96891633  1  -0.145751  0  -0.0749  -0.092814  0  3.933469  0
C  C267  1  0.56201550  0.67231724  0.53108112  1  -0.145867  0  -0.074869  -0.092786  0  3.933401  0
C  C268  1  0.53108288  0.56201631  0.67231806  1  -0.145951  0  -0.074914  -0.092851  0  3.933456  0
C  C269  1  0.67231816  0.53108275  0.56201568  1  -0.145875  0  -0.07491  -0.092837  0  3.933493  0
N  N270  1  0.39741971  0.78721268  0.23708903  1  -1.237526  0  -0.339051  -0.270243  0  3.520301  0
N  N271  1  0.78721358  0.23708760  0.39742050  1  -1.237481  0  -0.339055  -0.270228  0  3.520238  0
N  N272  1  0.23708919  0.39741976  0.78721387  1  -1.237376  0  -0.339091  -0.270278  0  3.520166  0
N  N273  1  0.10258211  0.26290811  0.71278451  1  -1.237606  0  -0.339096  -0.270264  0  3.520232  0
N  N274  1  0.71278532  0.10258186  0.26290841  1  -1.237417  0  -0.339069  -0.270226  0  3.520238  0
N  N275  1  0.26290863  0.71278633  0.10258123  1  -1.237425  0  -0.339078  -0.270219  0  3.520261  0
N  N276  1  0.60258156  0.21278620  0.76291047  1  -1.237488  0  -0.339068  -0.270297  0  3.520219  0
N  N277  1  0.21278636  0.76291166  0.60258112  1  -1.237524  0  -0.33904  -0.270205  0  3.520267  0
N  N278  1  0.76291009  0.60258161  0.21278715  1  -1.237529  0  -0.339021  -0.270143  0  3.520319  0
N  N279  1  0.89741850  0.73708970  0.28721628  1  -1.237356  0  -0.339045  -0.270237  0  3.520195  0
N  N280  1  0.28721395  0.89741697  0.73709251  1  -1.237381  0  -0.339079  -0.270313  0  3.520244  0
N  N281  1  0.73709331  0.28721299  0.89741723  1  -1.237381  0  -0.339036  -0.270239  0  3.520207  0
N  N282  1  0.52285381  0.85488465  0.35126174  1  -1.292968  0  -0.396597  -0.392709  0  3.55094  0
N  N283  1  0.85488439  0.35126156  0.52285447  1  -1.292983  0  -0.396592  -0.39272  0  3.550833  0
N  N284  1  0.35126551  0.52285273  0.85488255  1  -1.292635  0  -0.396635  -0.392817  0  3.550983  0
N  N285  1  0.97714492  0.14873456  0.64511691  1  -1.292558  0  -0.396677  -0.392813  0  3.55109  0
N  N286  1  0.64511693  0.97714377  0.14873666  1  -1.292639  0  -0.396688  -0.3928  0  3.55105  0
N  N287  1  0.14873557  0.64511630  0.97714485  1  -1.292755  0  -0.396659  -0.392762  0  3.551009  0
N  N288  1  0.47714614  0.14511842  0.64873599  1  -1.292617  0  -0.396595  -0.392735  0  3.550929  0
N  N289  1  0.14511688  0.64873732  0.47714618  1  -1.293046  0  -0.396578  -0.392713  0  3.550899  0
N  N290  1  0.64873576  0.47714679  0.14511841  1  -1.292982  0  -0.396585  -0.3927  0  3.550891  0
N  N291  1  0.02285436  0.85126618  0.35488207  1  -1.292564  0  -0.396659  -0.392783  0  3.550989  0
N  N292  1  0.35488235  0.02285569  0.85126458  1  -1.292573  0  -0.396691  -0.392832  0  3.550895  0
N  N293  1  0.85126570  0.35488194  0.02285491  1  -1.292573  0  -0.396704  -0.392886  0  3.551062  0
O  O294  1  0.41686233  0.97433668  0.39825946  1  -1.166541  0  -0.282807  -0.485557  0  2.134839  0
O  O295  1  0.97433775  0.39825619  0.41686211  1  -1.166543  0  -0.282805  -0.485576  0  2.134805  0
O  O296  1  0.39825573  0.41686136  0.97433781  1  -1.166562  0  -0.282828  -0.485628  0  2.134799  0
O  O297  1  0.08313748  0.10174064  0.52566167  1  -1.16678  0  -0.282812  -0.485614  0  2.13474  0
O  O298  1  0.52566378  0.08313698  0.10174073  1  -1.166714  0  -0.28281  -0.485581  0  2.134672  0
O  O299  1  0.10174146  0.52566321  0.08313630  1  -1.166533  0  -0.282785  -0.485561  0  2.134942  0
O  O300  1  0.58313827  0.02566620  0.60173981  1  -1.166847  0  -0.28281  -0.485511  0  2.134914  0
O  O301  1  0.02566286  0.60174478  0.58313795  1  -1.166572  0  -0.282795  -0.48555  0  2.134928  0
O  O302  1  0.60174156  0.58314059  0.02566495  1  -1.166579  0  -0.282785  -0.485448  0  2.134819  0
O  O303  1  0.91686379  0.89825697  0.47433662  1  -1.166799  0  -0.282791  -0.485548  0  2.134812  0
O  O304  1  0.47433815  0.91686614  0.89825673  1  -1.166481  0  -0.282754  -0.485552  0  2.134866  0
O  O305  1  0.89825583  0.47433556  0.91686431  1  -1.166808  0  -0.28278  -0.485524  0  2.134909  0
O  O306  1  0.18649880  0.86097244  0.21865089  1  -1.19894  0  -0.329383  -0.581457  0  2.208124  0
O  O307  1  0.86097323  0.21864914  0.18649958  1  -1.199153  0  -0.32935  -0.58144  0  2.208095  0
O  O308  1  0.21865109  0.18649640  0.86097513  1  -1.198948  0  -0.329371  -0.581433  0  2.208137  0
O  O309  1  0.31350300  0.28134998  0.63902277  1  -1.199111  0  -0.329393  -0.581463  0  2.208114  0
O  O310  1  0.63902829  0.31349729  0.28134876  1  -1.198866  0  -0.329369  -0.581423  0  2.208108  0
O  O311  1  0.28135209  0.63902749  0.31349804  1  -1.199073  0  -0.329363  -0.581472  0  2.208113  0
O  O312  1  0.81349982  0.13902912  0.78134801  1  -1.198912  0  -0.329412  -0.58148  0  2.208074  0
O  O313  1  0.13902738  0.78134803  0.81349975  1  -1.198866  0  -0.329382  -0.581479  0  2.207982  0
O  O314  1  0.78134886  0.81349780  0.13902512  1  -1.199113  0  -0.329371  -0.581471  0  2.208088  0
O  O315  1  0.68649695  0.71865182  0.36097607  1  -1.198928  0  -0.329392  -0.581488  0  2.208037  0
O  O316  1  0.36097564  0.68650018  0.71865023  1  -1.199119  0  -0.32937  -0.581461  0  2.208045  0
O  O317  1  0.71865116  0.36097335  0.68650329  1  -1.199079  0  -0.329389  -0.581472  0  2.208041  0
O  O318  1  0.28471927  0.89615857  0.08508792  1  -1.160191  0  -0.331005  -0.540527  0  2.206985  0
O  O319  1  0.89616271  0.08508476  0.28471745  1  -1.160148  0  -0.331004  -0.540566  0  2.206927  0
O  O320  1  0.08508619  0.28471855  0.89615969  1  -1.160146  0  -0.331001  -0.540519  0  2.206947  0
O  O321  1  0.21528116  0.41491574  0.60383765  1  -1.160111  0  -0.330988  -0.540501  0  2.206887  0
O  O322  1  0.60383753  0.21527993  0.41491354  1  -1.160191  0  -0.330965  -0.54053  0  2.206946  0
O  O323  1  0.41491565  0.60384143  0.21527856  1  -1.160285  0  -0.331014  -0.540514  0  2.206969  0
O  O324  1  0.71528133  0.10384177  0.91491298  1  -1.160158  0  -0.330993  -0.540511  0  2.206956  0
O  O325  1  0.10384055  0.91491290  0.71528173  1  -1.160181  0  -0.331032  -0.540588  0  2.206984  0
O  O326  1  0.91491309  0.71528028  0.10383660  1  -1.160154  0  -0.330977  -0.54053  0  2.20688  0
O  O327  1  0.78471812  0.58508563  0.39615991  1  -1.160156  0  -0.331043  -0.540579  0  2.206968  0
O  O328  1  0.39615910  0.78471967  0.58508700  1  -1.160209  0  -0.330994  -0.54052  0  2.207071  0
O  O329  1  0.58508694  0.39616086  0.78472186  1  -1.160206  0  -0.331004  -0.540584  0  2.206933  0
O  O330  1  0.46726625  0.74999748  0.03271531  1  -1.275813  0  -0.589483  -0.778121  0  2.023045  0
O  O331  1  0.74999784  0.03271493  0.46726515  1  -1.275755  0  -0.58946  -0.77805  0  2.023129  0
O  O332  1  0.03271366  0.46726419  0.74999862  1  -1.275781  0  -0.589422  -0.778055  0  2.023091  0
O  O333  1  0.53273170  0.24999983  0.96728678  1  -1.275856  0  -0.58952  -0.77817  0  2.023022  0
O  O334  1  0.25000144  0.96728517  0.53273409  1  -1.275764  0  -0.589461  -0.778065  0  2.023129  0
O  O335  1  0.96728496  0.53273483  0.25000076  1  -1.275812  0  -0.589468  -0.778093  0  2.023047  0
