# generated using pymatgen
data_ZnH8C13NO4
_symmetry_space_group_name_H-M   'P 1'
_cell_length_a   11.02324304
_cell_length_b   10.98491708
_cell_length_c   14.03730903
_cell_angle_alpha   88.52370913
_cell_angle_beta   89.40381906
_cell_angle_gamma   76.59375312
_symmetry_Int_Tables_number   1
_chemical_formula_structural   ZnH8C13NO4
_chemical_formula_sum   'Zn4 H32 C52 N4 O16'
_cell_volume   1652.88579599
_cell_formula_units_Z   4
loop_
 _symmetry_equiv_pos_site_id
 _symmetry_equiv_pos_as_xyz
  1  'x, y, z'
loop_
 _atom_site_type_symbol
 _atom_site_label
 _atom_site_symmetry_multiplicity
 _atom_site_fract_x
 _atom_site_fract_y
 _atom_site_fract_z
 _atom_site_occupancy
 _atom_site_pbe_bader_charge
 _atom_site_pbe_bader_spin_density
 _atom_site_pbe_cm5_charge
 _atom_site_pbe_ddec_charge
 _atom_site_pbe_ddec_spin_density
 _atom_site_pbe_ddec_sum_bond_order
 _atom_site_pbe_magmom
Zn  Zn0  1  0.73384934  0.33599036  0.80542966  1  1.274277  0  0.666049  0.825021  0  2.416708  0
Zn  Zn1  1  0.73590361  0.34043302  0.60000430  1  1.298049  0  0.672446  0.830061  0  2.383685  0
Zn  Zn2  1  0.26614823  0.66399913  0.19457133  1  1.274119  0  0.666088  0.825078  0  2.416398  0
Zn  Zn3  1  0.26410021  0.65956947  0.39999359  1  1.298105  0  0.6724  0.830031  0  2.383877  0
H  H4  1  0.77028072  0.72061342  0.56002009  1  0.076753  0  0.101034  0.102753  0  1.050367  0
H  H5  1  0.79616261  0.94140950  0.56257589  1  0.09799  0  0.107868  0.11602  0  0.990944  0
H  H6  1  0.70226120  0.95769829  0.86004016  1  0.087031  0  0.102061  0.10781  0  1.003236  0
H  H7  1  0.67807459  0.73536881  0.85768703  1  0.096651  0  0.100303  0.105719  0  1.005968  0
H  H8  1  0.33746400  0.38854221  0.54954900  1  0.110766  0  0.103739  0.109612  0  1.02951  0
H  H9  1  0.11209033  0.38336899  0.54952107  1  0.089292  0  0.104473  0.107383  0  1.013224  0
H  H10  1  0.12735373  0.29697869  0.84942493  1  0.087171  0  0.102294  0.10681  0  1.003656  0
H  H11  1  0.35390259  0.30346567  0.85040407  1  0.103351  0  0.102399  0.106581  0  1.003932  0
H  H12  1  0.93157142  0.30202291  0.45086641  1  0.163069  0  0.125099  0.10207  0  0.999536  0
H  H13  1  0.94681618  0.29610768  0.27304540  1  0.094195  0  0.114654  0.122447  0  0.994308  0
H  H14  1  0.54484292  0.35333061  0.26773560  1  0.105051  0  0.112995  0.125986  0  1.008232  0
H  H15  1  0.54711824  0.35565601  0.44583710  1  0.157801  0  0.127534  0.108232  0  0.989303  0
H  H16  1  0.91105660  0.17556705  0.13355113  1  0.09853  0  0.117146  0.126416  0  0.98523  0
H  H17  1  0.89898763  0.18675916  0.95476881  1  0.119724  0  0.128759  0.102592  0  0.968439  0
H  H18  1  0.59339270  0.48618443  0.95910819  1  0.102198  0  0.121644  0.09066  0  1.011401  0
H  H19  1  0.58570666  0.48445579  0.13803099  1  0.143341  0  0.110648  0.123858  0  1.044357  0
H  H20  1  0.22971371  0.27938637  0.43998149  1  0.076703  0  0.101047  0.102788  0  1.050413  0
H  H21  1  0.20382416  0.05859221  0.43743144  1  0.098136  0  0.107901  0.11608  0  0.990772  0
H  H22  1  0.29773650  0.04228648  0.13996589  1  0.087375  0  0.102081  0.107869  0  1.003185  0
H  H23  1  0.32192259  0.26462253  0.14231679  1  0.096658  0  0.100214  0.105533  0  1.005789  0
H  H24  1  0.66253689  0.61146963  0.45045093  1  0.110523  0  0.103708  0.109556  0  1.029408  0
H  H25  1  0.88791065  0.61663821  0.45047535  1  0.089365  0  0.10448  0.107359  0  1.01313  0
H  H26  1  0.87263875  0.70303425  0.15057007  1  0.087421  0  0.102305  0.106828  0  1.003638  0
H  H27  1  0.64608353  0.69654734  0.14959455  1  0.103066  0  0.102437  0.106593  0  1.003846  0
H  H28  1  0.06843473  0.69797302  0.54913085  1  0.162961  0  0.125141  0.102133  0  0.999467  0
H  H29  1  0.05319077  0.70389290  0.72695106  1  0.094299  0  0.114666  0.122473  0  0.994317  0
H  H30  1  0.45516363  0.64668024  0.73226144  1  0.104765  0  0.112991  0.125967  0  1.008248  0
H  H31  1  0.45289014  0.64434640  0.55416146  1  0.157802  0  0.127497  0.1082  0  0.989291  0
H  H32  1  0.08895512  0.82443250  0.86644815  1  0.098697  0  0.117192  0.126468  0  0.985143  0
H  H33  1  0.10101862  0.81324048  0.04522981  1  0.119663  0  0.128732  0.102581  0  0.96848  0
H  H34  1  0.40662096  0.51381878  0.04089530  1  0.101965  0  0.121623  0.090633  0  1.011494  0
H  H35  1  0.41430669  0.51554465  0.86197112  1  0.143191  0  0.110655  0.123937  0  1.04437  0
C  C36  1  0.70960359  0.58199533  0.70694523  1  1.542631  0  0.208559  0.57643  0  4.195002  0
C  C37  1  0.72251871  0.71499755  0.70855008  1  -0.040494  0  -0.020585  -0.035228  0  3.978499  0
C  C38  1  0.75638017  0.77287780  0.62550093  1  -0.031326  0  -0.087571  -0.098425  0  3.975517  0
C  C39  1  0.77092541  0.89530453  0.62692664  1  0.033253  0  -0.083853  -0.094011  0  3.970285  0
C  C40  1  0.75149302  0.96195034  0.71170185  1  -0.062285  0  -0.015832  -0.024327  0  3.962241  0
C  C41  1  0.71813845  0.90406623  0.79501334  1  -0.062974  0  -0.089481  -0.104663  0  3.991852  0
C  C42  1  0.70392104  0.78145709  0.79351375  1  -0.063693  0  -0.091133  -0.104661  0  3.998484  0
C  C43  1  0.75990011  0.09634511  0.71247271  1  1.565891  0  0.212015  0.58976  0  4.180739  0
C  C44  1  0.49432840  0.35060711  0.70105429  1  1.558084  0  0.212881  0.580345  0  4.184857  0
C  C45  1  0.35944686  0.34622062  0.70026403  1  -0.03935  0  -0.017791  -0.032235  0  3.96751  0
C  C46  1  0.29169927  0.36796453  0.61514550  1  -0.027886  0  -0.086083  -0.097163  0  3.972142  0
C  C47  1  0.16640482  0.36437543  0.61484830  1  -0.033201  0  -0.085337  -0.099224  0  3.975153  0
C  C48  1  0.10733734  0.33758038  0.69905160  1  -0.022989  0  -0.0165  -0.026061  0  3.967906  0
C  C49  1  0.17483947  0.31655308  0.78433159  1  -0.02743  0  -0.087994  -0.098563  0  3.983547  0
C  C50  1  0.30002580  0.32067341  0.78483581  1  -0.092023  0  -0.089687  -0.103132  0  3.993634  0
C  C51  1  0.97290716  0.33191070  0.69770027  1  1.554055  0  0.21442  0.591493  0  4.177488  0
C  C52  1  0.84885826  0.31162674  0.40689872  1  0.389178  0  0.05955  0.106229  0  3.913735  0
C  C53  1  0.85629148  0.30775247  0.30816290  1  0.019016  0  -0.072428  -0.166053  0  3.932678  0
C  C54  1  0.74606590  0.32457809  0.25550305  1  -0.040111  0  0.018582  0.104868  0  3.980273  0
C  C55  1  0.63280279  0.34115072  0.30552515  1  -0.019629  0  -0.073255  -0.161393  0  3.913275  0
C  C56  1  0.63313644  0.34250324  0.40439895  1  0.472409  0  0.062674  0.113633  0  3.893974  0
C  C57  1  0.74726021  0.32783121  0.15040637  1  -0.005172  0  0.020753  0.117209  0  3.966311  0
C  C58  1  0.83813699  0.24531872  0.09776611  1  -0.028662  0  -0.074248  -0.173811  0  3.932869  0
C  C59  1  0.83244817  0.25081451  0.99879252  1  0.505593  0  0.061345  0.107756  0  3.925505  0
C  C60  1  0.65932954  0.41713170  0.00140054  1  0.452086  0  0.055788  0.101118  0  3.926013  0
C  C61  1  0.65605795  0.41579053  0.10025432  1  0.035308  0  -0.076326  -0.172851  0  3.923678  0
C  C62  1  0.29039831  0.41799507  0.29305143  1  1.542959  0  0.208647  0.576816  0  4.194942  0
C  C63  1  0.27747715  0.28499568  0.29145230  1  -0.040494  0  -0.020653  -0.035559  0  3.978737  0
C  C64  1  0.24360931  0.22711554  0.37450080  1  -0.031185  0  -0.087573  -0.098374  0  3.975476  0
C  C65  1  0.22906468  0.10469438  0.37307642  1  0.032759  0  -0.083862  -0.094034  0  3.970137  0
C  C66  1  0.24849332  0.03804490  0.28830059  1  -0.061979  0  -0.015821  -0.024295  0  3.962231  0
C  C67  1  0.28185063  0.09592898  0.20498837  1  -0.068766  0  -0.089554  -0.104816  0  3.992039  0
C  C68  1  0.29607615  0.21853422  0.20649292  1  -0.058022  0  -0.090977  -0.104303  0  3.998495  0
C  C69  1  0.24009099  0.90364913  0.28752899  1  1.56592  0  0.212006  0.589768  0  4.180602  0
C  C70  1  0.50567422  0.64939257  0.29894579  1  1.558123  0  0.212698  0.579877  0  4.185057  0
C  C71  1  0.64055534  0.65378936  0.29973306  1  -0.039615  0  -0.017697  -0.032145  0  3.96765  0
C  C72  1  0.70830606  0.63204354  0.38485158  1  -0.028043  0  -0.086039  -0.097128  0  3.972033  0
C  C73  1  0.83359977  0.63563180  0.38514097  1  -0.032717  0  -0.085461  -0.099292  0  3.975642  0
C  C74  1  0.89265950  0.66242504  0.30094418  1  -0.023288  0  -0.016488  -0.025882  0  3.968314  0
C  C75  1  0.82515796  0.68345793  0.21566267  1  -0.027699  0  -0.088032  -0.098713  0  3.983584  0
C  C76  1  0.69997013  0.67933200  0.21516141  1  -0.091403  0  -0.089728  -0.103118  0  3.993777  0
C  C77  1  0.02708972  0.66809019  0.30228204  1  1.554034  0  0.214596  0.591528  0  4.177809  0
C  C78  1  0.15115112  0.68837100  0.59309847  1  0.389168  0  0.059621  0.106282  0  3.91386  0
C  C79  1  0.14371193  0.69225189  0.69183426  1  0.019178  0  -0.072421  -0.166144  0  3.9327  0
C  C80  1  0.25394257  0.67542806  0.74449403  1  -0.040338  0  0.018468  0.104904  0  3.980318  0
C  C81  1  0.36720204  0.65885548  0.69447268  1  -0.01933  0  -0.073215  -0.161304  0  3.913205  0
C  C82  1  0.36687092  0.65750387  0.59559741  1  0.472148  0  0.062681  0.113585  0  3.893855  0
C  C83  1  0.25274989  0.67216744  0.84959223  1  -0.004367  0  0.020799  0.116936  0  3.966419  0
C  C84  1  0.16186867  0.75467532  0.90223332  1  -0.0294  0  -0.074322  -0.173819  0  3.932634  0
C  C85  1  0.16756042  0.74918694  0.00120819  1  0.505854  0  0.061493  0.10795  0  3.925325  0
C  C86  1  0.34068037  0.58286785  0.99860232  1  0.45244  0  0.055881  0.101206  0  3.925788  0
C  C87  1  0.34395994  0.58420986  0.89974489  1  0.035319  0  -0.07636  -0.172764  0  3.923542  0
N  N88  1  0.73936007  0.32940710  0.45421822  1  -1.240044  0  -0.318315  -0.207401  0  3.515015  0
N  N89  1  0.74423023  0.33509213  0.95142675  1  -1.249707  0  -0.320736  -0.199776  0  3.523698  0
N  N90  1  0.26064507  0.67059351  0.54577898  1  -1.239748  0  -0.318356  -0.207353  0  3.51504  0
N  N91  1  0.25578118  0.66490463  0.04857186  1  -1.250039  0  -0.320909  -0.200094  0  3.523658  0
O  O92  1  0.69831949  0.52892680  0.78743921  1  -1.17176  0  -0.323714  -0.562031  0  2.337361  0
O  O93  1  0.71187759  0.53181762  0.62590564  1  -1.167252  0  -0.313458  -0.545129  0  2.31856  0
O  O94  1  0.76353950  0.15113375  0.63197238  1  -1.16412  0  -0.316918  -0.546863  0  2.321917  0
O  O95  1  0.75980117  0.14579974  0.79375481  1  -1.167393  0  -0.324762  -0.557937  0  2.325579  0
O  O96  1  0.54503270  0.35005360  0.78249064  1  -1.169101  0  -0.317059  -0.554188  0  2.340156  0
O  O97  1  0.54788294  0.35514316  0.62067117  1  -1.168179  0  -0.311237  -0.543196  0  2.350513  0
O  O98  1  0.92288895  0.33227083  0.61627296  1  -1.168001  0  -0.314557  -0.546002  0  2.345528  0
O  O99  1  0.91897551  0.32787092  0.77800284  1  -1.169983  0  -0.318874  -0.554576  0  2.33866  0
O  O100  1  0.30166120  0.47106944  0.21256470  1  -1.172012  0  -0.323702  -0.562074  0  2.337736  0
O  O101  1  0.28814347  0.46817240  0.37409939  1  -1.167198  0  -0.313464  -0.545312  0  2.318075  0
O  O102  1  0.23643477  0.84886716  0.36804149  1  -1.16441  0  -0.316998  -0.547011  0  2.321392  0
O  O103  1  0.24021465  0.85418937  0.20625670  1  -1.16747  0  -0.324649  -0.557788  0  2.325785  0
O  O104  1  0.45498048  0.64990575  0.21751563  1  -1.168988  0  -0.316952  -0.553909  0  2.340338  0
O  O105  1  0.45211000  0.64489297  0.37933631  1  -1.168168  0  -0.311202  -0.543041  0  2.350467  0
O  O106  1  0.07711782  0.66771388  0.38372587  1  -1.16773  0  -0.314774  -0.546255  0  2.344968  0
O  O107  1  0.08101112  0.67214394  0.22199646  1  -1.170286  0  -0.318812  -0.554405  0  2.339552  0
