# generated using pymatgen
data_ZnH2C10(N2F3)2
_symmetry_space_group_name_H-M   'P 1'
_cell_length_a   16.19297721
_cell_length_b   16.28550137
_cell_length_c   19.13348386
_cell_angle_alpha   90.24636967
_cell_angle_beta   89.86920528
_cell_angle_gamma   90.04722595
_symmetry_Int_Tables_number   1
_chemical_formula_structural   ZnH2C10(N2F3)2
_chemical_formula_sum   'Zn8 H16 C80 N32 F48'
_cell_volume   5045.64396135
_cell_formula_units_Z   8
loop_
 _symmetry_equiv_pos_site_id
 _symmetry_equiv_pos_as_xyz
  1  'x, y, z'
loop_
 _atom_site_type_symbol
 _atom_site_label
 _atom_site_symmetry_multiplicity
 _atom_site_fract_x
 _atom_site_fract_y
 _atom_site_fract_z
 _atom_site_occupancy
 _atom_site_pbe_bader_charge
 _atom_site_pbe_bader_spin_density
 _atom_site_pbe_cm5_charge
 _atom_site_pbe_ddec_charge
 _atom_site_pbe_ddec_spin_density
 _atom_site_pbe_ddec_sum_bond_order
 _atom_site_pbe_magmom
Zn  Zn0  1  0.49736927  0.35285682  0.99732441  1  1.219542  0  0.76374  0.719194  0  2.372379  0
Zn  Zn1  1  0.64403671  0.49903064  0.00132673  1  1.218817  0  0.760505  0.718708  0  2.36238  0
Zn  Zn2  1  0.49890537  0.64586183  0.00612632  1  1.222979  0  0.76137  0.727658  0  2.329548  0
Zn  Zn3  1  0.35105029  0.50049606  0.99750009  1  1.220492  0  0.761018  0.716841  0  2.367072  0
Zn  Zn4  1  0.00328541  0.85306468  0.50179517  1  1.221741  0  0.763944  0.725152  0  2.354635  0
Zn  Zn5  1  0.14810572  0.00126450  0.49312214  1  1.219031  0  0.76061  0.711162  0  2.388762  0
Zn  Zn6  1  0.00235979  0.14918634  0.49626953  1  1.222427  0  0.764549  0.724514  0  2.35859  0
Zn  Zn7  1  0.85823114  0.00077763  0.50011674  1  1.221828  0  0.758913  0.721424  0  2.340056  0
H  H8  1  0.87473189  0.70778521  0.86815077  1  0.111755  0  0.104842  0.128385  0  0.99913  0
H  H9  1  0.96005840  0.19787567  0.19919895  1  0.111593  0  0.107744  0.131035  0  0.988021  0
H  H10  1  0.62553290  0.78898676  0.37042227  1  0.108698  0  0.105029  0.128332  0  0.998317  0
H  H11  1  0.04060205  0.77551835  0.22129746  1  0.100399  0  0.105899  0.129496  0  0.996837  0
H  H12  1  0.37925906  0.80321322  0.63624280  1  0.086656  0  0.106167  0.130192  0  0.992311  0
H  H13  1  0.96083985  0.79782133  0.79699017  1  0.102826  0  0.10712  0.129664  0  0.99109  0
H  H14  1  0.62556851  0.21009054  0.63394666  1  0.097573  0  0.104976  0.129632  0  0.996637  0
H  H15  1  0.03669720  0.20007300  0.79029998  1  0.074154  0  0.107013  0.129706  0  0.992259  0
H  H16  1  0.46672003  0.71290793  0.70775318  1  0.085926  0  0.108219  0.131681  0  0.986848  0
H  H17  1  0.12209399  0.29022568  0.86157641  1  0.094721  0  0.105317  0.128753  0  0.997413  0
H  H18  1  0.53810434  0.30019051  0.70378187  1  0.087981  0  0.106941  0.12963  0  0.991819  0
H  H19  1  0.87485328  0.28743771  0.12753167  1  0.11995  0  0.105091  0.128111  0  0.9988  0
H  H20  1  0.46877435  0.30658866  0.29670405  1  0.113628  0  0.107771  0.130683  0  0.988524  0
H  H21  1  0.10043466  0.72744664  0.10840452  1  0.082321  0  0.10729  0.131185  0  0.989617  0
H  H22  1  0.53964634  0.69850022  0.29981411  1  0.103434  0  0.1069  0.129927  0  0.991815  0
H  H23  1  0.38338709  0.21314203  0.36677799  1  0.080488  0  0.105424  0.129025  0  0.997561  0
C  C24  1  0.64899506  0.25110734  0.04097502  1  1.055124  0  0.212951  0.370326  0  4.108329  0
C  C25  1  0.13242540  0.03467681  0.64781420  1  1.063184  0  0.209753  0.368606  0  4.081228  0
C  C26  1  0.85003500  0.24860395  0.54486962  1  1.096697  0  0.212542  0.369074  0  4.110675  0
C  C27  1  0.86877661  0.96205932  0.65326338  1  1.078556  0  0.208859  0.366458  0  4.084309  0
C  C28  1  0.15573325  0.24866857  0.45241340  1  1.070821  0  0.213525  0.371359  0  4.105621  0
C  C29  1  0.11504610  0.97161076  0.33926609  1  1.06986  0  0.210221  0.368169  0  4.077965  0
C  C30  1  0.84968317  0.75223673  0.45926909  1  1.1114  0  0.212301  0.369784  0  4.110422  0
C  C31  1  0.86773949  0.03695562  0.34552248  1  1.061025  0  0.210073  0.367112  0  4.083789  0
C  C32  1  0.53688416  0.62510332  0.16080947  1  1.042693  0  0.21269  0.370724  0  4.074878  0
C  C33  1  0.25192047  0.64898968  0.05647437  1  1.108566  0  0.213277  0.371151  0  4.112325  0
C  C34  1  0.46507379  0.37350736  0.15261778  1  1.057111  0  0.213638  0.370748  0  4.076721  0
C  C35  1  0.63326858  0.53344548  0.15614292  1  1.07492  0  0.210253  0.367986  0  4.082979  0
C  C36  1  0.74219420  0.34576996  0.04814600  1  1.076127  0  0.213424  0.37008  0  4.104191  0
C  C37  1  0.53364753  0.37406098  0.84341282  1  1.086937  0  0.213652  0.371396  0  4.075391  0
C  C38  1  0.25280420  0.34876351  0.94431025  1  1.075666  0  0.213489  0.368526  0  4.103282  0
C  C39  1  0.46310621  0.63828021  0.84952274  1  1.076795  0  0.214089  0.372486  0  4.072807  0
C  C40  1  0.74340587  0.65082074  0.95073521  1  1.110394  0  0.212629  0.368488  0  4.105554  0
C  C41  1  0.03651500  0.12692976  0.65084104  1  1.074702  0  0.213595  0.371224  0  4.07318  0
C  C42  1  0.75851334  0.15239832  0.55259892  1  1.101709  0  0.213402  0.369756  0  4.101471  0
C  C43  1  0.96483603  0.87007371  0.65649620  1  1.079883  0  0.212047  0.367863  0  4.078343  0
C  C44  1  0.25085053  0.85283895  0.54424814  1  1.06752  0  0.212606  0.368888  0  4.107342  0
C  C45  1  0.02594863  0.87285653  0.34443324  1  1.082129  0  0.213116  0.371228  0  4.07024  0
C  C46  1  0.34940471  0.73915244  0.06518177  1  1.116578  0  0.213336  0.373211  0  4.112643  0
C  C47  1  0.75816559  0.84809239  0.45044616  1  1.097755  0  0.212796  0.369767  0  4.101597  0
C  C48  1  0.96084756  0.13212527  0.34182488  1  1.060035  0  0.213491  0.370797  0  4.080209  0
C  C49  1  0.24778206  0.15311816  0.44413443  1  1.064248  0  0.213733  0.369077  0  4.103889  0
C  C50  1  0.73131370  0.26186678  0.06268073  1  0.153107  0  -0.049914  -0.314037  0  4.134953  0
C  C51  1  0.59985059  0.59190703  0.20269119  1  0.164245  0  -0.053215  -0.320847  0  4.141977  0
C  C52  1  0.26615882  0.72784748  0.08411884  1  0.071434  0  -0.050998  -0.317676  0  4.139122  0
C  C53  1  0.40319007  0.40623757  0.19632698  1  0.113219  0  -0.052494  -0.318417  0  4.137313  0
C  C54  1  0.73267619  0.73457311  0.93563675  1  0.057821  0  -0.049553  -0.312882  0  4.132272  0
C  C55  1  0.59622692  0.40774984  0.80113447  1  0.101394  0  -0.052284  -0.318784  0  4.138286  0
C  C56  1  0.26294110  0.26456130  0.93008800  1  0.130465  0  -0.049518  -0.312772  0  4.132799  0
C  C57  1  0.36769225  0.46420908  0.15103973  1  1.068371  0  0.210636  0.36861  0  4.082383  0
C  C58  1  0.40315166  0.60583128  0.80388672  1  0.122876  0  -0.052807  -0.319356  0  4.137273  0
C  C59  1  0.24104496  0.77057519  0.56452995  1  0.178826  0  -0.050225  -0.315491  0  4.135503  0
C  C60  1  0.09793135  0.09299954  0.69393287  1  0.121278  0  -0.052646  -0.320034  0  4.136868  0
C  C61  1  0.76794469  0.23665874  0.56700320  1  0.080001  0  -0.050392  -0.315356  0  4.133425  0
C  C62  1  0.90095087  0.90212161  0.69850877  1  0.114887  0  -0.052662  -0.319207  0  4.141049  0
C  C63  1  0.23830796  0.23752932  0.43125513  1  0.156385  0  -0.049265  -0.313523  0  4.134409  0
C  C64  1  0.07819396  0.91188070  0.29595446  1  0.12568  0  -0.051703  -0.317153  0  4.130461  0
C  C65  1  0.76760054  0.76356608  0.43730693  1  0.074142  0  -0.050177  -0.315497  0  4.135565  0
C  C66  1  0.89898656  0.09691334  0.29966211  1  0.125065  0  -0.053132  -0.321408  0  4.14136  0
C  C67  1  0.85319724  0.77058455  0.86024421  1  0.083552  0  -0.120091  -0.22041  0  4.062859  0
C  C68  1  0.65101846  0.74601929  0.95912559  1  1.109911  0  0.212107  0.368815  0  4.108739  0
C  C69  1  0.40391917  0.69350300  0.69536293  1  0.107102  0  -0.116474  -0.21361  0  4.053735  0
C  C70  1  0.14275591  0.22679834  0.85523317  1  -0.024144  0  -0.119512  -0.219749  0  4.065356  0
C  C71  1  0.60088237  0.32043178  0.69228207  1  0.085711  0  -0.117277  -0.212622  0  4.059317  0
C  C72  1  0.85267276  0.22492327  0.13609196  1  0.078476  0  -0.119489  -0.21886  0  4.060971  0
C  C73  1  0.40465047  0.32306261  0.30724030  1  0.028891  0  -0.11609  -0.211774  0  4.057599  0
C  C74  1  0.13280586  0.77351392  0.13958385  1  0.093968  0  -0.117688  -0.215872  0  4.054969  0
C  C75  1  0.60226379  0.67855708  0.31187133  1  0.123843  0  -0.117714  -0.213381  0  4.058437  0
C  C76  1  0.36113318  0.27577648  0.35930574  1  0.182896  0  -0.119714  -0.220722  0  4.060446  0
C  C77  1  0.89657188  0.17923167  0.18866532  1  0.039495  0  -0.117096  -0.21325  0  4.057009  0
C  C78  1  0.64637731  0.72566155  0.36375762  1  0.040922  0  -0.119365  -0.218791  0  4.062585  0
C  C79  1  0.62864138  0.46726692  0.84716860  1  1.076525  0  0.209549  0.36721  0  4.079809  0
C  C80  1  0.08843317  0.81250564  0.19624951  1  0.049032  0  -0.119095  -0.219512  0  4.05969  0
C  C81  1  0.36038657  0.73922618  0.64243742  1  0.090664  0  -0.118423  -0.220103  0  4.060535  0
C  C82  1  0.89746784  0.81664931  0.80790189  1  0.086561  0  -0.117473  -0.212862  0  4.062452  0
C  C83  1  0.64608334  0.27351279  0.64076703  1  0.077608  0  -0.120047  -0.2221  0  4.06392  0
C  C84  1  0.09899958  0.17975198  0.80308576  1  0.107188  0  -0.117825  -0.213383  0  4.058987  0
C  C85  1  0.78512337  0.79089154  0.89767537  1  0.443672  0  0.091048  0.284672  0  4.087939  0
C  C86  1  0.37027459  0.63765605  0.73917176  1  0.379778  0  0.090334  0.282915  0  4.076077  0
C  C87  1  0.21001005  0.20720411  0.89354966  1  0.526156  0  0.090569  0.28393  0  4.090525  0
C  C88  1  0.63187925  0.37768738  0.73652651  1  0.404789  0  0.08943  0.280964  0  4.079459  0
C  C89  1  0.78396176  0.20503460  0.09958400  1  0.430062  0  0.090826  0.284114  0  4.088937  0
C  C90  1  0.34490429  0.25337303  0.95237837  1  1.070062  0  0.212165  0.367726  0  4.108226  0
C  C91  1  0.36998590  0.37599144  0.26158444  1  0.460904  0  0.089644  0.280491  0  4.078806  0
C  C92  1  0.21518102  0.77871340  0.12863901  1  0.418892  0  0.091122  0.286005  0  4.078001  0
C  C93  1  0.63435058  0.62173071  0.26768865  1  0.384133  0  0.089493  0.280986  0  4.078847  0
C  C94  1  0.29211486  0.29489345  0.39590467  1  0.361087  0  0.090824  0.284049  0  4.092652  0
C  C95  1  0.86385223  0.12528183  0.23467437  1  0.449913  0  0.090182  0.282944  0  4.076949  0
C  C96  1  0.71416251  0.70614273  0.40143023  1  0.449741  0  0.090376  0.283971  0  4.088956  0
C  C97  1  0.10352368  0.88620222  0.22658357  1  0.456933  0  0.090196  0.282614  0  4.090091  0
C  C98  1  0.29513448  0.71634533  0.60286206  1  0.429587  0  0.091218  0.286076  0  4.087802  0
C  C99  1  0.86526991  0.87171719  0.76277081  1  0.399608  0  0.089115  0.280749  0  4.08081  0
C  C100  1  0.71418430  0.29349707  0.60335213  1  0.464348  0  0.090723  0.2855  0  4.09114  0
C  C101  1  0.36975188  0.54333844  0.84602545  1  1.080573  0  0.209307  0.365661  0  4.088163  0
C  C102  1  0.13134520  0.12255444  0.75940616  1  0.445779  0  0.090235  0.282168  0  4.077968  0
C  C103  1  0.15784568  0.75772098  0.54643632  1  1.057037  0  0.213192  0.3717  0  4.10743  0
N  N104  1  0.61522575  0.32006144  0.01693031  1  -0.825221  0  -0.287418  -0.296082  0  3.534817  0
N  N105  1  0.09661698  0.03498163  0.58502634  1  -0.799271  0  -0.292697  -0.30104  0  3.579041  0
N  N106  1  0.88485673  0.18002854  0.52063775  1  -0.821895  0  -0.287022  -0.295529  0  3.539336  0
N  N107  1  0.90819162  0.96460134  0.59191563  1  -0.816549  0  -0.290994  -0.300359  0  3.568648  0
N  N108  1  0.12066841  0.17950563  0.47486630  1  -0.806282  0  -0.285902  -0.294862  0  3.53395  0
N  N109  1  0.08872285  0.96733784  0.40544879  1  -0.799705  0  -0.293368  -0.30047  0  3.587714  0
N  N110  1  0.88455526  0.82134186  0.48231669  1  -0.813606  0  -0.286861  -0.296575  0  3.533715  0
N  N111  1  0.90588940  0.03719279  0.40738093  1  -0.792326  0  -0.290227  -0.298795  0  3.565549  0
N  N112  1  0.53382836  0.59147333  0.09712858  1  -0.79013  0  -0.287585  -0.298182  0  3.558185  0
N  N113  1  0.31791899  0.61700335  0.02502341  1  -0.805283  0  -0.282614  -0.292227  0  3.514098  0
N  N114  1  0.46563229  0.40699169  0.08907577  1  -0.807111  0  -0.289533  -0.297809  0  3.565638  0
N  N115  1  0.59537123  0.53293817  0.09422492  1  -0.824281  0  -0.293515  -0.302392  0  3.580969  0
N  N116  1  0.67533267  0.38082096  0.02126766  1  -0.805348  0  -0.283658  -0.29156  0  3.532744  0
N  N117  1  0.52998049  0.40837395  0.90678802  1  -0.795643  0  -0.290307  -0.299056  0  3.56849  0
N  N118  1  0.31974245  0.38355131  0.97173615  1  -0.793484  0  -0.282439  -0.290313  0  3.532717  0
N  N119  1  0.46459403  0.60041842  0.91126052  1  -0.780137  0  -0.286703  -0.297454  0  3.556914  0
N  N120  1  0.67709013  0.61650290  0.97951644  1  -0.796369  0  -0.284277  -0.292003  0  3.534182  0
N  N121  1  0.03536036  0.09381196  0.58694779  1  -0.814904  0  -0.288931  -0.299337  0  3.565215  0
N  N122  1  0.82592244  0.11823094  0.52532285  1  -0.802297  0  -0.282379  -0.291303  0  3.525914  0
N  N123  1  0.96959053  0.90583270  0.59398454  1  -0.813763  0  -0.289068  -0.297681  0  3.557049  0
N  N124  1  0.18258588  0.88521980  0.51728863  1  -0.838092  0  -0.283753  -0.289512  0  3.528401  0
N  N125  1  0.03145405  0.90480604  0.40853058  1  -0.820136  0  -0.289968  -0.301439  0  3.580676  0
N  N126  1  0.38066904  0.67514501  0.03065892  1  -0.816618  0  -0.286756  -0.297538  0  3.526162  0
N  N127  1  0.82560619  0.88294395  0.47686965  1  -0.819461  0  -0.283007  -0.293468  0  3.528342  0
N  N128  1  0.96537111  0.09792392  0.40489957  1  -0.813531  0  -0.290369  -0.301128  0  3.573993  0
N  N129  1  0.18004532  0.11821263  0.46990196  1  -0.818264  0  -0.283534  -0.288756  0  3.538778  0
N  N130  1  0.40343618  0.46492037  0.08809186  1  -0.798034  0  -0.292641  -0.302328  0  3.575846  0
N  N131  1  0.61748141  0.67760328  0.98468182  1  -0.835149  0  -0.286264  -0.296699  0  3.525326  0
N  N132  1  0.59072907  0.46788623  0.90929320  1  -0.822571  0  -0.292308  -0.30283  0  3.565198  0
N  N133  1  0.37909225  0.32226911  0.97664829  1  -0.836949  0  -0.286659  -0.292854  0  3.535536  0
N  N134  1  0.40496276  0.53983862  0.90894563  1  -0.8385  0  -0.293225  -0.298277  0  3.584185  0
N  N135  1  0.12262047  0.82413738  0.51912742  1  -0.786159  0  -0.28716  -0.295697  0  3.535254  0
F  F136  1  0.60269510  0.18325888  0.04324100  1  -0.621095  0  -0.07768  -0.122799  0  1.348375  0
F  F137  1  0.19473009  0.98289819  0.66020209  1  -0.628164  0  -0.077983  -0.121249  0  1.36726  0
F  F138  1  0.89522348  0.31723248  0.54698263  1  -0.6198  0  -0.078327  -0.123081  0  1.348996  0
F  F139  1  0.80559650  0.01314425  0.66519093  1  -0.626367  0  -0.078802  -0.12273  0  1.369281  0
F  F140  1  0.11028604  0.31703381  0.45086823  1  -0.623894  0  -0.077166  -0.122332  0  1.348574  0
F  F141  1  0.17225862  0.02724500  0.32193571  1  -0.631057  0  -0.078373  -0.120448  0  1.360518  0
F  F142  1  0.89492731  0.68368540  0.45778168  1  -0.626823  0  -0.078582  -0.12357  0  1.347558  0
F  F143  1  0.80653580  0.98353181  0.33366921  1  -0.631562  0  -0.078281  -0.121218  0  1.36736  0
F  F144  1  0.48441587  0.68548835  0.17819360  1  -0.632521  0  -0.072723  -0.120587  0  1.360576  0
F  F145  1  0.18222075  0.60479751  0.05989643  1  -0.625834  0  -0.078226  -0.128804  0  1.341939  0
F  F146  1  0.51855541  0.31355471  0.16810410  1  -0.634932  0  -0.073913  -0.119906  0  1.345625  0
F  F147  1  0.69624135  0.48202194  0.16723805  1  -0.634175  0  -0.079769  -0.123552  0  1.365319  0
F  F148  1  0.81013134  0.39144693  0.05806995  1  -0.63206  0  -0.075869  -0.127275  0  1.346753  0
F  F149  1  0.48204668  0.31257071  0.82689116  1  -0.633978  0  -0.074889  -0.121805  0  1.34413  0
F  F150  1  0.18544866  0.39481674  0.93363911  1  -0.629792  0  -0.076328  -0.126821  0  1.344965  0
F  F151  1  0.51415946  0.70143756  0.83728084  1  -0.630136  0  -0.074411  -0.120972  0  1.347108  0
F  F152  1  0.81077787  0.60470764  0.93961661  1  -0.632811  0  -0.076683  -0.127872  0  1.345429  0
F  F153  1  0.98400345  0.18765385  0.66726693  1  -0.634997  0  -0.07346  -0.119918  0  1.348714  0
F  F154  1  0.69132163  0.10577520  0.56291574  1  -0.629462  0  -0.077319  -0.128422  0  1.346752  0
F  F155  1  0.01683636  0.80894959  0.67245670  1  -0.632532  0  -0.074852  -0.121498  0  1.344557  0
F  F156  1  0.31896818  0.89934327  0.54924538  1  -0.62664  0  -0.078247  -0.129068  0  1.341183  0
F  F157  1  0.97511627  0.80932743  0.33226684  1  -0.630433  0  -0.072494  -0.119163  0  1.348017  0
F  F158  1  0.39777797  0.80407524  0.07741175  1  -0.623724  0  -0.077374  -0.123763  0  1.352967  0
F  F159  1  0.69095775  0.89439126  0.43974512  1  -0.628453  0  -0.077149  -0.12808  0  1.345281  0
F  F160  1  0.01119067  0.19455552  0.32542403  1  -0.629349  0  -0.074797  -0.121685  0  1.343624  0
F  F161  1  0.31509807  0.10679750  0.43341573  1  -0.629207  0  -0.07658  -0.127545  0  1.341334  0
F  F162  1  0.75601060  0.86930994  0.89981082  1  -0.616041  0  -0.102757  -0.13663  0  1.352988  0
F  F163  1  0.29020833  0.61319264  0.72999419  1  -0.614816  0  -0.104426  -0.141545  0  1.360133  0
F  F164  1  0.23806852  0.12855166  0.89789004  1  -0.611679  0  -0.102722  -0.136836  0  1.354667  0
F  F165  1  0.71144261  0.40422924  0.72884682  1  -0.615365  0  -0.103849  -0.140051  0  1.360207  0
F  F166  1  0.75396756  0.12689134  0.09800165  1  -0.614148  0  -0.101875  -0.135732  0  1.353379  0
F  F167  1  0.28859329  0.39680218  0.26863362  1  -0.615469  0  -0.103972  -0.140671  0  1.361556  0
F  F168  1  0.26209425  0.83082453  0.16821962  1  -0.623999  0  -0.103093  -0.139015  0  1.353849  0
F  F169  1  0.30463377  0.51491074  0.16441469  1  -0.629342  0  -0.076912  -0.119847  0  1.369038  0
F  F170  1  0.71388439  0.59557044  0.27595139  1  -0.613087  0  -0.103947  -0.139652  0  1.35908  0
F  F171  1  0.26282091  0.37320275  0.39898869  1  -0.61493  0  -0.101801  -0.135769  0  1.356528  0
F  F172  1  0.78346998  0.10076220  0.22809096  1  -0.616139  0  -0.104587  -0.141036  0  1.356088  0
F  F173  1  0.74234979  0.62751733  0.40535658  1  -0.616574  0  -0.102133  -0.135965  0  1.353987  0
F  F174  1  0.15385677  0.94225422  0.19517198  1  -0.618082  0  -0.104693  -0.140369  0  1.354899  0
F  F175  1  0.27003532  0.63657629  0.59897901  1  -0.614657  0  -0.102557  -0.137402  0  1.352792  0
F  F176  1  0.78490352  0.89609406  0.76969588  1  -0.614639  0  -0.104041  -0.140335  0  1.358559  0
F  F177  1  0.74212614  0.37228181  0.59972435  1  -0.615208  0  -0.101755  -0.135869  0  1.354571  0
F  F178  1  0.21050121  0.09582584  0.76874200  1  -0.613726  0  -0.103894  -0.140345  0  1.360482  0
F  F179  1  0.60512865  0.81409827  0.95727244  1  -0.617536  0  -0.078148  -0.123183  0  1.350026  0
F  F180  1  0.69100724  0.51934391  0.83536549  1  -0.629526  0  -0.078073  -0.121734  0  1.371223  0
F  F181  1  0.39065551  0.18518749  0.95021701  1  -0.618161  0  -0.077426  -0.122359  0  1.348084  0
F  F182  1  0.30889583  0.49092653  0.83016373  1  -0.628899  0  -0.078735  -0.122112  0  1.363737  0
F  F183  1  0.11210621  0.69016556  0.55476184  1  -0.620963  0  -0.076997  -0.122635  0  1.348199  0
