# generated using pymatgen
data_MgH9C4NO6
_symmetry_space_group_name_H-M   'P 1'
_cell_length_a   6.11705064
_cell_length_b   8.70634219
_cell_length_c   14.88267524
_cell_angle_alpha   89.99896917
_cell_angle_beta   89.99912221
_cell_angle_gamma   89.99912787
_symmetry_Int_Tables_number   1
_chemical_formula_structural   MgH9C4NO6
_chemical_formula_sum   'Mg4 H36 C16 N4 O24'
_cell_volume   792.60865990
_cell_formula_units_Z   4
loop_
 _symmetry_equiv_pos_site_id
 _symmetry_equiv_pos_as_xyz
  1  'x, y, z'
loop_
 _atom_site_type_symbol
 _atom_site_label
 _atom_site_symmetry_multiplicity
 _atom_site_fract_x
 _atom_site_fract_y
 _atom_site_fract_z
 _atom_site_occupancy
 _atom_site_hle17_bader_spin_density
 _atom_site_hle17_ddec_charge
 _atom_site_hle17_ddec_spin_density
 _atom_site_hle17_ddec_sum_bond_order
 _atom_site_hle17_magmom
 _atom_site_hse06_10hf_bader_spin_density
 _atom_site_hse06_10hf_ddec_charge
 _atom_site_hse06_10hf_ddec_spin_density
 _atom_site_hse06_10hf_ddec_sum_bond_order
 _atom_site_hse06_10hf_magmom
 _atom_site_hse06_bader_spin_density
 _atom_site_hse06_ddec_charge
 _atom_site_hse06_ddec_spin_density
 _atom_site_hse06_ddec_sum_bond_order
 _atom_site_hse06_magmom
 _atom_site_pbe_bader_spin_density
 _atom_site_pbe_cm5_charge
 _atom_site_pbe_ddec_charge
 _atom_site_pbe_ddec_spin_density
 _atom_site_pbe_ddec_sum_bond_order
 _atom_site_pbe_magmom
Mg  Mg0  1  0.38284320  0.14106209  0.88452139  1  0  1.465856  0  1.167994  0  0  1.353417  0  1.42661  0  0  1.375789  0  1.393253  0  0  0.826645  1.337532  0  1.449982  0
Mg  Mg1  1  0.88283113  0.35892978  0.11547151  1  0  1.465947  0  1.167964  0  0  1.353659  0  1.426372  0  0  1.376026  0  1.393024  0  0  0.82676  1.337767  0  1.449749  0
Mg  Mg2  1  0.61713447  0.64104959  0.61547502  1  0  1.465903  0  1.167906  0  0  1.353541  0  1.42642  0  0  1.375912  0  1.393065  0  0  0.826649  1.337651  0  1.449799  0
Mg  Mg3  1  0.11713525  0.85892796  0.38452716  1  0  1.46587  0  1.168008  0  0  1.353469  0  1.426594  0  0  1.375836  0  1.393247  0  0  0.826724  1.337577  0  1.449976  0
H  H4  1  0.40859990  0.85840436  0.80294246  1  0  0.322632  0  0.915264  0  0  0.308296  0  0.977079  0  0  0.316001  0  0.969896  0  0  0.291841  0.302759  0  0.982405  0
H  H5  1  0.90859781  0.64159270  0.19705417  1  0  0.322619  0  0.915242  0  0  0.30832  0  0.976996  0  0  0.316023  0  0.969817  0  0  0.291886  0.302783  0  0.982322  0
H  H6  1  0.59143898  0.35840768  0.69705389  1  0  0.322567  0  0.915193  0  0  0.308229  0  0.977042  0  0  0.315935  0  0.969851  0  0  0.29179  0.302685  0  0.98238  0
H  H7  1  0.09140055  0.14158766  0.30294725  1  0  0.322617  0  0.91527  0  0  0.308306  0  0.977042  0  0  0.316012  0  0.969859  0  0  0.291871  0.302771  0  0.982368  0
H  H8  1  0.18153822  0.85432718  0.86108101  1  0  0.309877  0  0.878372  0  0  0.307578  0  0.921315  0  0  0.312739  0  0.917884  0  0  0.304356  0.304002  0  0.923673  0
H  H9  1  0.68151416  0.64565994  0.13891890  1  0  0.309822  0  0.878379  0  0  0.307464  0  0.921403  0  0  0.312621  0  0.917983  0  0  0.304374  0.303887  0  0.923766  0
H  H10  1  0.81851873  0.35432529  0.63893049  1  0  0.309891  0  0.878476  0  0  0.307625  0  0.921353  0  0  0.312781  0  0.91793  0  0  0.304468  0.304054  0  0.923707  0
H  H11  1  0.31846777  0.14565931  0.36107677  1  0  0.309804  0  0.878424  0  0  0.307476  0  0.921402  0  0  0.312632  0  0.917981  0  0  0.304381  0.303897  0  0.923773  0
H  H12  1  0.14706770  0.89253770  0.69217375  1  0  0.055834  0  0.958595  0  0  0.06974  0  1.016725  0  0  0.070809  0  1.017123  0  0  0.111795  0.068835  0  1.016592  0
H  H13  1  0.64706421  0.60745558  0.30782464  1  0  0.055655  0  0.958696  0  0  0.069661  0  1.016772  0  0  0.070694  0  1.017217  0  0  0.111747  0.06875  0  1.016638  0
H  H14  1  0.85296725  0.39252688  0.80782760  1  0  0.055803  0  0.958566  0  0  0.069722  0  1.016737  0  0  0.070794  0  1.017131  0  0  0.111806  0.068818  0  1.016596  0
H  H15  1  0.35291846  0.10746764  0.19217581  1  0  0.055679  0  0.958567  0  0  0.069642  0  1.0167  0  0  0.07071  0  1.017098  0  0  0.111762  0.068739  0  1.016562  0
H  H16  1  0.83054236  0.07256022  0.71599105  1  0  0.138588  0  0.909365  0  0  0.150885  0  0.969607  0  0  0.153921  0  0.968052  0  0  0.1165  0.148696  0  0.970739  0
H  H17  1  0.33053909  0.42743457  0.28400261  1  0  0.138625  0  0.909255  0  0  0.150875  0  0.969549  0  0  0.153904  0  0.968002  0  0  0.116533  0.148695  0  0.970674  0
H  H18  1  0.16944318  0.57255708  0.78401017  1  0  0.138556  0  0.909437  0  0  0.150871  0  0.969616  0  0  0.153904  0  0.968064  0  0  0.116482  0.148689  0  0.970745  0
H  H19  1  0.66944069  0.92743593  0.21600267  1  0  0.138558  0  0.909284  0  0  0.15089  0  0.969571  0  0  0.153927  0  0.968015  0  0  0.116543  0.148706  0  0.970695  0
H  H20  1  0.82538515  0.90643371  0.78185708  1  0  0.136884  0  0.952291  0  0  0.143623  0  1.02065  0  0  0.147164  0  1.019046  0  0  0.111026  0.140938  0  1.022028  0
H  H21  1  0.32536960  0.59358156  0.21813134  1  0  0.136852  0  0.952373  0  0  0.143584  0  1.020742  0  0  0.147123  0  1.019137  0  0  0.110993  0.140904  0  1.022117  0
H  H22  1  0.17465771  0.40644393  0.71814033  1  0  0.136756  0  0.952521  0  0  0.143551  0  1.020798  0  0  0.147095  0  1.019181  0  0  0.110993  0.140862  0  1.022194  0
H  H23  1  0.67460516  0.09357109  0.28185826  1  0  0.136796  0  0.952327  0  0  0.143574  0  1.020735  0  0  0.147111  0  1.019141  0  0  0.110985  0.140894  0  1.022104  0
H  H24  1  0.32435074  0.38926482  0.98141594  1  0  0.430543  0  0.8518  0  0  0.401655  0  0.919822  0  0  0.41191  0  0.904649  0  0  0.308902  0.394305  0  0.930753  0
H  H25  1  0.82436527  0.11073119  0.01857713  1  0  0.43024  0  0.852142  0  0  0.401381  0  0.920185  0  0  0.41164  0  0.905007  0  0  0.3087  0.394033  0  0.931111  0
H  H26  1  0.67564014  0.88926314  0.51858099  1  0  0.430386  0  0.85192  0  0  0.401472  0  0.920064  0  0  0.411732  0  0.904885  0  0  0.308793  0.394122  0  0.930998  0
H  H27  1  0.17564840  0.61072864  0.48142370  1  0  0.430407  0  0.85186  0  0  0.401501  0  0.920009  0  0  0.411756  0  0.904838  0  0  0.308793  0.394153  0  0.930938  0
H  H28  1  0.56880987  0.38993208  0.94950389  1  0  0.423373  0  0.877604  0  0  0.389636  0  0.947803  0  0  0.400376  0  0.932027  0  0  0.297506  0.381988  0  0.959037  0
H  H29  1  0.06882323  0.11006811  0.05049690  1  0  0.423483  0  0.877433  0  0  0.389673  0  0.947762  0  0  0.400411  0  0.931986  0  0  0.297547  0.38203  0  0.958988  0
H  H30  1  0.43117936  0.88993399  0.55049635  1  0  0.423445  0  0.877542  0  0  0.389674  0  0.947769  0  0  0.400414  0  0.931992  0  0  0.297541  0.382026  0  0.959004  0
H  H31  1  0.93119371  0.61006625  0.44950399  1  0  0.423375  0  0.87771  0  0  0.389663  0  0.94779  0  0  0.400401  0  0.932012  0  0  0.297533  0.382016  0  0.959026  0
H  H32  1  0.35363684  0.97588640  0.05620489  1  0  0.440607  0  0.857759  0  0  0.40751  0  0.922718  0  0  0.419342  0  0.905675  0  0  0.295235  0.399146  0  0.934741  0
H  H33  1  0.85361901  0.52411246  0.94379051  1  0  0.440625  0  0.857724  0  0  0.407532  0  0.922679  0  0  0.419368  0  0.905633  0  0  0.295262  0.399168  0  0.934701  0
H  H34  1  0.64636817  0.47589506  0.44378998  1  0  0.440635  0  0.857687  0  0  0.407553  0  0.922622  0  0  0.419381  0  0.905586  0  0  0.29529  0.399191  0  0.934642  0
H  H35  1  0.14635602  0.02411111  0.55621170  1  0  0.440563  0  0.857803  0  0  0.407463  0  0.922769  0  0  0.419298  0  0.905724  0  0  0.295234  0.399101  0  0.934789  0
H  H36  1  0.42932500  0.15458581  0.05617474  1  0  0.417882  0  0.886934  0  0  0.382301  0  0.963782  0  0  0.393662  0  0.946965  0  0  0.300187  0.374241  0  0.975726  0
H  H37  1  0.92932714  0.34541699  0.94381681  1  0  0.417886  0  0.886963  0  0  0.382305  0  0.963784  0  0  0.393663  0  0.946971  0  0  0.300183  0.37425  0  0.97572  0
H  H38  1  0.57067474  0.65458939  0.44382416  1  0  0.417886  0  0.886976  0  0  0.382311  0  0.963794  0  0  0.393672  0  0.946975  0  0  0.300209  0.374253  0  0.975736  0
H  H39  1  0.07067275  0.84540939  0.55617802  1  0  0.41791  0  0.886943  0  0  0.38231  0  0.963789  0  0  0.39367  0  0.946974  0  0  0.300195  0.374251  0  0.975733  0
C  C40  1  0.26120369  0.12302423  0.70175755  1  0  0.644911  0  3.851508  0  0  0.594472  0  4.161839  0  0  0.626494  0  4.154471  0  0  0.211376  0.572833  0  4.166192  0
C  C41  1  0.76119654  0.37698861  0.29823644  1  0  0.645205  0  3.851859  0  0  0.594714  0  4.162312  0  0  0.626737  0  4.154933  0  0  0.211499  0.573078  0  4.166668  0
C  C42  1  0.73878741  0.62301490  0.79823511  1  0  0.6451  0  3.851716  0  0  0.594616  0  4.162135  0  0  0.626638  0  4.154767  0  0  0.211415  0.572978  0  4.166488  0
C  C43  1  0.23877767  0.87698303  0.20177338  1  0  0.644902  0  3.85183  0  0  0.594515  0  4.16215  0  0  0.62653  0  4.154789  0  0  0.211417  0.572876  0  4.166503  0
C  C44  1  0.15329564  0.98041683  0.74487197  1  0  0.084965  0  3.639669  0  0  0.064012  0  3.886567  0  0  0.064411  0  3.898493  0  0  -0.006011  0.063765  0  3.878269  0
C  C45  1  0.65331778  0.51959245  0.25512229  1  0  0.085176  0  3.639434  0  0  0.064114  0  3.886475  0  0  0.064523  0  3.898414  0  0  -0.006012  0.063878  0  3.878176  0
C  C46  1  0.84671147  0.48040353  0.75512886  1  0  0.085213  0  3.639145  0  0  0.064087  0  3.886289  0  0  0.064484  0  3.898208  0  0  -0.006019  0.063851  0  3.877984  0
C  C47  1  0.34667966  0.01960025  0.24488001  1  0  0.085203  0  3.639234  0  0  0.064134  0  3.886436  0  0  0.064532  0  3.89837  0  0  -0.006024  0.063887  0  3.878135  0
C  C48  1  0.91564143  0.01380008  0.77145421  1  0  -0.331696  0  3.627769  0  0  -0.372909  0  3.881081  0  0  -0.379999  0  3.887748  0  0  -0.158603  -0.367835  0  3.8763  0
C  C49  1  0.41564623  0.48622356  0.22854494  1  0  -0.331613  0  3.627409  0  0  -0.372797  0  3.880579  0  0  -0.379875  0  3.88724  0  0  -0.158536  -0.367749  0  3.875834  0
C  C50  1  0.08436486  0.51378910  0.72855095  1  0  -0.331627  0  3.627774  0  0  -0.372759  0  3.880748  0  0  -0.379846  0  3.887422  0  0  -0.158559  -0.367715  0  3.87601  0
C  C51  1  0.58433569  0.98621641  0.27145573  1  0  -0.331363  0  3.62722  0  0  -0.372744  0  3.880739  0  0  -0.379837  0  3.88742  0  0  -0.158523  -0.367681  0  3.875973  0
C  C52  1  0.88950089  0.11124679  0.85485706  1  0  0.76762  0  3.77524  0  0  0.711984  0  4.078988  0  0  0.745731  0  4.069192  0  0  0.239114  0.689027  0  4.084959  0
C  C53  1  0.38945925  0.38875189  0.14514313  1  0  0.767272  0  3.775535  0  0  0.71195  0  4.078872  0  0  0.745695  0  4.06909  0  0  0.23908  0.688989  0  4.084845  0
C  C54  1  0.11048389  0.61125547  0.64514606  1  0  0.767404  0  3.775965  0  0  0.711938  0  4.079453  0  0  0.745682  0  4.069667  0  0  0.238931  0.688983  0  4.08543  0
C  C55  1  0.61048694  0.88874513  0.35485823  1  0  0.767451  0  3.775909  0  0  0.712  0  4.079539  0  0  0.74575  0  4.069743  0  0  0.239025  0.689037  0  4.08552  0
N  N56  1  0.27878354  0.92567887  0.82368799  1  0  -0.748674  0  3.019844  0  0  -0.714322  0  3.251061  0  0  -0.727594  0  3.245244  0  0  -0.665325  -0.70498  0  3.254996  0
N  N57  1  0.77879886  0.57431629  0.17630312  1  0  -0.748704  0  3.019804  0  0  -0.714319  0  3.251106  0  0  -0.727586  0  3.245282  0  0  -0.665443  -0.70498  0  3.255039  0
N  N58  1  0.72125241  0.42567877  0.67630366  1  0  -0.748781  0  3.019837  0  0  -0.714423  0  3.251045  0  0  -0.727698  0  3.245235  0  0  -0.66545  -0.705078  0  3.254999  0
N  N59  1  0.22120406  0.07431273  0.32369695  1  0  -0.748731  0  3.020026  0  0  -0.714299  0  3.251289  0  0  -0.72757  0  3.245472  0  0  -0.665467  -0.704965  0  3.255233  0
O  O60  1  0.19820521  0.16182185  0.62416738  1  0  -0.615963  0  1.904958  0  0  -0.570474  0  2.115784  0  0  -0.592996  0  2.104248  0  0  -0.332851  -0.555131  0  2.123557  0
O  O61  1  0.69818331  0.33817911  0.37581273  1  0  -0.616126  0  1.905082  0  0  -0.570612  0  2.115924  0  0  -0.593128  0  2.104394  0  0  -0.332845  -0.555275  0  2.123699  0
O  O62  1  0.80182764  0.66180670  0.87582648  1  0  -0.616178  0  1.904621  0  0  -0.570676  0  2.115483  0  0  -0.593197  0  2.10394  0  0  -0.332905  -0.55533  0  2.123253  0
O  O63  1  0.30182108  0.83819967  0.12418243  1  0  -0.616157  0  1.904556  0  0  -0.570659  0  2.115348  0  0  -0.59318  0  2.103819  0  0  -0.332974  -0.555313  0  2.123118  0
O  O64  1  0.40305102  0.19576703  0.74859228  1  0  -0.704756  0  2.004124  0  0  -0.643544  0  2.233264  0  0  -0.667848  0  2.223398  0  0  -0.349984  -0.626323  0  2.239627  0
O  O65  1  0.90304312  0.30426365  0.25140570  1  0  -0.704963  0  2.004554  0  0  -0.64375  0  2.233707  0  0  -0.668069  0  2.223857  0  0  -0.350189  -0.626535  0  2.240077  0
O  O66  1  0.59697138  0.69575111  0.75141131  1  0  -0.704763  0  2.004955  0  0  -0.643485  0  2.234032  0  0  -0.667797  0  2.224176  0  0  -0.349953  -0.626277  0  2.240407  0
O  O67  1  0.09696028  0.80425081  0.24859318  1  0  -0.704629  0  2.005156  0  0  -0.643417  0  2.234235  0  0  -0.66772  0  2.224378  0  0  -0.349942  -0.626202  0  2.240602  0
O  O68  1  0.04809310  0.19538397  0.88173154  1  0  -0.728761  0  2.054608  0  0  -0.65526  0  2.283748  0  0  -0.681453  0  2.274088  0  0  -0.340193  -0.637182  0  2.290053  0
O  O69  1  0.54806249  0.30461877  0.11828702  1  0  -0.728665  0  2.054237  0  0  -0.655475  0  2.283497  0  0  -0.681611  0  2.273727  0  0  -0.340234  -0.637356  0  2.289762  0
O  O70  1  0.95193093  0.69538988  0.61828619  1  0  -0.728312  0  2.05526  0  0  -0.655046  0  2.284511  0  0  -0.681208  0  2.274786  0  0  -0.33993  -0.636929  0  2.290774  0
O  O71  1  0.45192455  0.80461815  0.38171452  1  0  -0.728385  0  2.055224  0  0  -0.655118  0  2.2845  0  0  -0.681274  0  2.274766  0  0  -0.340017  -0.637001  0  2.290766  0
O  O72  1  0.70938985  0.10816127  0.89719162  1  0  -0.737636  0  2.033925  0  0  -0.674125  0  2.275605  0  0  -0.697724  0  2.261833  0  0  -0.357159  -0.657862  0  2.284894  0
O  O73  1  0.20933297  0.39184759  0.10281991  1  0  -0.737522  0  2.03438  0  0  -0.674118  0  2.275926  0  0  -0.697726  0  2.262157  0  0  -0.357163  -0.657857  0  2.285222  0
O  O74  1  0.29062116  0.60811794  0.60281111  1  0  -0.73791  0  2.033783  0  0  -0.674494  0  2.275443  0  0  -0.698067  0  2.2616  0  0  -0.35723  -0.658234  0  2.284744  0
O  O75  1  0.79063278  0.89185869  0.39718185  1  0  -0.737967  0  2.033965  0  0  -0.674446  0  2.275602  0  0  -0.698033  0  2.261778  0  0  -0.357308  -0.658183  0  2.284907  0
O  O76  1  0.41738078  0.36772065  0.92875770  1  0  -0.858385  0  1.823604  0  0  -0.805977  0  2.003827  0  0  -0.822398  0  1.972066  0  0  -0.609142  -0.794454  0  2.026197  0
O  O77  1  0.91742000  0.13226966  0.07124411  1  0  -0.858194  0  1.82369  0  0  -0.805796  0  2.00405  0  0  -0.822216  0  1.972287  0  0  -0.608986  -0.794275  0  2.026417  0
O  O78  1  0.58259907  0.86771919  0.57124185  1  0  -0.858305  0  1.82354  0  0  -0.805873  0  2.003838  0  0  -0.822302  0  1.972072  0  0  -0.609091  -0.794353  0  2.02621  0
O  O79  1  0.08260633  0.63227256  0.42875948  1  0  -0.858283  0  1.823741  0  0  -0.805873  0  2.003984  0  0  -0.822293  0  1.972228  0  0  -0.609099  -0.794358  0  2.026358  0
O  O80  1  0.34893225  0.07571948  0.02028142  1  0  -0.913656  0  1.913521  0  0  -0.848393  0  2.102797  0  0  -0.868251  0  2.068181  0  0  -0.595185  -0.834217  0  2.126872  0
O  O81  1  0.84889076  0.42426705  0.97971062  1  0  -0.913677  0  1.913552  0  0  -0.848483  0  2.102812  0  0  -0.868341  0  2.068194  0  0  -0.595214  -0.834302  0  2.12688  0
O  O82  1  0.65111479  0.57572932  0.47970911  1  0  -0.913644  0  1.913606  0  0  -0.848449  0  2.102801  0  0  -0.868308  0  2.068188  0  0  -0.595186  -0.834245  0  2.126824  0
O  O83  1  0.15111089  0.92427080  0.52029123  1  0  -0.913631  0  1.913542  0  0  -0.848358  0  2.102789  0  0  -0.868225  0  2.068175  0  0  -0.595127  -0.834167  0  2.126851  0
