# generated using pymatgen
data_CoH8C12(N2O)2
_symmetry_space_group_name_H-M   'P 1'
_cell_length_a   4.58332259
_cell_length_b   10.85249005
_cell_length_c   11.09146599
_cell_angle_alpha   89.99921447
_cell_angle_beta   92.43419892
_cell_angle_gamma   90.00128254
_symmetry_Int_Tables_number   1
_chemical_formula_structural   CoH8C12(N2O)2
_chemical_formula_sum   'Co2 H16 C24 N8 O4'
_cell_volume   551.19683373
_cell_formula_units_Z   2
loop_
 _symmetry_equiv_pos_site_id
 _symmetry_equiv_pos_as_xyz
  1  'x, y, z'
loop_
 _atom_site_type_symbol
 _atom_site_label
 _atom_site_symmetry_multiplicity
 _atom_site_fract_x
 _atom_site_fract_y
 _atom_site_fract_z
 _atom_site_occupancy
 _atom_site_hle17_bader_charge
 _atom_site_hle17_bader_spin_density
 _atom_site_hle17_ddec_charge
 _atom_site_hle17_ddec_spin_density
 _atom_site_hle17_ddec_sum_bond_order
 _atom_site_hle17_magmom
 _atom_site_hse06_10hf_ddec_charge
 _atom_site_hse06_10hf_ddec_spin_density
 _atom_site_hse06_10hf_ddec_sum_bond_order
 _atom_site_hse06_10hf_magmom
 _atom_site_hse06_ddec_charge
 _atom_site_hse06_ddec_spin_density
 _atom_site_hse06_ddec_sum_bond_order
 _atom_site_hse06_magmom
 _atom_site_pbe_cm5_charge
 _atom_site_pbe_ddec_charge
 _atom_site_pbe_ddec_spin_density
 _atom_site_pbe_ddec_sum_bond_order
 _atom_site_pbe_magmom
Co  Co0  1  0.49999917  0.50000041  0.49999945  1  1.258692  2.587768  0.84754  2.969459  2.536336  2.534  0.590959  1.052372  3.099265  0.933  0.65336  1.048141  3.029784  0.945  0.653623  0.560116  1.043535  3.137793  0.909
Co  Co1  1  0.50000054  0.00000007  0.99999950  1  1.258671  -2.587758  0.847713  -2.969457  2.536161  -2.534  0.591128  -1.052388  3.099173  -0.933  0.6534  -1.048149  3.029727  -0.945  0.65363  0.560172  -1.04354  3.137746  -0.909
H  H2  1  0.03548164  0.11703758  0.42417316  1  -0.041625  -0.000242  0.101372  -8.7e-05  0.941572  0.0  0.113744  -0.000409  0.99805  0.0  0.116994  -0.000275  0.996617  0.0  0.105035  0.111339  -0.000519  0.999585  0.0
H  H3  1  0.96450200  0.61703798  0.07582693  1  -0.041685  0.000244  0.101337  8.8e-05  0.94159  0.0  0.113684  0.000409  0.998091  0.0  0.116934  0.000275  0.996657  0.0  0.104989  0.111265  0.000519  0.999644  0.0
H  H4  1  0.96451667  0.88296232  0.57582665  1  -0.041639  -0.000242  0.101358  -8.7e-05  0.941592  0.0  0.113729  -0.000409  0.998071  0.0  0.116979  -0.000275  0.996638  0.0  0.105023  0.111324  -0.000519  0.999606  0.0
H  H5  1  0.03549850  0.38296192  0.92417293  1  -0.041691  0.000245  0.101347  8.8e-05  0.941606  0.0  0.113691  0.000409  0.99811  0.0  0.116941  0.000275  0.996676  0.0  0.104994  0.111273  0.000519  0.999662  0.0
H  H6  1  0.77100932  0.97791124  0.27734597  1  0.009261  -0.000742  0.065686  -0.000161  0.972123  -0.001  0.072823  -0.000391  1.040922  -0.001  0.074791  -0.000271  1.039251  0.0  0.1101  0.071746  -0.000518  1.041865  -0.001
H  H7  1  0.22898680  0.47790928  0.22264686  1  0.009224  0.000741  0.065701  0.000161  0.972077  0.001  0.072834  0.000391  1.040896  0.001  0.074803  0.000271  1.039223  0.0  0.110069  0.071758  0.000518  1.041838  0.001
H  H8  1  0.22898683  0.02208958  0.72265289  1  0.009255  -0.000741  0.065693  -0.000161  0.972129  -0.001  0.072828  -0.000391  1.040933  -0.001  0.074797  -0.000271  1.039263  0.0  0.110092  0.071752  -0.000518  1.041874  -0.001
H  H9  1  0.77101148  0.52208970  0.77735385  1  0.00895  0.00074  0.065693  0.00016  0.972113  0.001  0.07284  0.000391  1.040913  0.001  0.074809  0.000271  1.039241  0.0  0.110076  0.071764  0.000518  1.041854  0.001
H  H10  1  0.45908662  0.27060889  0.07225824  1  0.03856  -0.00065  0.07974  -0.000143  0.956957  -0.001  0.085296  -0.000259  1.022984  -0.001  0.088507  -0.000178  1.020437  0.0  0.110957  0.082958  -0.000351  1.025283  -0.001
H  H11  1  0.54091944  0.77060447  0.42774030  1  0.038875  0.00065  0.0798  0.000143  0.956899  0.001  0.085307  0.000259  1.022978  0.001  0.088522  0.000179  1.020417  0.0  0.110958  0.082972  0.000351  1.025268  0.001
H  H12  1  0.54091390  0.72939193  0.92774072  1  0.038586  -0.00065  0.079736  -0.000143  0.956969  -0.001  0.085292  -0.000259  1.022996  -0.001  0.088503  -0.000178  1.02045  0.0  0.110957  0.082952  -0.000351  1.025295  -0.001
H  H13  1  0.45908106  0.22939450  0.57225956  1  0.038879  0.000649  0.079801  0.000142  0.956891  0.001  0.085284  0.000259  1.022997  0.001  0.088494  0.000179  1.020454  0.0  0.110951  0.082949  0.000351  1.025294  0.001
H  H14  1  0.69407013  0.42387437  0.21605388  1  -0.020179  -0.000324  0.09831  -0.000169  0.97186  0.0  0.106303  -0.000246  1.038997  0.0  0.108802  -0.000199  1.038453  0.0  0.106612  0.10447  -0.000274  1.039836  0.0
H  H15  1  0.30591652  0.92387233  0.28395389  1  -0.020155  0.000325  0.098371  0.00017  0.971673  0.0  0.106343  0.000246  1.03883  0.0  0.108846  0.000199  1.038286  0.0  0.10663  0.10451  0.000274  1.039669  0.0
H  H16  1  0.30593036  0.57612645  0.78394598  1  -0.020163  -0.000324  0.098315  -0.000169  0.971839  0.0  0.106311  -0.000246  1.03897  0.0  0.10881  -0.000199  1.038426  0.0  0.106623  0.104479  -0.000274  1.039807  0.0
H  H17  1  0.69408837  0.07612665  0.71604517  1  -0.020164  0.000327  0.098379  0.00017  0.971711  0.0  0.106344  0.000246  1.038876  0.0  0.108845  0.000199  1.038332  0.0  0.106624  0.104512  0.000274  1.039711  0.0
C  C18  1  0.03638859  0.37124936  0.41405627  1  1.272469  -0.042267  0.440305  -0.024201  3.824216  -0.034  0.39566  -0.00603  4.099392  -0.007  0.429532  -0.003743  4.097893  -0.005  0.211263  0.371954  -0.00815  4.101018  -0.01
C  C19  1  0.96360234  0.87124776  0.08594599  1  1.272343  0.042234  0.440301  0.02418  3.824082  0.034  0.395667  0.006032  4.099274  0.007  0.429543  0.003744  4.097756  0.005  0.211231  0.371956  0.008151  4.100898  0.01
C  C20  1  0.96360974  0.62874962  0.58594264  1  1.272496  -0.042268  0.440362  -0.024202  3.824165  -0.034  0.395749  -0.006029  4.099292  -0.007  0.429622  -0.003741  4.097791  -0.005  0.211292  0.372042  -0.00815  4.100921  -0.01
C  C21  1  0.03640037  0.12875121  0.91405302  1  1.272365  0.042229  0.440218  0.024176  3.824133  0.034  0.395645  0.006031  4.099255  0.007  0.429521  0.003741  4.09774  0.005  0.21125  0.371935  0.008151  4.100878  0.01
C  C22  1  0.90557901  0.15545318  0.34860711  1  0.098098  -0.013847  -0.139626  -0.007637  3.708505  -0.01  -0.160853  -0.001922  3.958001  -0.002  -0.16577  -0.001425  3.975651  -0.002  -0.084716  -0.158026  -0.002734  3.947511  -0.003
C  C23  1  0.09440852  0.65545451  0.15139526  1  0.098191  0.013821  -0.13957  0.007623  3.708677  0.01  -0.160747  0.001923  3.958165  0.002  -0.165663  0.001424  3.975816  0.002  -0.08464  -0.15791  0.002733  3.947671  0.003
C  C24  1  0.09441930  0.84454764  0.65139270  1  0.098059  -0.013848  -0.139606  -0.007638  3.708596  -0.01  -0.160828  -0.001921  3.958088  -0.002  -0.165746  -0.001424  3.975741  -0.002  -0.084699  -0.158001  -0.002733  3.947596  -0.003
C  C25  1  0.90559195  0.34454538  0.84860550  1  0.098186  0.01381  -0.139571  0.007617  3.708628  0.01  -0.160745  0.001921  3.95813  0.002  -0.165662  0.001423  3.975781  0.002  -0.084626  -0.157905  0.002733  3.947632  0.003
C  C26  1  0.87979210  0.28295938  0.33308760  1  -0.001495  0.015301  0.057233  0.008215  3.74165  0.013  0.06901  -0.000528  3.978636  0.0  0.071574  -1.7e-05  3.992528  0.0  0.014728  0.065942  -0.001522  3.970963  -0.001
C  C27  1  0.12019688  0.78295892  0.16691670  1  -0.001671  -0.01527  0.057173  -0.008197  3.741791  -0.013  0.06896  0.000526  3.978759  0.0  0.071517  1.5e-05  3.992658  0.0  0.014753  0.065898  0.001522  3.971077  0.001
C  C28  1  0.12020400  0.71704144  0.66691306  1  -0.001461  0.015303  0.057212  0.008216  3.74166  0.013  0.068981  -0.000528  3.978642  0.0  0.071542  -1.6e-05  3.992539  0.0  0.014723  0.065915  -0.001522  3.970967  -0.001
C  C29  1  0.87980361  0.21704190  0.83308316  1  -0.001661  -0.01526  0.057246  -0.008192  3.741761  -0.013  0.068994  0.000526  3.97875  0.0  0.071551  1.6e-05  3.992654  0.0  0.014735  0.065933  0.001522  3.971065  0.001
C  C30  1  0.75940519  0.07768375  0.26651087  1  0.568074  0.01036  0.112356  0.005645  3.722851  0.007  0.082414  -0.000937  3.981344  -0.001  0.088975  -0.000384  3.99787  0.0  0.037397  0.077546  -0.001703  3.971022  -0.001
C  C31  1  0.24058985  0.57768268  0.23348549  1  0.567962  -0.010336  0.112353  -0.005631  3.72284  -0.007  0.082348  0.000936  3.981376  0.001  0.088912  0.000385  3.997905  0.0  0.037388  0.077481  0.001704  3.971057  0.001
C  C32  1  0.24059315  0.92231614  0.73348804  1  0.568062  0.01036  0.112323  0.005645  3.722954  0.007  0.082367  -0.000937  3.98145  -0.001  0.08893  -0.000384  3.997975  0.0  0.037377  0.077493  -0.001703  3.971139  -0.001
C  C33  1  0.75941062  0.42231722  0.76651527  1  0.568218  -0.010328  0.112348  -0.005626  3.72287  -0.007  0.082335  0.000937  3.981407  0.001  0.088899  0.000385  3.997935  0.0  0.037388  0.077459  0.001704  3.971102  0.001
C  C34  1  0.58303541  0.24106366  0.15330865  1  0.583518  0.008997  0.119893  0.005256  3.700174  0.007  0.090279  -0.000351  3.958136  0.0  0.096458  0.000185  3.973401  0.001  0.039333  0.085131  -0.00113  3.949735  -0.001
C  C35  1  0.41696494  0.74105911  0.34668925  1  0.583117  -0.008974  0.119739  -0.005243  3.70055  -0.007  0.09015  0.00035  3.95849  0.0  0.096332  -0.000185  3.973762  -0.001  0.039273  0.084993  0.00113  3.950116  0.001
C  C36  1  0.41696072  0.75893716  0.84669111  1  0.583517  0.008999  0.119912  0.005258  3.70023  0.007  0.090288  -0.00035  3.958181  0.0  0.096467  0.000186  3.973446  0.001  0.039339  0.085142  -0.00113  3.949778  -0.001
C  C37  1  0.58303553  0.25894078  0.65331151  1  0.583106  -0.008965  0.119733  -0.005237  3.700569  -0.007  0.090139  0.000351  3.958533  0.0  0.096319  -0.000185  3.973803  -0.001  0.039267  0.084979  0.00113  3.950157  0.001
C  C38  1  0.71627688  0.32537716  0.23201588  1  0.068059  -0.010906  -0.135348  -0.006076  3.721105  -0.008  -0.157442  -0.001623  3.974359  -0.002  -0.161516  -0.001215  3.991474  -0.001  -0.082672  -0.155352  -0.00238  3.964504  -0.003
C  C39  1  0.28371618  0.82537327  0.26799065  1  0.068492  0.010886  -0.13527  0.006064  3.721042  0.008  -0.157362  0.001624  3.974311  0.002  -0.161438  0.001216  3.991428  0.001  -0.082672  -0.155269  0.00238  3.964449  0.003
C  C40  1  0.28372143  0.67462366  0.76798393  1  0.068059  -0.01091  -0.135302  -0.006078  3.721102  -0.008  -0.157395  -0.001623  3.974354  -0.002  -0.161467  -0.001216  3.991469  -0.001  -0.082664  -0.155303  -0.00238  3.964493  -0.003
C  C41  1  0.71628652  0.17462570  0.73200836  1  0.068485  0.010875  -0.135317  0.006059  3.721088  0.008  -0.157383  0.001623  3.974353  0.002  -0.161457  0.001215  3.991467  0.001  -0.082659  -0.155288  0.00238  3.964487  0.003
N  N42  1  0.59921079  0.11830747  0.17003813  1  -1.234075  -0.060731  -0.292232  -0.037041  3.202467  -0.057  -0.228137  -0.029787  3.474764  -0.045  -0.243015  -0.023984  3.48775  -0.036  -0.307322  -0.218276  -0.036617  3.46662  -0.054
N  N43  1  0.40079053  0.61830852  0.32995693  1  -1.233989  0.060705  -0.292207  0.037025  3.202777  0.057  -0.228031  0.02979  3.474987  0.045  -0.242925  0.023985  3.487989  0.036  -0.307264  -0.218176  0.036619  3.466848  0.054
N  N44  1  0.40078755  0.88169243  0.82996078  1  -1.234057  -0.060731  -0.292248  -0.037041  3.202499  -0.057  -0.228123  -0.029787  3.474764  -0.045  -0.243002  -0.023984  3.487752  -0.036  -0.307309  -0.21826  -0.036616  3.466617  -0.054
N  N45  1  0.59920991  0.38169138  0.67004474  1  -1.233942  0.060695  -0.292202  0.037019  3.202776  0.057  -0.228013  0.029788  3.474984  0.045  -0.242906  0.023983  3.487987  0.036  -0.30727  -0.218156  0.036617  3.466843  0.054
N  N46  1  0.89861311  0.46183451  0.46737560  1  -0.822613  0.096614  -0.354337  0.058112  3.301487  0.089  -0.277317  -0.003782  3.588377  -0.005  -0.304305  -0.003361  3.601139  -0.005  -0.289666  -0.260894  -0.003726  3.580507  -0.005
N  N47  1  0.10138645  0.96183485  0.03262384  1  -0.822486  -0.0966  -0.354396  -0.0581  3.301223  -0.089  -0.277367  0.003788  3.588142  0.005  -0.304333  0.003368  3.600872  0.005  -0.289681  -0.260923  0.003727  3.580249  0.005
N  N48  1  0.10138741  0.53816538  0.53262336  1  -0.841346  0.096665  -0.354416  0.058113  3.301507  0.089  -0.277394  -0.003782  3.588384  -0.005  -0.304383  -0.00336  3.601146  -0.005  -0.289703  -0.260971  -0.003726  3.580516  -0.005
N  N49  1  0.89861626  0.03816504  0.96737517  1  -0.841208  -0.096643  -0.354355  -0.058097  3.301264  -0.089  -0.277346  0.003787  3.588154  0.005  -0.304311  0.003364  3.600885  0.005  -0.289654  -0.260902  0.003727  3.58026  0.005
O  O50  1  0.31923361  0.35993907  0.42344322  1  -1.138054  0.109138  -0.577148  0.064156  2.194399  0.104  -0.487264  -0.003088  2.463598  -0.006  -0.527695  -0.003128  2.459362  -0.007  -0.297857  -0.458586  -0.001832  2.463932  -0.004
O  O51  1  0.68075898  0.85993836  0.07655923  1  -1.138185  -0.109131  -0.577135  -0.064151  2.194399  -0.104  -0.487319  0.003087  2.463673  0.006  -0.527732  0.003127  2.459417  0.007  -0.297842  -0.458624  0.001831  2.464001  0.004
O  O52  1  0.68076470  0.64006082  0.57655659  1  -1.138071  0.109139  -0.577207  0.064157  2.194352  0.104  -0.487366  -0.003088  2.463591  -0.006  -0.527801  -0.003128  2.459352  -0.007  -0.297897  -0.458689  -0.001832  2.463927  -0.004
O  O53  1  0.31924372  0.14006062  0.92343978  1  -1.138213  -0.109135  -0.577106  -0.064152  2.194364  -0.104  -0.487294  0.003087  2.46358  0.006  -0.527705  0.003126  2.459324  0.007  -0.297867  -0.4586  0.001831  2.463908  0.004
