# generated using pymatgen
data_CdH10C4O9
_symmetry_space_group_name_H-M   'P 1'
_cell_length_a   5.96185926
_cell_length_b   7.29514946
_cell_length_c   11.06920846
_cell_angle_alpha   89.99908673
_cell_angle_beta   90.00026177
_cell_angle_gamma   119.41314488
_symmetry_Int_Tables_number   1
_chemical_formula_structural   CdH10C4O9
_chemical_formula_sum   'Cd2 H20 C8 O18'
_cell_volume   419.37358679
_cell_formula_units_Z   2
loop_
 _symmetry_equiv_pos_site_id
 _symmetry_equiv_pos_as_xyz
  1  'x, y, z'
loop_
 _atom_site_type_symbol
 _atom_site_label
 _atom_site_symmetry_multiplicity
 _atom_site_fract_x
 _atom_site_fract_y
 _atom_site_fract_z
 _atom_site_occupancy
 _atom_site_hle17_bader_spin_density
 _atom_site_hle17_ddec_charge
 _atom_site_hle17_ddec_spin_density
 _atom_site_hle17_ddec_sum_bond_order
 _atom_site_hle17_magmom
 _atom_site_hse06_10hf_bader_spin_density
 _atom_site_hse06_10hf_ddec_charge
 _atom_site_hse06_10hf_ddec_spin_density
 _atom_site_hse06_10hf_ddec_sum_bond_order
 _atom_site_hse06_10hf_magmom
 _atom_site_hse06_bader_spin_density
 _atom_site_hse06_ddec_charge
 _atom_site_hse06_ddec_spin_density
 _atom_site_hse06_ddec_sum_bond_order
 _atom_site_hse06_magmom
 _atom_site_pbe_bader_spin_density
 _atom_site_pbe_cm5_charge
 _atom_site_pbe_ddec_charge
 _atom_site_pbe_ddec_spin_density
 _atom_site_pbe_ddec_sum_bond_order
 _atom_site_pbe_magmom
Cd  Cd0  1  0.50399608  0.99984024  0.26400263  1  0  1.30279  0  1.500998  0  0  1.129279  0  1.932169  0  0  1.184779  0  1.872859  0  0  0.785897  1.088978  0  1.973458  0
Cd  Cd1  1  0.49599694  0.00014910  0.76401418  1  0  1.302783  0  1.501098  0  0  1.129254  0  1.932278  0  0  1.184728  0  1.873018  0  0  0.785865  1.088949  0  1.973563  0
H  H2  1  0.29985383  0.55055827  0.40121127  1  0  0.39443  0  0.874826  0  0  0.365168  0  0.953124  0  0  0.37709  0  0.939042  0  0  0.300414  0.356692  0  0.963181  0
H  H3  1  0.70014784  0.44945459  0.90120908  1  0  0.39438  0  0.874888  0  0  0.365078  0  0.953257  0  0  0.376999  0  0.939176  0  0  0.30032  0.356601  0  0.963317  0
H  H4  1  0.68300089  0.42552821  0.41421908  1  0  0.388053  0  0.912129  0  0  0.357666  0  0.98951  0  0  0.37051  0  0.975578  0  0  0.291779  0.348615  0  0.999258  0
H  H5  1  0.31702805  0.57445541  0.91421667  1  0  0.388198  0  0.91198  0  0  0.357733  0  0.989491  0  0  0.370576  0  0.975564  0  0  0.291815  0.348689  0  0.999223  0
H  H6  1  0.22601475  0.07371674  0.07002949  1  0  0.438417  0  0.81481  0  0  0.411809  0  0.881348  0  0  0.421047  0  0.870839  0  0  0.318097  0.4052  0  0.888918  0
H  H7  1  0.77391361  0.92634307  0.57003094  1  0  0.438478  0  0.8149  0  0  0.411856  0  0.881447  0  0  0.421092  0  0.870938  0  0  0.318048  0.405244  0  0.889021  0
H  H8  1  0.02473201  0.82443467  0.08717117  1  0  0.436133  0  0.864696  0  0  0.398019  0  0.939073  0  0  0.409569  0  0.92269  0  0  0.292315  0.389884  0  0.950571  0
H  H9  1  0.97527447  0.17559623  0.58716994  1  0  0.436164  0  0.864664  0  0  0.398032  0  0.939084  0  0  0.409587  0  0.92269  0  0  0.292305  0.389897  0  0.950582  0
H  H10  1  0.97873443  0.02563559  0.22939576  1  0  0.424356  0  0.88501  0  0  0.393037  0  0.950117  0  0  0.403937  0  0.934318  0  0  0.287266  0.385321  0  0.961288  0
H  H11  1  0.02125397  0.97435834  0.72938484  1  0  0.424396  0  0.88496  0  0  0.393057  0  0.950074  0  0  0.403957  0  0.934278  0  0  0.287267  0.38534  0  0.961245  0
H  H12  1  0.98099336  0.00940426  0.36906369  1  0  0.430349  0  0.853227  0  0  0.403807  0  0.915355  0  0  0.414457  0  0.899629  0  0  0.296739  0.396112  0  0.926727  0
H  H13  1  0.01898237  0.99056954  0.86905305  1  0  0.430294  0  0.853324  0  0  0.403792  0  0.915365  0  0  0.414438  0  0.899646  0  0  0.296741  0.396097  0  0.926736  0
H  H14  1  0.21899263  0.83659549  0.48026851  1  0  0.438756  0  0.84866  0  0  0.404803  0  0.921845  0  0  0.416826  0  0.904514  0  0  0.296679  0.39625  0  0.934147  0
H  H15  1  0.78101422  0.16340265  0.98027425  1  0  0.438758  0  0.848663  0  0  0.404812  0  0.921837  0  0  0.416833  0  0.904509  0  0  0.296676  0.396261  0  0.934137  0
H  H16  1  0.35359595  0.07812613  0.48201124  1  0  0.4285  0  0.874782  0  0  0.394482  0  0.944237  0  0  0.406241  0  0.927292  0  0  0.293622  0.386114  0  0.956281  0
H  H17  1  0.64639899  0.92186839  0.98202409  1  0  0.42855  0  0.874813  0  0  0.394564  0  0.944132  0  0  0.406323  0  0.927184  0  0  0.293617  0.3862  0  0.956171  0
H  H18  1  0.25209260  0.34884096  0.24948383  1  0  0.081295  0  0.961456  0  0  0.090319  0  1.022269  0  0  0.092637  0  1.02032  0  0  0.114018  0.088569  0  1.023872  0
H  H19  1  0.74790684  0.65114306  0.74946766  1  0  0.081506  0  0.961263  0  0  0.09041  0  1.02221  0  0  0.092738  0  1.020244  0  0  0.114034  0.088656  0  1.023822  0
H  H20  1  0.82334197  0.66026627  0.26632234  1  0  0.072675  0  0.923656  0  0  0.085416  0  0.98155  0  0  0.086431  0  0.980779  0  0  0.115941  0.084641  0  0.982306  0
H  H21  1  0.17667184  0.33973666  0.76631539  1  0  0.07264  0  0.923641  0  0  0.085383  0  0.981575  0  0  0.086399  0  0.980803  0  0  0.115981  0.084607  0  0.98233  0
C  C22  1  0.38433610  0.58905568  0.11494660  1  0  0.647347  0  3.86332  0  0  0.589219  0  4.172592  0  0  0.622194  0  4.166327  0  0  0.206457  0.566616  0  4.176487  0
C  C23  1  0.61565198  0.41092159  0.61494771  1  0  0.647609  0  3.86331  0  0  0.589421  0  4.172582  0  0  0.622395  0  4.166317  0  0  0.206456  0.566816  0  4.176479  0
C  C24  1  0.41158887  0.50953856  0.23763885  1  0  0.0514  0  3.616155  0  0  0.027461  0  3.863369  0  0  0.028907  0  3.869497  0  0  -0.013794  0.026364  0  3.859261  0
C  C25  1  0.58840838  0.49044896  0.73763434  1  0  0.050984  0  3.616275  0  0  0.027234  0  3.863403  0  0  0.028686  0  3.86951  0  0  -0.013847  0.026138  0  3.859294  0
C  C26  1  0.66971120  0.50112858  0.24251882  1  0  0.064187  0  3.623183  0  0  0.038522  0  3.871648  0  0  0.041119  0  3.878145  0  0  -0.010127  0.03663  0  3.867134  0
C  C27  1  0.33030287  0.49886793  0.74251026  1  0  0.064561  0  3.623036  0  0  0.0388  0  3.871617  0  0  0.041396  0  3.878108  0  0  -0.010049  0.036904  0  3.867106  0
C  C28  1  0.73592584  0.44267599  0.11980718  1  0  0.64855  0  3.84083  0  0  0.589332  0  4.14966  0  0  0.622019  0  4.143989  0  0  0.212287  0.567024  0  4.153035  0
C  C29  1  0.26410717  0.55733477  0.61980598  1  0  0.648198  0  3.841159  0  0  0.589006  0  4.14996  0  0  0.6217  0  4.144289  0  0  0.212179  0.566698  0  4.153335  0
O  O30  1  0.47251693  0.78731684  0.10152117  1  0  -0.674377  0  2.088003  0  0  -0.595878  0  2.334563  0  0  -0.62586  0  2.323257  0  0  -0.327296  -0.574716  0  2.341845  0
O  O31  1  0.52744010  0.21266358  0.60153744  1  0  -0.674575  0  2.088262  0  0  -0.595952  0  2.334791  0  0  -0.625936  0  2.323481  0  0  -0.32731  -0.574791  0  2.342076  0
O  O32  1  0.28609203  0.45479312  0.03167193  1  0  -0.581089  0  1.981929  0  0  -0.533607  0  2.213758  0  0  -0.557976  0  2.205234  0  0  -0.307389  -0.516747  0  2.219508  0
O  O33  1  0.71391955  0.54518050  0.53166124  1  0  -0.581065  0  1.981599  0  0  -0.533706  0  2.213568  0  0  -0.558084  0  2.205048  0  0  -0.307394  -0.516843  0  2.219319  0
O  O34  1  0.40153212  0.63960759  0.33152919  1  0  -0.591871  0  2.140768  0  0  -0.537638  0  2.385214  0  0  -0.555823  0  2.36975  0  0  -0.403076  -0.524453  0  2.395616  0
O  O35  1  0.59849383  0.36039211  0.83152888  1  0  -0.591737  0  2.140715  0  0  -0.537495  0  2.38511  0  0  -0.555679  0  2.369645  0  0  -0.402969  -0.524311  0  2.395514  0
O  O36  1  0.65494288  0.35518276  0.33056425  1  0  -0.596506  0  2.165573  0  0  -0.535572  0  2.411541  0  0  -0.555776  0  2.396964  0  0  -0.405404  -0.520915  0  2.421133  0
O  O37  1  0.34506334  0.64480199  0.83056144  1  0  -0.596667  0  2.165318  0  0  -0.535707  0  2.411419  0  0  -0.555908  0  2.396839  0  0  -0.405468  -0.521056  0  2.421003  0
O  O38  1  0.67767763  0.25177170  0.10288055  1  0  -0.649857  0  2.057556  0  0  -0.57433  0  2.29936  0  0  -0.604364  0  2.289904  0  0  -0.311638  -0.553214  0  2.305399  0
O  O39  1  0.32235174  0.74824358  0.60287925  1  0  -0.649832  0  2.057777  0  0  -0.574287  0  2.299562  0  0  -0.604327  0  2.290106  0  0  -0.311605  -0.553152  0  2.305568  0
O  O40  1  0.83874474  0.58479552  0.03963277  1  0  -0.611572  0  1.992332  0  0  -0.55005  0  2.211554  0  0  -0.575825  0  2.20251  0  0  -0.305385  -0.532192  0  2.217671  0
O  O41  1  0.16127950  0.41522965  0.53962927  1  0  -0.61137  0  1.992331  0  0  -0.54987  0  2.211587  0  0  -0.575644  0  2.202517  0  0  -0.305313  -0.532017  0  2.217706  0
O  O42  1  0.13178500  0.96419012  0.12990079  1  0  -0.848296  0  1.912459  0  0  -0.786906  0  2.119988  0  0  -0.809781  0  2.089986  0  0  -0.563959  -0.770597  0  2.140912  0
O  O43  1  0.86821019  0.03584652  0.62990533  1  0  -0.848391  0  1.912547  0  0  -0.786951  0  2.120064  0  0  -0.80982  0  2.090046  0  0  -0.563864  -0.770641  0  2.140991  0
O  O44  1  0.91399784  0.06227699  0.30427966  1  0  -0.842521  0  1.881095  0  0  -0.782546  0  2.083106  0  0  -0.804932  0  2.048004  0  0  -0.593089  -0.766571  0  2.107728  0
O  O45  1  0.08599162  0.93771076  0.80426594  1  0  -0.842486  0  1.88116  0  0  -0.782504  0  2.083242  0  0  -0.804882  0  2.048142  0  0  -0.593099  -0.766529  0  2.107868  0
O  O46  1  0.24048755  0.95627004  0.42799307  1  0  -0.851219  0  1.901593  0  0  -0.781835  0  2.11021  0  0  -0.807439  0  2.073154  0  0  -0.57038  -0.763628  0  2.136084  0
O  O47  1  0.75950870  0.04372333  0.92800201  1  0  -0.851306  0  1.901668  0  0  -0.781941  0  2.110178  0  0  -0.807555  0  2.073161  0  0  -0.57036  -0.763734  0  2.136048  0
