# generated using pymatgen
data_CuH6C12SN3O
_symmetry_space_group_name_H-M   'P 1'
_cell_length_a   5.66966583
_cell_length_b   7.67468079
_cell_length_c   12.58203491
_cell_angle_alpha   88.62891394
_cell_angle_beta   90.01364273
_cell_angle_gamma   90.03729281
_symmetry_Int_Tables_number   1
_chemical_formula_structural   CuH6C12SN3O
_chemical_formula_sum   'Cu2 H12 C24 S2 N6 O2'
_cell_volume   547.32363993
_cell_formula_units_Z   2
loop_
 _symmetry_equiv_pos_site_id
 _symmetry_equiv_pos_as_xyz
  1  'x, y, z'
loop_
 _atom_site_type_symbol
 _atom_site_label
 _atom_site_symmetry_multiplicity
 _atom_site_fract_x
 _atom_site_fract_y
 _atom_site_fract_z
 _atom_site_occupancy
 _atom_site_hle17_bader_spin_density
 _atom_site_hle17_ddec_charge
 _atom_site_hle17_ddec_spin_density
 _atom_site_hle17_ddec_sum_bond_order
 _atom_site_hle17_magmom
 _atom_site_hse06_10hf_bader_spin_density
 _atom_site_hse06_10hf_ddec_charge
 _atom_site_hse06_10hf_ddec_spin_density
 _atom_site_hse06_10hf_ddec_sum_bond_order
 _atom_site_hse06_10hf_magmom
 _atom_site_hse06_bader_spin_density
 _atom_site_hse06_ddec_charge
 _atom_site_hse06_ddec_spin_density
 _atom_site_hse06_ddec_sum_bond_order
 _atom_site_hse06_magmom
 _atom_site_pbe_bader_spin_density
 _atom_site_pbe_cm5_charge
 _atom_site_pbe_ddec_charge
 _atom_site_pbe_ddec_spin_density
 _atom_site_pbe_ddec_sum_bond_order
 _atom_site_pbe_magmom
Cu  Cu0  1  0.13307414  0.47014972  0.02176612  1  0  0.480033  0  2.030079  0  0  0.369812  0  2.530836  0  0  0.362033  0  2.494406  0  0  0.534314  0.380374  0  2.550649  0
Cu  Cu1  1  0.86435689  0.97253121  0.52554070  1  0  0.483498  0  2.017993  0  0  0.37276  0  2.517584  0  0  0.365698  0  2.480921  0  0  0.534275  0.382678  0  2.537852  0
H  H2  1  0.03630171  0.37081478  0.26936042  1  0  0.079505  0  0.947886  0  0  0.084465  0  1.018236  0  0  0.087167  0  1.016611  0  0  0.110837  0.082512  0  1.019441  0
H  H3  1  0.96282191  0.86460266  0.22227205  1  0  0.075547  0  0.945478  0  0  0.080437  0  1.014357  0  0  0.082701  0  1.014059  0  0  0.107608  0.078741  0  1.014653  0
H  H4  1  0.96488726  0.87156283  0.76943288  1  0  0.079886  0  0.947778  0  0  0.084663  0  1.018283  0  0  0.087372  0  1.016666  0  0  0.110813  0.08269  0  1.019493  0
H  H5  1  0.03717119  0.36882300  0.72462007  1  0  0.076143  0  0.945943  0  0  0.081465  0  1.014068  0  0  0.083804  0  1.013659  0  0  0.108422  0.079714  0  1.014483  0
H  H6  1  0.69577989  0.22178600  0.35291187  1  0  0.113386  0  0.984346  0  0  0.117811  0  1.051938  0  0  0.121957  0  1.049821  0  0  0.102556  0.114722  0  1.053807  0
H  H7  1  0.31364987  0.72744800  0.14445916  1  0  0.106857  0  0.998615  0  0  0.110615  0  1.069188  0  0  0.115608  0  1.065103  0  0  0.098598  0.106786  0  1.072638  0
H  H8  1  0.30549537  0.72239699  0.85258145  1  0  0.113888  0  0.984584  0  0  0.118332  0  1.052102  0  0  0.122558  0  1.049825  0  0  0.102903  0.115166  0  1.054097  0
H  H9  1  0.68665500  0.23249708  0.64550286  1  0  0.107179  0  0.998382  0  0  0.110702  0  1.0688  0  0  0.115605  0  1.064913  0  0  0.098838  0.106961  0  1.072122  0
H  H10  1  0.39436624  0.07012030  0.24071491  1  0  0.105769  0  0.944959  0  0  0.116596  0  1.002974  0  0  0.118996  0  1.001977  0  0  0.109008  0.114792  0  1.003762  0
H  H11  1  0.61143765  0.57363360  0.26232451  1  0  0.10268  0  0.945068  0  0  0.113338  0  1.003924  0  0  0.11567  0  1.003274  0  0  0.108295  0.111505  0  1.004625  0
H  H12  1  0.60594816  0.57114154  0.73976740  1  0  0.104582  0  0.946613  0  0  0.115762  0  1.004404  0  0  0.11815  0  1.003394  0  0  0.10861  0.113958  0  1.005189  0
H  H13  1  0.38935841  0.07514123  0.76167246  1  0  0.103305  0  0.94462  0  0  0.11365  0  1.00393  0  0  0.115992  0  1.003232  0  0  0.108302  0.111817  0  1.004635  0
C  C14  1  0.62931394  0.60681873  0.99810207  1  0  0.282086  0  3.991241  0  0  0.271951  0  4.272597  0  0  0.288397  0  4.293471  0  0  0.139643  0.261574  0  4.256669  0
C  C15  1  0.36927320  0.10952443  0.50004947  1  0  0.281632  0  3.99291  0  0  0.271207  0  4.274138  0  0  0.287736  0  4.295108  0  0  0.13977  0.26076  0  4.258172  0
C  C16  1  0.90915627  0.30213568  0.22057371  1  0  0.127299  0  3.658395  0  0  0.096338  0  3.915182  0  0  0.103661  0  3.928994  0  0  0.045879  0.091656  0  3.90627  0
C  C17  1  0.09108283  0.79912766  0.27411195  1  0  0.13361  0  3.681456  0  0  0.107711  0  3.942191  0  0  0.113141  0  3.957418  0  0  0.049128  0.104145  0  3.932433  0
C  C18  1  0.09182092  0.80330492  0.72044460  1  0  0.12541  0  3.657729  0  0  0.095026  0  3.914273  0  0  0.102391  0  3.928098  0  0  0.044638  0.090339  0  3.905344  0
C  C19  1  0.90923528  0.30146677  0.77571488  1  0  0.133107  0  3.677897  0  0  0.106495  0  3.938696  0  0  0.111988  0  3.953754  0  0  0.048385  0.102873  0  3.929056  0
C  C20  1  0.71605932  0.21754827  0.26706119  1  0  -0.118379  0  3.699281  0  0  -0.131594  0  3.954215  0  0  -0.138357  0  3.972618  0  0  -0.08152  -0.127835  0  3.942526  0
C  C21  1  0.28904714  0.71933173  0.23012839  1  0  -0.138792  0  3.721246  0  0  -0.153725  0  3.980385  0  0  -0.158944  0  3.996879  0  0  -0.088434  -0.150964  0  3.970348  0
C  C22  1  0.28482519  0.71862235  0.76674316  1  0  -0.118495  0  3.702102  0  0  -0.131857  0  3.95683  0  0  -0.138566  0  3.97504  0  0  -0.081886  -0.128116  0  3.945253  0
C  C23  1  0.71147003  0.22212409  0.73110541  1  0  -0.139156  0  3.721193  0  0  -0.153466  0  3.980579  0  0  -0.158739  0  3.997061  0  0  -0.088392  -0.150719  0  3.970589  0
C  C24  1  0.54911437  0.13108811  0.20452404  1  0  0.005893  0  3.644159  0  0  -0.020736  0  3.891114  0  0  -0.013495  0  3.905399  0  0  -0.055975  -0.025036  0  3.881286  0
C  C25  1  0.45493955  0.63370633  0.29574110  1  0  0.010662  0  3.654622  0  0  -0.013896  0  3.898221  0  0  -0.008897  0  3.914892  0  0  -0.054783  -0.017139  0  3.887296  0
C  C26  1  0.45120598  0.63256082  0.70391840  1  0  0.005928  0  3.646637  0  0  -0.020637  0  3.893644  0  0  -0.013317  0  3.907775  0  0  -0.056051  -0.024985  0  3.883965  0
C  C27  1  0.54557565  0.13459270  0.79590163  1  0  0.008831  0  3.652499  0  0  -0.015708  0  3.896747  0  0  -0.010493  0  3.913081  0  0  -0.055521  -0.0191  0  3.886115  0
C  C28  1  0.59015211  0.13086212  0.09565287  1  0  -0.112395  0  3.724473  0  0  -0.101881  0  3.971832  0  0  -0.111243  0  3.991003  0  0  -0.012374  -0.09596  0  3.959446  0
C  C29  1  0.41129209  0.63321730  0.40435260  1  0  -0.112672  0  3.728039  0  0  -0.100383  0  3.968985  0  0  -0.110101  0  3.990726  0  0  -0.013713  -0.094113  0  3.954968  0
C  C30  1  0.40960714  0.63306775  0.59512259  1  0  -0.112909  0  3.728154  0  0  -0.103206  0  3.976977  0  0  -0.112533  0  3.996131  0  0  -0.013198  -0.097374  0  3.964525  0
C  C31  1  0.58882931  0.13192736  0.90460518  1  0  -0.109884  0  3.72169  0  0  -0.098103  0  3.963222  0  0  -0.107803  0  3.984772  0  0  -0.013037  -0.091874  0  3.949438  0
C  C32  1  0.78984232  0.21901350  0.05647897  1  0  0.168193  0  3.790255  0  0  0.156464  0  4.025833  0  0  0.16472  0  4.04274  0  0  0.119551  0.15074  0  4.015036  0
C  C33  1  0.20928650  0.72071933  0.43993865  1  0  0.161369  0  3.817697  0  0  0.153334  0  4.058059  0  0  0.159802  0  4.075477  0  0  0.120605  0.148574  0  4.047086  0
C  C34  1  0.21009382  0.72136053  0.55580871  1  0  0.168851  0  3.783185  0  0  0.15704  0  4.019662  0  0  0.165489  0  4.036534  0  0  0.120113  0.151258  0  4.008786  0
C  C35  1  0.79071260  0.21891758  0.94077840  1  0  0.161425  0  3.819297  0  0  0.153001  0  4.059066  0  0  0.159475  0  4.076534  0  0  0.120333  0.148289  0  4.048067  0
C  C36  1  0.45513269  0.06504765  0.00083873  1  0  0.411052  0  3.711931  0  0  0.378835  0  3.998189  0  0  0.404276  0  3.994984  0  0  0.170221  0.360281  0  4.002237  0
C  C37  1  0.54456262  0.56694597  0.50063152  1  0  0.412488  0  3.716591  0  0  0.380175  0  4.003083  0  0  0.405404  0  4.000232  0  0  0.169994  0.361896  0  4.006682  0
S  S38  1  0.88072153  0.70947763  0.99620603  1  0  -0.316331  0  2.381427  0  0  -0.28667  0  2.757566  0  0  -0.304502  0  2.751812  0  0  -0.148164  -0.273051  0  2.759263  0
S  S39  1  0.11776625  0.21170080  0.49774122  1  0  -0.315339  0  2.378889  0  0  -0.284732  0  2.753783  0  0  -0.302676  0  2.747957  0  0  -0.146767  -0.271034  0  2.755542  0
N  N40  1  0.44557900  0.53287509  0.99963698  1  0  -0.527312  0  3.198599  0  0  -0.470949  0  3.538128  0  0  -0.483836  0  3.537498  0  0  -0.452688  -0.46237  0  3.536318  0
N  N41  1  0.55306061  0.03585806  0.50182417  1  0  -0.527318  0  3.199241  0  0  -0.470097  0  3.538399  0  0  -0.483224  0  3.537798  0  0  -0.452696  -0.461358  0  3.536649  0
N  N42  1  0.94718861  0.30662728  0.11377244  1  0  -0.313774  0  3.33719  0  0  -0.247865  0  3.633756  0  0  -0.256067  0  3.638229  0  0  -0.355063  -0.243216  0  3.630501  0
N  N43  1  0.04887388  0.80266757  0.37986524  1  0  -0.319153  0  3.117523  0  0  -0.276907  0  3.395697  0  0  -0.284214  0  3.403367  0  0  -0.312862  -0.272751  0  3.391277  0
N  N44  1  0.05322963  0.80841164  0.61361141  1  0  -0.314036  0  3.347585  0  0  -0.248091  0  3.646025  0  0  -0.256613  0  3.650575  0  0  -0.357733  -0.243255  0  3.642692  0
N  N45  1  0.95116723  0.30253243  0.88153857  1  0  -0.316766  0  3.132679  0  0  -0.272002  0  3.411423  0  0  -0.279281  0  3.41878  0  0  -0.314736  -0.267921  0  3.40718  0
O  O46  1  0.27590893  0.97552493  0.00220143  1  0  -0.408144  0  1.950035  0  0  -0.357026  0  2.159763  0  0  -0.372769  0  2.155335  0  0  -0.237681  -0.347568  0  2.163885  0
O  O47  1  0.72356996  0.47731039  0.50233764  1  0  -0.409239  0  1.948077  0  0  -0.358453  0  2.158678  0  0  -0.374121  0  2.154313  0  0  -0.238366  -0.34906  0  2.162647  0
