# generated using pymatgen
data_CoCuH20C27(N2O3)2
_symmetry_space_group_name_H-M   'P 1'
_cell_length_a   9.89555593
_cell_length_b   11.86864368
_cell_length_c   12.22791247
_cell_angle_alpha   67.82876386
_cell_angle_beta   85.56577689
_cell_angle_gamma   68.09834847
_symmetry_Int_Tables_number   1
_chemical_formula_structural   CoCuH20C27(N2O3)2
_chemical_formula_sum   'Co2 Cu2 H40 C54 N8 O12'
_cell_volume   1230.58507445
_cell_formula_units_Z   2
loop_
 _symmetry_equiv_pos_site_id
 _symmetry_equiv_pos_as_xyz
  1  'x, y, z'
loop_
 _atom_site_type_symbol
 _atom_site_label
 _atom_site_symmetry_multiplicity
 _atom_site_fract_x
 _atom_site_fract_y
 _atom_site_fract_z
 _atom_site_occupancy
 _atom_site_pbe_bader_charge
 _atom_site_pbe_bader_spin_density
 _atom_site_pbe_cm5_charge
 _atom_site_pbe_ddec_charge
 _atom_site_pbe_ddec_spin_density
 _atom_site_pbe_ddec_sum_bond_order
 _atom_site_pbe_magmom
Co  Co0  1  0.08263428  0.32618620  0.66350778  1  1.342239  2.57726  0.670233  1.009701  2.983191  2.408322  2.559
Co  Co1  1  0.91737389  0.67381533  0.33649183  1  1.34216  -2.577282  0.670205  1.009667  -2.983206  2.408278  -2.559
Cu  Cu2  1  0.29412634  0.23690587  0.09219563  1  0.929553  -0.478077  0.780842  0.560057  -0.523322  2.511528  -0.473
Cu  Cu3  1  0.70586827  0.76309656  0.90780775  1  0.929462  0.478082  0.780842  0.560004  0.523327  2.511629  0.473
H  H4  1  0.81227798  0.45003122  0.27337065  1  0.12724  -0.000152  0.103837  0.111555  0.000127  1.052406  0.0
H  H5  1  0.18772167  0.54997121  0.72663897  1  0.127285  0.000152  0.103885  0.111574  -0.000127  1.052414  0.0
H  H6  1  0.58884015  0.45523871  0.18761989  1  0.055326  -5.4e-05  0.096664  0.095926  -2.9e-05  1.027661  0.0
H  H7  1  0.41115643  0.54476861  0.81238978  1  0.055503  5.4e-05  0.096679  0.095908  2.9e-05  1.027753  0.0
H  H8  1  0.61138955  0.37399472  0.02193502  1  0.053836  -0.000516  0.09845  0.093013  -0.000201  1.010123  0.0
H  H9  1  0.38860261  0.62600864  0.97807717  1  0.053862  0.000516  0.098482  0.093062  0.000201  1.010098  0.0
H  H10  1  0.84838329  0.30224047  0.93924130  1  0.126516  0.000219  0.109206  0.131697  6.7e-05  1.009608  0.0
H  H11  1  0.15160625  0.69776191  0.06076814  1  0.126481  -0.000219  0.109202  0.131647  -6.7e-05  1.009631  0.0
H  H12  1  0.04500242  0.41978711  0.28290589  1  0.167755  -0.008165  0.12951  0.107733  -0.003381  0.99961  -0.006
H  H13  1  0.95499828  0.58021042  0.71710299  1  0.167883  0.008165  0.129528  0.107768  0.003382  0.999478  0.006
H  H14  1  0.26206450  0.41782940  0.30362859  1  0.092275  -0.00535  0.113228  0.104014  -0.00219  0.985024  -0.003
H  H15  1  0.73792509  0.58216807  0.69638180  1  0.092414  0.005349  0.113235  0.103944  0.00219  0.985074  0.003
H  H16  1  0.38431396  0.39103378  0.19367255  1  0.042445  -0.001179  0.100953  0.070432  -0.000465  1.000343  -0.001
H  H17  1  0.61567431  0.60897645  0.80633330  1  0.042344  0.00118  0.100951  0.070434  0.000466  1.000338  0.001
H  H18  1  0.36825328  0.19904196  0.43800509  1  0.077923  0.000347  0.096656  0.106665  0.000171  1.003022  0.0
H  H19  1  0.63174803  0.80095657  0.56199930  1  0.077974  -0.000346  0.096671  0.106676  -0.000171  1.00305  0.0
H  H20  1  0.52131335  0.23121117  0.36799392  1  0.034435  -5e-06  0.096027  0.0976  3e-06  0.974459  0.0
H  H21  1  0.47868568  0.76879521  0.63200858  1  0.034488  5e-06  0.096031  0.097638  -2e-06  0.974491  0.0
H  H22  1  0.55882658  0.01908732  0.37146699  1  0.047269  -0.006048  0.107854  0.086188  -0.002547  0.972496  -0.003
H  H23  1  0.44118439  0.98091717  0.62853383  1  0.04707  0.006047  0.10788  0.086248  0.002547  0.972541  0.003
H  H24  1  0.36949888  0.05994573  0.34386329  1  0.045229  -0.000669  0.106731  0.083011  -0.000222  0.975502  -0.001
H  H25  1  0.63051052  0.94005286  0.65613895  1  0.045111  0.000669  0.106775  0.083055  0.000222  0.975587  0.001
H  H26  1  0.69281906  0.01416737  0.22224272  1  0.104051  -0.008283  0.120584  0.091603  -0.003462  1.011667  -0.005
H  H27  1  0.30717955  0.98584002  0.77775126  1  0.103947  0.008283  0.120581  0.091708  0.003461  1.011588  0.005
H  H28  1  0.50433491  0.18478160  0.75107795  1  0.110251  0.000422  0.107306  0.128525  0.000186  1.038696  0.0
H  H29  1  0.49564715  0.81522177  0.24892013  1  0.110275  -0.000422  0.107324  0.128588  -0.000186  1.038683  0.0
H  H30  1  0.76765416  0.09715192  0.72712155  1  0.076178  -0.000526  0.102653  0.098971  -0.000245  1.008019  0.0
H  H31  1  0.23232877  0.90284461  0.27287242  1  0.07578  0.000526  0.102673  0.099032  0.000245  1.008061  0.0
H  H32  1  0.94765742  0.99282093  0.90180188  1  0.050869  0.000131  0.100184  0.102864  6.8e-05  1.029588  0.0
H  H33  1  0.05233563  0.00717567  0.09818653  1  0.050885  -0.000131  0.100207  0.102899  -6.8e-05  1.029551  0.0
H  H34  1  0.85617688  0.98569100  0.10015185  1  0.09072  -0.000275  0.104963  0.110609  -4.9e-05  1.043676  0.0
H  H35  1  0.14382564  0.01430955  0.89984028  1  0.090519  0.000275  0.104949  0.110539  4.9e-05  1.043712  0.0
H  H36  1  0.02022881  0.94300428  0.71772307  1  0.082614  0.000525  0.103472  0.107386  0.000316  1.014313  0.0
H  H37  1  0.97978671  0.05698947  0.28226992  1  0.082714  -0.000525  0.103445  0.107382  -0.000316  1.014184  0.0
H  H38  1  0.06496109  0.18529157  0.36454769  1  0.105954  0.000237  0.097328  0.094722  0.000162  1.070686  0.0
H  H39  1  0.93505065  0.81469428  0.63545412  1  0.105888  -0.000237  0.097291  0.094672  -0.000162  1.070646  0.0
H  H40  1  0.60835062  0.59086331  0.31314575  1  0.103023  6e-06  0.103254  0.10618  8.3e-05  1.037408  0.0
H  H41  1  0.39166243  0.40913636  0.68683625  1  0.1033  -6e-06  0.103254  0.106218  -8.3e-05  1.037429  0.0
H  H42  1  0.65372691  0.38784463  0.69013788  1  0.084761  0.000154  0.103563  0.109639  5.2e-05  1.011333  0.0
H  H43  1  0.34629417  0.61213839  0.30984967  1  0.085214  -0.000154  0.103531  0.109568  -5.2e-05  1.011553  0.0
C  C44  1  0.11791703  0.29593050  0.90170781  1  1.37507  -0.016965  0.219997  0.364835  -0.009861  4.156843  -0.011
C  C45  1  0.88206750  0.70406696  0.09829798  1  1.375057  0.01697  0.220007  0.364942  0.009863  4.156729  0.011
C  C46  1  0.96799329  0.33513497  0.05728971  1  0.412913  -0.003516  0.105996  0.233697  -0.002889  3.972035  -0.002
C  C47  1  0.03200172  0.66486645  0.94271974  1  0.412841  0.003517  0.105983  0.233712  0.002889  3.971799  0.002
C  C48  1  0.95603244  0.37529169  0.15509539  1  -0.009666  -0.006766  -0.019316  -0.039739  -0.003726  3.971211  -0.005
C  C49  1  0.04396239  0.62470778  0.84491232  1  -0.009423  0.00677  -0.019293  -0.039724  0.003728  3.971146  0.005
C  C50  1  0.81816258  0.41849000  0.19943658  1  -0.074797  0.002288  -0.084583  -0.103209  0.001231  3.966897  0.002
C  C51  1  0.18183404  0.58151241  0.80057323  1  -0.074583  -0.002288  -0.084611  -0.103185  -0.001231  3.966991  -0.002
C  C52  1  0.69395318  0.42062437  0.15190930  1  -0.075032  -0.004232  -0.107579  -0.121365  -0.002277  4.062453  -0.003
C  C53  1  0.30603797  0.57937899  0.84810049  1  -0.075549  0.004233  -0.107615  -0.121431  0.002278  4.062676  0.003
C  C54  1  0.70679731  0.37633294  0.05901499  1  0.027549  0.001499  -0.090006  -0.063849  0.000807  4.041559  0.001
C  C55  1  0.29319972  0.62366848  0.94099760  1  0.027537  -0.0015  -0.090117  -0.064009  -0.000807  4.041421  -0.001
C  C56  1  0.84067776  0.33477446  0.01225752  1  -0.083217  -0.009215  -0.095267  -0.170185  -0.005139  3.923679  -0.007
C  C57  1  0.15931706  0.66522500  0.98775265  1  -0.082858  0.009214  -0.095166  -0.169965  0.005139  3.923422  0.007
C  C58  1  0.07574722  0.37707072  0.21488073  1  0.588833  -0.003524  0.084247  0.109081  -0.002312  3.902851  -0.001
C  C59  1  0.92424760  0.62292876  0.78512535  1  0.588752  0.003526  0.084258  0.109069  0.002311  3.902885  0.001
C  C60  1  0.31890310  0.34764383  0.26124478  1  0.286009  -0.004353  -0.06495  -0.030075  -0.00301  3.899077  -0.003
C  C61  1  0.68109173  0.65235564  0.73876211  1  0.286352  0.004352  -0.064944  -0.029942  0.003009  3.89895  0.003
C  C62  1  0.42058075  0.21809543  0.35377496  1  -0.036832  -0.00037  -0.158739  -0.185453  -0.000127  3.885414  0.0
C  C63  1  0.57942277  0.78190507  0.64623021  1  -0.037019  0.00037  -0.158771  -0.185567  0.000127  3.885387  0.0
C  C64  1  0.45825364  0.09784365  0.32040306  1  0.312182  -0.003663  -0.062145  -0.025423  -0.002593  3.919948  -0.002
C  C65  1  0.54175306  0.90216377  0.67959615  1  0.312425  0.003662  -0.062184  -0.025534  0.002593  3.919995  0.002
C  C66  1  0.59857830  0.07612144  0.15685726  1  0.626973  0.000403  0.084555  0.113265  -9.8e-05  3.911275  0.001
C  C67  1  0.40141852  0.92388299  0.84314035  1  0.626834  -0.000402  0.084624  0.113161  9.9e-05  3.911254  -0.001
C  C68  1  0.63097194  0.08912816  0.03629040  1  0.030086  -0.005428  -0.021298  -0.038707  -0.003008  3.977934  -0.004
C  C69  1  0.36902207  0.91087332  0.96370354  1  0.030307  0.005429  -0.021333  -0.038857  0.003008  3.978008  0.004
C  C70  1  0.52679340  0.14578501  0.93709309  1  0.428275  -0.001977  0.103161  0.230855  -0.001961  3.96865  -0.001
C  C71  1  0.47320001  0.85421547  0.06290698  1  0.428922  0.001977  0.1032  0.23098  0.00196  3.968417  0.001
C  C72  1  0.58140185  0.14423608  0.82704214  1  -0.043232  -0.006881  -0.097957  -0.183411  -0.003858  3.937145  -0.006
C  C73  1  0.41858628  0.85576733  0.17295474  1  -0.042981  0.00688  -0.097987  -0.183524  0.003857  3.937108  0.006
C  C74  1  0.73028911  0.09254822  0.81449099  1  -0.034148  0.000945  -0.080418  -0.049416  0.000479  4.011519  0.001
C  C75  1  0.26969438  0.90745418  0.18550653  1  -0.033989  -0.000945  -0.080437  -0.04948  -0.000479  4.011216  -0.001
C  C76  1  0.83160798  0.03537957  0.91187186  1  0.022377  -0.002418  -0.097316  -0.094495  -0.001289  4.017707  -0.002
C  C77  1  0.16838222  0.96461897  0.08811848  1  0.02184  0.002418  -0.097356  -0.094554  0.001289  4.017484  0.002
C  C78  1  0.78097133  0.03314088  0.02127157  1  -0.127095  0.001465  -0.084024  -0.110515  0.000798  3.971121  0.001
C  C79  1  0.21902392  0.96685766  0.97872501  1  -0.126691  -0.001464  -0.083996  -0.110359  -0.000797  3.971169  -0.001
C  C80  1  0.27177567  0.23699201  0.86944359  1  1.335064  -0.009748  0.220526  0.368543  -0.005589  4.149741  -0.006
C  C81  1  0.72821406  0.76301234  0.13056184  1  1.334919  0.009749  0.220502  0.368452  0.005589  4.149596  0.006
C  C82  1  0.08660426  0.15627662  0.59134129  1  1.534371  -0.006546  0.187828  0.530069  -0.003292  4.239051  -0.007
C  C83  1  0.91340757  0.84372098  0.40866525  1  1.534498  0.006542  0.187906  0.530308  0.003292  4.239001  0.007
C  C84  1  0.04752295  0.07219749  0.54517559  1  -0.08236  0.005472  -0.017251  -0.021393  0.003044  3.982846  0.004
C  C85  1  0.95249321  0.92779232  0.45482288  1  -0.082628  -0.00547  -0.017311  -0.02159  -0.003043  3.98326  -0.004
C  C86  1  0.01076780  0.96754465  0.62258482  1  0.018957  -0.002095  -0.086521  -0.100604  -0.000985  3.979664  -0.001
C  C87  1  0.98924670  0.03244907  0.37741315  1  0.01894  0.002094  -0.086391  -0.100503  0.000985  3.979537  0.001
C  C88  1  0.03691659  0.10336739  0.42281891  1  -0.082873  -0.002157  -0.089725  -0.100111  -0.001058  3.983477  -0.001
C  C89  1  0.96309630  0.89662534  0.57718115  1  -0.082705  0.002158  -0.089649  -0.100014  0.001059  3.983366  0.001
C  C90  1  0.80291665  0.47418591  0.50326914  1  1.558801  -0.009519  0.224997  0.598361  -0.006313  4.154986  -0.008
C  C91  1  0.19708726  0.52581859  0.49672148  1  1.558536  0.009519  0.224908  0.598354  0.006314  4.155275  0.008
C  C92  1  0.64649258  0.48762460  0.50161187  1  -0.036876  0.004649  -0.017619  -0.036552  0.002646  3.964008  0.003
C  C93  1  0.35352763  0.51236529  0.49837079  1  -0.036632  -0.004653  -0.017603  -0.036528  -0.002649  3.964247  -0.003
C  C94  1  0.56009365  0.55034620  0.39429574  1  -0.09988  -0.002176  -0.087085  -0.097387  -0.001033  3.975036  -0.001
C  C95  1  0.43992803  0.44963783  0.60568405  1  -0.100181  0.002174  -0.086977  -0.097382  0.001033  3.975121  0.001
C  C96  1  0.58514902  0.43718260  0.60751507  1  0.010225  -0.003464  -0.087012  -0.099331  -0.00185  3.97747  -0.002
C  C97  1  0.41487105  0.56280043  0.39246681  1  0.009624  0.003463  -0.086986  -0.09946  0.001849  3.978045  0.002
N  N98  1  0.10272003  0.29419733  0.01172774  1  -1.257682  -0.088083  -0.395104  -0.428433  -0.048425  3.647099  -0.072
N  N99  1  0.89727420  0.70580116  0.98827873  1  -1.258016  0.088089  -0.395161  -0.42855  0.04843  3.647172  0.072
N  N100  1  0.21281161  0.33162669  0.19712364  1  -1.188124  -0.095148  -0.377541  -0.23155  -0.053132  3.577394  -0.081
N  N101  1  0.78718543  0.66837477  0.80288076  1  -1.188392  0.095153  -0.377545  -0.231562  0.053134  3.577446  0.081
N  N102  1  0.47307874  0.12715155  0.19374614  1  -1.203725  -0.085351  -0.383258  -0.238225  -0.047758  3.610374  -0.073
N  N103  1  0.52692313  0.87285289  0.80625444  1  -1.203446  0.085348  -0.383342  -0.238138  0.047755  3.610262  0.073
N  N104  1  0.37850112  0.20018579  0.95121360  1  -1.236668  -0.086605  -0.388187  -0.427897  -0.047935  3.609742  -0.072
N  N105  1  0.62149270  0.79981369  0.04879090  1  -1.23686  0.086606  -0.388268  -0.427962  0.047934  3.609781  0.072
O  O106  1  0.01748291  0.34240975  0.82065818  1  -1.112252  0.041656  -0.272792  -0.452968  0.024971  2.394888  0.038
O  O107  1  0.98251642  0.65758389  0.17934156  1  -1.112299  -0.04166  -0.272724  -0.452966  -0.024974  2.394783  -0.038
O  O108  1  0.28237467  0.22831792  0.76862349  1  -1.110569  0.035776  -0.27283  -0.469257  0.021446  2.367813  0.031
O  O109  1  0.71760667  0.77169918  0.23137619  1  -1.110719  -0.035757  -0.27277  -0.469153  -0.021435  2.367435  -0.031
O  O110  1  0.12711286  0.24771471  0.52258308  1  -1.149647  0.057923  -0.308368  -0.544477  0.033069  2.201693  0.052
O  O111  1  0.87289691  0.75228778  0.47742427  1  -1.14946  -0.057909  -0.308418  -0.544583  -0.033062  2.201775  -0.052
O  O112  1  0.07041851  0.14088930  0.70071732  1  -1.148169  0.082331  -0.316001  -0.560029  0.046486  2.259632  0.071
O  O113  1  0.92958438  0.85911516  0.29927991  1  -1.14828  -0.082337  -0.31601  -0.560098  -0.046491  2.259282  -0.071
O  O114  1  0.87353959  0.41654556  0.60405790  1  -1.148704  0.056809  -0.30259  -0.544736  0.033591  2.410401  0.047
O  O115  1  0.12647839  0.58346882  0.39593073  1  -1.148446  -0.056814  -0.302622  -0.544756  -0.033594  2.410624  -0.047
O  O116  1  0.85362003  0.52037067  0.40399602  1  -1.176796  -0.05734  -0.319415  -0.587939  -0.033493  2.435962  -0.042
O  O117  1  0.14637429  0.47964460  0.59598473  1  -1.176585  0.057331  -0.319332  -0.587897  0.033489  2.436027  0.042
