# generated using pymatgen
data_Cu3H10C6N3Cl4
_symmetry_space_group_name_H-M   'P 1'
_cell_length_a   8.87794456
_cell_length_b   9.92606973
_cell_length_c   14.25400892
_cell_angle_alpha   89.99984514
_cell_angle_beta   90.00008475
_cell_angle_gamma   94.22612076
_symmetry_Int_Tables_number   1
_chemical_formula_structural   Cu3H10C6N3Cl4
_chemical_formula_sum   'Cu12 H40 C24 N12 Cl16'
_cell_volume   1252.69203097
_cell_formula_units_Z   4
loop_
 _symmetry_equiv_pos_site_id
 _symmetry_equiv_pos_as_xyz
  1  'x, y, z'
loop_
 _atom_site_type_symbol
 _atom_site_label
 _atom_site_symmetry_multiplicity
 _atom_site_fract_x
 _atom_site_fract_y
 _atom_site_fract_z
 _atom_site_occupancy
 _atom_site_hle17_bader_spin_density
 _atom_site_hle17_ddec_charge
 _atom_site_hle17_ddec_spin_density
 _atom_site_hle17_ddec_sum_bond_order
 _atom_site_hle17_magmom
 _atom_site_hse06_10hf_bader_spin_density
 _atom_site_hse06_10hf_ddec_charge
 _atom_site_hse06_10hf_ddec_spin_density
 _atom_site_hse06_10hf_ddec_sum_bond_order
 _atom_site_hse06_10hf_magmom
 _atom_site_hse06_bader_spin_density
 _atom_site_hse06_ddec_charge
 _atom_site_hse06_ddec_spin_density
 _atom_site_hse06_ddec_sum_bond_order
 _atom_site_hse06_magmom
 _atom_site_pbe_bader_spin_density
 _atom_site_pbe_cm5_charge
 _atom_site_pbe_ddec_charge
 _atom_site_pbe_ddec_spin_density
 _atom_site_pbe_ddec_sum_bond_order
 _atom_site_pbe_magmom
Cu  Cu0  1  0.38660161  0.30706095  0.35580505  1  0  0.481458  0  2.033731  0  0  0.400619  0  2.538886  0  0  0.404183  0  2.485296  0  0  0.372581  0.399945  0  2.574159  0
Cu  Cu1  1  0.11339810  0.19294334  0.85580402  1  0  0.481446  0  2.033824  0  0  0.400619  0  2.538966  0  0  0.404176  0  2.485382  0  0  0.372612  0.399947  0  2.574245  0
Cu  Cu2  1  0.61340089  0.69293717  0.64419454  1  0  0.481398  0  2.033873  0  0  0.40055  0  2.539048  0  0  0.404112  0  2.485462  0  0  0.372585  0.399867  0  2.574344  0
Cu  Cu3  1  0.88660159  0.80706186  0.14419557  1  0  0.48148  0  2.033692  0  0  0.400647  0  2.538844  0  0  0.404206  0  2.485258  0  0  0.372599  0.399978  0  2.574166  0
Cu  Cu4  1  0.43199792  0.47470589  0.20711762  1  0  0.420057  0  1.915032  0  0  0.334214  0  2.416168  0  0  0.35159  0  2.353942  0  0  0.241832  0.322576  0  2.459547  0
Cu  Cu5  1  0.06800123  0.02529592  0.70711757  1  0  0.420071  0  1.915055  0  0  0.334245  0  2.41617  0  0  0.351619  0  2.353941  0  0  0.241825  0.322598  0  2.459534  0
Cu  Cu6  1  0.56800241  0.52529324  0.79287846  1  0  0.420063  0  1.914992  0  0  0.334207  0  2.416162  0  0  0.351581  0  2.353932  0  0  0.241779  0.322537  0  2.45951  0
Cu  Cu7  1  0.93200159  0.97470624  0.29287992  1  0  0.420066  0  1.915053  0  0  0.334218  0  2.416203  0  0  0.351595  0  2.353979  0  0  0.241843  0.322602  0  2.459602  0
Cu  Cu8  1  0.58039746  0.64540231  0.02494983  1  0  0.529512  0  1.961027  0  0  0.445256  0  2.463703  0  0  0.447462  0  2.410838  0  0  0.39662  0.445681  0  2.49835  0
Cu  Cu9  1  0.91960590  0.85459717  0.52495158  1  0  0.529509  0  1.961004  0  0  0.445242  0  2.463713  0  0  0.447459  0  2.410845  0  0  0.396609  0.445677  0  2.498361  0
Cu  Cu10  1  0.41959949  0.35459682  0.97505046  1  0  0.529552  0  1.960981  0  0  0.44528  0  2.463686  0  0  0.447488  0  2.410821  0  0  0.396639  0.445714  0  2.498289  0
Cu  Cu11  1  0.08039418  0.14539894  0.47505082  1  0  0.529482  0  1.960993  0  0  0.445223  0  2.463688  0  0  0.447419  0  2.410815  0  0  0.396616  0.445637  0  2.498309  0
H  H12  1  0.67299800  0.97455045  0.73617755  1  0  0.281034  0  0.911612  0  0  0.266931  0  0.971539  0  0  0.273402  0  0.968403  0  0  0.277175  0.262512  0  0.973554  0
H  H13  1  0.82700379  0.52545127  0.23617765  1  0  0.280981  0  0.91173  0  0  0.266886  0  0.971643  0  0  0.273355  0  0.968517  0  0  0.277141  0.262466  0  0.973658  0
H  H14  1  0.32700016  0.02544969  0.26382345  1  0  0.280969  0  0.911634  0  0  0.26687  0  0.97156  0  0  0.273341  0  0.968427  0  0  0.27715  0.262448  0  0.973574  0
H  H15  1  0.17300024  0.47455191  0.76382194  1  0  0.281024  0  0.91167  0  0  0.266927  0  0.971579  0  0  0.273397  0  0.968445  0  0  0.27716  0.262506  0  0.973592  0
H  H16  1  0.50971716  0.92433382  0.78503044  1  0  0.287844  0  0.897559  0  0  0.270816  0  0.960296  0  0  0.2778  0  0.956179  0  0  0.283151  0.265736  0  0.963455  0
H  H17  1  0.99028674  0.57566468  0.28503200  1  0  0.2879  0  0.897564  0  0  0.270874  0  0.960289  0  0  0.277856  0  0.956173  0  0  0.283154  0.265795  0  0.963447  0
H  H18  1  0.49028454  0.07566835  0.21496985  1  0  0.287798  0  0.897585  0  0  0.270769  0  0.960324  0  0  0.277751  0  0.956211  0  0  0.283116  0.265688  0  0.963478  0
H  H19  1  0.00971496  0.42433748  0.71497040  1  0  0.287806  0  0.897626  0  0  0.270777  0  0.960359  0  0  0.277758  0  0.956246  0  0  0.283106  0.265697  0  0.963514  0
H  H20  1  0.65105983  0.23396251  0.65039184  1  0  0.137158  0  0.959116  0  0  0.147336  0  1.020415  0  0  0.150197  0  1.01963  0  0  0.098961  0.144951  0  1.021565  0
H  H21  1  0.84894299  0.26603656  0.15039151  1  0  0.137137  0  0.959188  0  0  0.147346  0  1.020462  0  0  0.150163  0  1.019723  0  0  0.098956  0.144964  0  1.021608  0
H  H22  1  0.34893913  0.76603359  0.34960635  1  0  0.137114  0  0.959087  0  0  0.147277  0  1.020384  0  0  0.15014  0  1.019599  0  0  0.098955  0.144895  0  1.021536  0
H  H23  1  0.15106813  0.73397066  0.84960738  1  0  0.137105  0  0.959035  0  0  0.147289  0  1.020311  0  0  0.150146  0  1.019542  0  0  0.098947  0.144908  0  1.02146  0
H  H24  1  0.68605377  0.08297166  0.58993813  1  0  0.129829  0  0.941518  0  0  0.138422  0  1.007602  0  0  0.141186  0  1.006701  0  0  0.103168  0.136241  0  1.008502  0
H  H25  1  0.81394683  0.41702967  0.08993889  1  0  0.129844  0  0.941502  0  0  0.138438  0  1.007573  0  0  0.141204  0  1.006661  0  0  0.103176  0.136248  0  1.008497  0
H  H26  1  0.31394753  0.91702546  0.41006287  1  0  0.129815  0  0.94158  0  0  0.138401  0  1.007651  0  0  0.14116  0  1.006763  0  0  0.103131  0.136217  0  1.008556  0
H  H27  1  0.18605833  0.58297351  0.91006562  1  0  0.129835  0  0.941439  0  0  0.138406  0  1.007529  0  0  0.141171  0  1.006637  0  0  0.103159  0.136213  0  1.008441  0
H  H28  1  0.39892025  0.12417031  0.70749226  1  0  0.090194  0  0.942208  0  0  0.100742  0  1.010971  0  0  0.102743  0  1.009258  0  0  0.101558  0.099189  0  1.012324  0
H  H29  1  0.10108228  0.37583150  0.20749290  1  0  0.090185  0  0.942167  0  0  0.10075  0  1.010946  0  0  0.102752  0  1.009232  0  0  0.101541  0.099198  0  1.012303  0
H  H30  1  0.60108016  0.87582983  0.29250523  1  0  0.090195  0  0.942202  0  0  0.100758  0  1.010968  0  0  0.10276  0  1.009253  0  0  0.101549  0.099209  0  1.012332  0
H  H31  1  0.89892312  0.62417471  0.79250810  1  0  0.090232  0  0.942197  0  0  0.100857  0  1.010887  0  0  0.102858  0  1.009172  0  0  0.101582  0.099309  0  1.012246  0
H  H32  1  0.43281168  0.97527987  0.64381886  1  0  0.087553  0  0.945121  0  0  0.097716  0  1.013193  0  0  0.09845  0  1.014111  0  0  0.101682  0.097059  0  1.012741  0
H  H33  1  0.06719048  0.52472313  0.14381873  1  0  0.087532  0  0.945058  0  0  0.097706  0  1.013138  0  0  0.098442  0  1.014054  0  0  0.101679  0.097052  0  1.01269  0
H  H34  1  0.56718857  0.02471825  0.35618073  1  0  0.087584  0  0.945083  0  0  0.097758  0  1.013158  0  0  0.098492  0  1.014074  0  0  0.101698  0.097102  0  1.012705  0
H  H35  1  0.93281396  0.47528510  0.85618227  1  0  0.087574  0  0.945114  0  0  0.097764  0  1.013195  0  0  0.098499  0  1.014112  0  0  0.101702  0.097109  0  1.012742  0
H  H36  1  0.49279398  0.12855745  0.86968877  1  0  0.083753  0  0.969348  0  0  0.091375  0  1.043685  0  0  0.092914  0  1.043175  0  0  0.099978  0.090184  0  1.04405  0
H  H37  1  0.00720953  0.37143770  0.36968653  1  0  0.083705  0  0.969276  0  0  0.091359  0  1.043615  0  0  0.092898  0  1.043103  0  0  0.1  0.09018  0  1.043983  0
H  H38  1  0.50720000  0.87144673  0.13031082  1  0  0.083718  0  0.969397  0  0  0.091355  0  1.043727  0  0  0.092894  0  1.043216  0  0  0.09999  0.090166  0  1.04409  0
H  H39  1  0.99279193  0.62856143  0.63031376  1  0  0.083679  0  0.969334  0  0  0.09133  0  1.043688  0  0  0.092868  0  1.043178  0  0  0.099996  0.09015  0  1.044058  0
H  H40  1  0.65446184  0.20405224  0.80967688  1  0  0.099724  0  0.927418  0  0  0.110629  0  0.9926  0  0  0.112732  0  0.991771  0  0  0.106505  0.108905  0  0.993387  0
H  H41  1  0.84553342  0.29594622  0.30967509  1  0  0.099717  0  0.927308  0  0  0.110639  0  0.99247  0  0  0.112741  0  0.991638  0  0  0.106509  0.108924  0  0.993263  0
H  H42  1  0.34554211  0.79594992  0.19032271  1  0  0.099747  0  0.927388  0  0  0.110658  0  0.99257  0  0  0.11276  0  0.991741  0  0  0.10652  0.108935  0  0.993358  0
H  H43  1  0.15446916  0.70405291  0.69032169  1  0  0.099734  0  0.927366  0  0  0.110655  0  0.992539  0  0  0.112757  0  0.991709  0  0  0.106522  0.108938  0  0.993332  0
H  H44  1  0.82358072  0.04941974  0.88037792  1  0  0.12849  0  0.926108  0  0  0.134236  0  0.99795  0  0  0.139177  0  0.992678  0  0  0.109399  0.130139  0  1.002045  0
H  H45  1  0.67642749  0.45058353  0.38038059  1  0  0.128422  0  0.926106  0  0  0.134204  0  0.997912  0  0  0.139155  0  0.992633  0  0  0.109374  0.130087  0  1.002031  0
H  H46  1  0.17641590  0.95057535  0.11962869  1  0  0.128542  0  0.926118  0  0  0.134224  0  0.997998  0  0  0.139167  0  0.992725  0  0  0.109417  0.130152  0  1.002078  0
H  H47  1  0.32357388  0.54941459  0.61961830  1  0  0.128423  0  0.926095  0  0  0.134188  0  0.997918  0  0  0.139138  0  0.992641  0  0  0.109362  0.130073  0  1.002032  0
H  H48  1  0.72232566  0.12756097  0.96966917  1  0  0.141379  0  0.902816  0  0  0.155156  0  0.956563  0  0  0.157034  0  0.95693  0  0  0.11964  0.153883  0  0.955853  0
H  H49  1  0.77768153  0.37244095  0.46966717  1  0  0.141323  0  0.902847  0  0  0.1551  0  0.956588  0  0  0.156984  0  0.956956  0  0  0.119656  0.153826  0  0.955879  0
H  H50  1  0.27766815  0.87244118  0.03033253  1  0  0.141381  0  0.902768  0  0  0.155146  0  0.95649  0  0  0.157023  0  0.956859  0  0  0.119638  0.153875  0  0.955788  0
H  H51  1  0.22231783  0.62756020  0.53032891  1  0  0.141335  0  0.902815  0  0  0.155105  0  0.956555  0  0  0.15699  0  0.956921  0  0  0.119635  0.153833  0  0.955848  0
C  C52  1  0.52096611  0.19457001  0.53281367  1  0  0.396241  0  3.605984  0  0  0.379234  0  3.878002  0  0  0.395396  0  3.88953  0  0  0.208915  0.367664  0  3.871227  0
C  C53  1  0.97903783  0.30543254  0.03281268  1  0  0.396101  0  3.606017  0  0  0.379092  0  3.878034  0  0  0.395254  0  3.889545  0  0  0.208848  0.367523  0  3.871267  0
C  C54  1  0.47903969  0.80542711  0.46718522  1  0  0.395983  0  3.606172  0  0  0.378975  0  3.878166  0  0  0.395135  0  3.889697  0  0  0.208782  0.367407  0  3.871399  0
C  C55  1  0.02096307  0.69457367  0.96718200  1  0  0.396066  0  3.605849  0  0  0.379041  0  3.877859  0  0  0.39521  0  3.889397  0  0  0.208881  0.367482  0  3.871093  0
C  C56  1  0.59580726  0.14506669  0.61446867  1  0  -0.217516  0  3.7346  0  0  -0.240742  0  3.959248  0  0  -0.245362  0  3.966012  0  0  -0.140155  -0.237413  0  3.955202  0
C  C57  1  0.90419323  0.35493252  0.11447103  1  0  -0.217445  0  3.734544  0  0  -0.240676  0  3.959208  0  0  -0.245261  0  3.965996  0  0  -0.140146  -0.237351  0  3.955164  0
C  C58  1  0.40419653  0.85493346  0.38552952  1  0  -0.217418  0  3.734709  0  0  -0.240601  0  3.959355  0  0  -0.245221  0  3.96611  0  0  -0.140151  -0.237273  0  3.955314  0
C  C59  1  0.09580340  0.64506257  0.88552505  1  0  -0.217379  0  3.734351  0  0  -0.2405  0  3.958985  0  0  -0.245135  0  3.965777  0  0  -0.140146  -0.23717  0  3.954948  0
C  C60  1  0.48709134  0.06347748  0.67973104  1  0  0.045534  0  3.518992  0  0  -0.01353  0  3.769779  0  0  -0.009447  0  3.778896  0  0  -0.061045  -0.016058  0  3.763496  0
C  C61  1  0.01291348  0.43652545  0.17973219  1  0  0.045555  0  3.518911  0  0  -0.013604  0  3.769833  0  0  -0.009525  0  3.778944  0  0  -0.061057  -0.016127  0  3.763551  0
C  C62  1  0.51291100  0.93651862  0.32026996  1  0  0.045479  0  3.518941  0  0  -0.013659  0  3.769785  0  0  -0.009579  0  3.778902  0  0  -0.061046  -0.016185  0  3.763507  0
C  C63  1  0.98708380  0.56347772  0.82026880  1  0  0.045491  0  3.519166  0  0  -0.013811  0  3.770207  0  0  -0.009724  0  3.779326  0  0  -0.061093  -0.016334  0  3.763922  0
C  C64  1  0.60208156  0.10971183  0.83869896  1  0  0.03668  0  3.533394  0  0  -0.023782  0  3.786192  0  0  -0.020525  0  3.796123  0  0  -0.062195  -0.025627  0  3.778858  0
C  C65  1  0.89791755  0.39029159  0.33869774  1  0  0.036792  0  3.53304  0  0  -0.023742  0  3.785909  0  0  -0.020478  0  3.795835  0  0  -0.062215  -0.025628  0  3.778628  0
C  C66  1  0.39791539  0.89028730  0.16130134  1  0  0.036629  0  3.533481  0  0  -0.023865  0  3.786227  0  0  -0.020609  0  3.796164  0  0  -0.062246  -0.025699  0  3.77889  0
C  C67  1  0.10208649  0.60971159  0.66129764  1  0  0.036773  0  3.533166  0  0  -0.023736  0  3.785929  0  0  -0.020472  0  3.795855  0  0  -0.062223  -0.025612  0  3.778637  0
C  C68  1  0.70992585  0.05575559  0.91089559  1  0  -0.199836  0  3.730642  0  0  -0.226223  0  3.96165  0  0  -0.229991  0  3.968634  0  0  -0.129134  -0.223194  0  3.956595  0
C  C69  1  0.79008033  0.44424958  0.41089768  1  0  -0.199734  0  3.730635  0  0  -0.226138  0  3.961623  0  0  -0.22993  0  3.96861  0  0  -0.129113  -0.223085  0  3.956585  0
C  C70  1  0.29006747  0.94424050  0.08911102  1  0  -0.199864  0  3.73051  0  0  -0.226127  0  3.961446  0  0  -0.229897  0  3.968428  0  0  -0.129122  -0.22313  0  3.956398  0
C  C71  1  0.20992000  0.55574955  0.58910332  1  0  -0.199777  0  3.730612  0  0  -0.226151  0  3.961562  0  0  -0.229943  0  3.968553  0  0  -0.129107  -0.2231  0  3.956514  0
C  C72  1  0.65868503  0.92438298  0.94765564  1  0  0.380702  0  3.611918  0  0  0.36257  0  3.885825  0  0  0.377648  0  3.897305  0  0  0.2014  0.351967  0  3.878526  0
C  C73  1  0.84131946  0.57561795  0.44765706  1  0  0.380687  0  3.611831  0  0  0.362538  0  3.885724  0  0  0.377626  0  3.897201  0  0  0.20137  0.351937  0  3.878424  0
C  C74  1  0.34130395  0.07561513  0.05234746  1  0  0.380637  0  3.611481  0  0  0.362477  0  3.885351  0  0  0.377556  0  3.896831  0  0  0.201392  0.351865  0  3.87806  0
C  C75  1  0.15868030  0.42437412  0.55234744  1  0  0.380736  0  3.611692  0  0  0.362578  0  3.885582  0  0  0.377665  0  3.89706  0  0  0.201428  0.351967  0  3.87827  0
N  N76  1  0.46529979  0.23707027  0.46597276  1  0  -0.447016  0  3.138975  0  0  -0.410845  0  3.484709  0  0  -0.41709  0  3.476548  0  0  -0.393434  -0.407952  0  3.490668  0
N  N77  1  0.03470008  0.26293259  0.96597012  1  0  -0.446888  0  3.139118  0  0  -0.410715  0  3.484837  0  0  -0.416958  0  3.476676  0  0  -0.393363  -0.407823  0  3.49081  0
N  N78  1  0.53470456  0.76292280  0.53402824  1  0  -0.44677  0  3.139052  0  0  -0.41059  0  3.484748  0  0  -0.416835  0  3.476591  0  0  -0.393281  -0.407697  0  3.490727  0
N  N79  1  0.96529882  0.73707664  0.03402667  1  0  -0.446938  0  3.138955  0  0  -0.410765  0  3.484672  0  0  -0.41701  0  3.476518  0  0  -0.393388  -0.407876  0  3.490661  0
N  N80  1  0.57186601  0.01139077  0.76087041  1  0  -0.276235  0  3.331801  0  0  -0.208578  0  3.536303  0  0  -0.222886  0  3.546925  0  0  -0.481655  -0.198761  0  3.528946  0
N  N81  1  0.92813849  0.48861193  0.26086693  1  0  -0.276282  0  3.33203  0  0  -0.20862  0  3.536557  0  0  -0.222925  0  3.547175  0  0  -0.481601  -0.198793  0  3.529213  0
N  N82  1  0.42813544  0.98860836  0.23913059  1  0  -0.27608  0  3.331704  0  0  -0.208417  0  3.536236  0  0  -0.222723  0  3.546863  0  0  -0.481615  -0.198605  0  3.528872  0
N  N83  1  0.07185879  0.51139124  0.73913547  1  0  -0.276213  0  3.331782  0  0  -0.208522  0  3.536336  0  0  -0.222825  0  3.546952  0  0  -0.481583  -0.198705  0  3.528989  0
N  N84  1  0.61763184  0.81675622  0.97413388  1  0  -0.445454  0  3.172242  0  0  -0.410574  0  3.525859  0  0  -0.41422  0  3.515393  0  0  -0.39669  -0.409238  0  3.5333  0
N  N85  1  0.88237801  0.68324057  0.47413655  1  0  -0.445421  0  3.17208  0  0  -0.410529  0  3.525681  0  0  -0.414184  0  3.515221  0  0  -0.396659  -0.409187  0  3.533115  0
N  N86  1  0.38235175  0.18324491  0.02586851  1  0  -0.445423  0  3.172045  0  0  -0.410538  0  3.525675  0  0  -0.414188  0  3.515215  0  0  -0.396724  -0.409201  0  3.533104  0
N  N87  1  0.11762634  0.31675251  0.52586375  1  0  -0.445415  0  3.172002  0  0  -0.410524  0  3.525607  0  0  -0.414171  0  3.515136  0  0  -0.396696  -0.409172  0  3.533008  0
Cl  Cl88  1  0.16730306  0.14938123  0.31302275  1  0  -0.554012  0  1.348649  0  0  -0.493687  0  1.720562  0  0  -0.505335  0  1.681057  0  0  -0.27985  -0.485608  0  1.747951  0
Cl  Cl89  1  0.33269736  0.35061918  0.81302092  1  0  -0.554005  0  1.348649  0  0  -0.493686  0  1.720568  0  0  -0.505332  0  1.681056  0  0  -0.279844  -0.485607  0  1.747936  0
Cl  Cl90  1  0.83269485  0.85061587  0.68697684  1  0  -0.553989  0  1.348698  0  0  -0.493663  0  1.720606  0  0  -0.505323  0  1.681117  0  0  -0.279807  -0.485557  0  1.748003  0
Cl  Cl91  1  0.66730434  0.64938299  0.18697727  1  0  -0.554016  0  1.348648  0  0  -0.493706  0  1.720571  0  0  -0.505355  0  1.681066  0  0  -0.27983  -0.485603  0  1.747968  0
Cl  Cl92  1  0.29934249  0.51915133  0.34012291  1  0  -0.549696  0  1.334073  0  0  -0.477612  0  1.691748  0  0  -0.495886  0  1.659039  0  0  -0.310897  -0.464662  0  1.714258  0
Cl  Cl93  1  0.20065212  0.98084991  0.84012493  1  0  -0.54973  0  1.334081  0  0  -0.477671  0  1.691763  0  0  -0.49594  0  1.65905  0  0  -0.310928  -0.464727  0  1.714276  0
Cl  Cl94  1  0.70065880  0.48084578  0.65987528  1  0  -0.549684  0  1.334107  0  0  -0.477598  0  1.691779  0  0  -0.495869  0  1.659068  0  0  -0.310884  -0.464626  0  1.714269  0
Cl  Cl95  1  0.79934307  0.01915528  0.15987537  1  0  -0.549704  0  1.334049  0  0  -0.477636  0  1.691735  0  0  -0.495901  0  1.659014  0  0  -0.310904  -0.464695  0  1.71426  0
Cl  Cl96  1  0.66126672  0.46199798  0.93685981  1  0  -0.518372  0  1.546949  0  0  -0.441214  0  1.967287  0  0  -0.457039  0  1.923736  0  0  -0.274041  -0.430662  0  1.996152  0
Cl  Cl97  1  0.83872840  0.03799495  0.43685920  1  0  -0.518362  0  1.546985  0  0  -0.441205  0  1.967339  0  0  -0.457031  0  1.923791  0  0  -0.274048  -0.430676  0  1.996229  0
Cl  Cl98  1  0.33872926  0.53800316  0.06313978  1  0  -0.518362  0  1.546974  0  0  -0.44119  0  1.967296  0  0  -0.457017  0  1.923751  0  0  -0.274044  -0.43065  0  1.996176  0
Cl  Cl99  1  0.16127611  0.96200014  0.56314180  1  0  -0.518367  0  1.54701  0  0  -0.441225  0  1.967384  0  0  -0.457046  0  1.923833  0  0  -0.274046  -0.430689  0  1.996258  0
Cl  Cl100  1  0.56330068  0.28660437  0.22774153  1  0  -0.549033  0  1.321871  0  0  -0.488457  0  1.682876  0  0  -0.504118  0  1.648679  0  0  -0.293484  -0.477454  0  1.70702  0
Cl  Cl101  1  0.93669804  0.21339744  0.72774286  1  0  -0.549026  0  1.321859  0  0  -0.488458  0  1.682865  0  0  -0.50412  0  1.648676  0  0  -0.293499  -0.477465  0  1.70701  0
Cl  Cl102  1  0.43670094  0.71339678  0.77225596  1  0  -0.54901  0  1.321878  0  0  -0.488438  0  1.68289  0  0  -0.504098  0  1.648699  0  0  -0.293451  -0.477416  0  1.707025  0
Cl  Cl103  1  0.06330012  0.78660270  0.27225884  1  0  -0.549027  0  1.321849  0  0  -0.488448  0  1.682842  0  0  -0.504111  0  1.648658  0  0  -0.293455  -0.477439  0  1.707015  0
