# generated using pymatgen
data_NaH6C8N3O2
_symmetry_space_group_name_H-M   'P 1'
_cell_length_a   3.68715034
_cell_length_b   14.43799783
_cell_length_c   16.06725900
_cell_angle_alpha   116.96197748
_cell_angle_beta   90.00006650
_cell_angle_gamma   90.00018914
_symmetry_Int_Tables_number   1
_chemical_formula_structural   NaH6C8N3O2
_chemical_formula_sum   'Na4 H24 C32 N12 O8'
_cell_volume   762.37250306
_cell_formula_units_Z   4
loop_
 _symmetry_equiv_pos_site_id
 _symmetry_equiv_pos_as_xyz
  1  'x, y, z'
loop_
 _atom_site_type_symbol
 _atom_site_label
 _atom_site_symmetry_multiplicity
 _atom_site_fract_x
 _atom_site_fract_y
 _atom_site_fract_z
 _atom_site_occupancy
 _atom_site_hle17_bader_spin_density
 _atom_site_hle17_ddec_charge
 _atom_site_hle17_ddec_spin_density
 _atom_site_hle17_ddec_sum_bond_order
 _atom_site_hle17_magmom
 _atom_site_hse06_10hf_bader_spin_density
 _atom_site_hse06_10hf_ddec_charge
 _atom_site_hse06_10hf_ddec_spin_density
 _atom_site_hse06_10hf_ddec_sum_bond_order
 _atom_site_hse06_10hf_magmom
 _atom_site_hse06_bader_spin_density
 _atom_site_hse06_ddec_charge
 _atom_site_hse06_ddec_spin_density
 _atom_site_hse06_ddec_sum_bond_order
 _atom_site_hse06_magmom
 _atom_site_pbe_bader_spin_density
 _atom_site_pbe_cm5_charge
 _atom_site_pbe_ddec_charge
 _atom_site_pbe_ddec_spin_density
 _atom_site_pbe_ddec_sum_bond_order
 _atom_site_pbe_magmom
Na  Na0  1  0.73059029  0.59449103  0.23755808  1  0  0.910582  0  0.374664  0  0  0.865726  0  0.52893  0  0  0.877367  0  0.505886  0  0  0.676455  0.856958  0  0.545565  0
Na  Na1  1  0.23059326  0.40550273  0.26244113  1  0  0.910617  0  0.374626  0  0  0.865715  0  0.528954  0  0  0.877357  0  0.505926  0  0  0.676454  0.856951  0  0.545597  0
Na  Na2  1  0.26940232  0.40550950  0.76244239  1  0  0.910602  0  0.374658  0  0  0.865694  0  0.528962  0  0  0.877351  0  0.505936  0  0  0.676466  0.856937  0  0.545609  0
Na  Na3  1  0.76941561  0.59449314  0.73755867  1  0  0.910581  0  0.374685  0  0  0.865722  0  0.528941  0  0  0.877369  0  0.505912  0  0  0.676467  0.856962  0  0.545582  0
H  H4  1  0.15264317  0.54846916  0.56755752  1  0  0.262424  0  0.948957  0  0  0.233643  0  1.03262  0  0  0.244046  0  1.022949  0  0  0.319548  0.226246  0  1.039662  0
H  H5  1  0.65264482  0.45153410  0.93244625  1  0  0.262436  0  0.948933  0  0  0.233682  0  1.032578  0  0  0.244068  0  1.022911  0  0  0.319528  0.226283  0  1.039626  0
H  H6  1  0.84735486  0.45152903  0.43244385  1  0  0.262374  0  0.948923  0  0  0.233615  0  1.032567  0  0  0.244011  0  1.022898  0  0  0.319525  0.226221  0  1.039609  0
H  H7  1  0.34734779  0.54847031  0.06755705  1  0  0.262425  0  0.948889  0  0  0.233656  0  1.032559  0  0  0.244051  0  1.022886  0  0  0.319546  0.226259  0  1.039594  0
H  H8  1  0.71424444  0.83379949  0.73657629  1  0  0.325559  0  0.92196  0  0  0.312583  0  0.978283  0  0  0.320062  0  0.971983  0  0  0.297092  0.307291  0  0.982668  0
H  H9  1  0.21424981  0.16620542  0.76342507  1  0  0.325691  0  0.92175  0  0  0.312678  0  0.978147  0  0  0.320156  0  0.971848  0  0  0.297114  0.307386  0  0.982533  0
H  H10  1  0.28576715  0.16619560  0.26342257  1  0  0.325641  0  0.921974  0  0  0.312669  0  0.978272  0  0  0.320147  0  0.971973  0  0  0.297152  0.307376  0  0.982662  0
H  H11  1  0.78574551  0.83379746  0.23657325  1  0  0.325654  0  0.921849  0  0  0.312674  0  0.978177  0  0  0.320152  0  0.971878  0  0  0.297131  0.307383  0  0.982563  0
H  H12  1  0.94517689  0.94307072  0.74417578  1  0  0.304307  0  0.928008  0  0  0.290688  0  0.992975  0  0  0.296432  0  0.989337  0  0  0.294808  0.286614  0  0.995541  0
H  H13  1  0.44517811  0.05693370  0.75582419  1  0  0.304362  0  0.927991  0  0  0.290734  0  0.992967  0  0  0.29648  0  0.989328  0  0  0.294829  0.28666  0  0.995536  0
H  H14  1  0.05483470  0.05692514  0.25582402  1  0  0.30429  0  0.928091  0  0  0.290651  0  0.993077  0  0  0.296396  0  0.989437  0  0  0.294795  0.286578  0  0.995645  0
H  H15  1  0.55482263  0.94306997  0.24417320  1  0  0.304301  0  0.928076  0  0  0.290678  0  0.993041  0  0  0.296424  0  0.989401  0  0  0.294806  0.286604  0  0.995612  0
H  H16  1  0.89699335  0.99504585  0.62204104  1  0  0.095381  0  0.970988  0  0  0.105751  0  1.035416  0  0  0.109561  0  1.03372  0  0  0.097299  0.103053  0  1.0367  0
H  H17  1  0.39700539  0.00495852  0.87795827  1  0  0.095414  0  0.971023  0  0  0.105766  0  1.035473  0  0  0.109578  0  1.033777  0  0  0.097331  0.103068  0  1.036763  0
H  H18  1  0.10301553  0.00495312  0.37796128  1  0  0.095377  0  0.971038  0  0  0.105748  0  1.03546  0  0  0.109559  0  1.033762  0  0  0.097319  0.103051  0  1.036747  0
H  H19  1  0.60300077  0.99504360  0.12203724  1  0  0.095366  0  0.971047  0  0  0.105774  0  1.035446  0  0  0.109587  0  1.033744  0  0  0.097302  0.103074  0  1.036736  0
H  H20  1  0.75509708  0.94132970  0.45564977  1  0  0.080714  0  0.969637  0  0  0.095221  0  1.026908  0  0  0.097191  0  1.026069  0  0  0.099116  0.093691  0  1.027642  0
H  H21  1  0.25509993  0.05867033  0.04434703  1  0  0.080776  0  0.969575  0  0  0.095288  0  1.026837  0  0  0.097246  0  1.026012  0  0  0.099128  0.093756  0  1.027576  0
H  H22  1  0.24489824  0.05867083  0.54435194  1  0  0.08069  0  0.969655  0  0  0.095177  0  1.026944  0  0  0.097168  0  1.026076  0  0  0.099106  0.093648  0  1.027676  0
H  H23  1  0.74490081  0.94132790  0.95564689  1  0  0.080729  0  0.969582  0  0  0.095215  0  1.026882  0  0  0.097207  0  1.026014  0  0  0.099124  0.093685  0  1.027618  0
H  H24  1  0.44023200  0.77299267  0.35918463  1  0  0.09428  0  0.966058  0  0  0.103321  0  1.031518  0  0  0.108393  0  1.027837  0  0  0.106292  0.099627  0  1.034339  0
H  H25  1  0.94021571  0.22700447  0.14081353  1  0  0.094336  0  0.965965  0  0  0.103361  0  1.031431  0  0  0.108462  0  1.027716  0  0  0.106308  0.099667  0  1.034254  0
H  H26  1  0.55974704  0.22700941  0.64081897  1  0  0.094266  0  0.966018  0  0  0.103274  0  1.031517  0  0  0.108383  0  1.027799  0  0  0.106268  0.099583  0  1.034333  0
H  H27  1  0.05978232  0.77299296  0.85918318  1  0  0.094309  0  0.966056  0  0  0.103314  0  1.031542  0  0  0.108411  0  1.02784  0  0  0.106288  0.099625  0  1.034358  0
C  C28  1  0.26726838  0.62744129  0.41318763  1  0  0.460995  0  3.959011  0  0  0.426594  0  4.253262  0  0  0.448124  0  4.258447  0  0  0.195513  0.41205  0  4.24922  0
C  C29  1  0.76727264  0.37255873  0.08681291  1  0  0.46108  0  3.95898  0  0  0.42659  0  4.253368  0  0  0.448115  0  4.25856  0  0  0.19551  0.412042  0  4.249323  0
C  C30  1  0.73271880  0.37255846  0.58681314  1  0  0.460995  0  3.958922  0  0  0.426534  0  4.253278  0  0  0.448054  0  4.258472  0  0  0.19548  0.411995  0  4.249223  0
C  C31  1  0.23273081  0.62744258  0.91318788  1  0  0.460977  0  3.95904  0  0  0.426533  0  4.253358  0  0  0.448066  0  4.258534  0  0  0.195507  0.411983  0  4.249324  0
C  C32  1  0.41213453  0.68839707  0.60430928  1  0  0.506173  0  3.876041  0  0  0.453705  0  4.172255  0  0  0.482428  0  4.17328  0  0  0.217617  0.434567  0  4.170899  0
C  C33  1  0.91213691  0.31160574  0.89569314  1  0  0.506187  0  3.876035  0  0  0.453724  0  4.172266  0  0  0.482426  0  4.173286  0  0  0.217621  0.434587  0  4.170915  0
C  C34  1  0.58786893  0.31160113  0.39569023  1  0  0.506071  0  3.876247  0  0  0.453689  0  4.17236  0  0  0.482405  0  4.173384  0  0  0.21762  0.434553  0  4.171009  0
C  C35  1  0.08786112  0.68839712  0.10430767  1  0  0.506225  0  3.876041  0  0  0.453785  0  4.172247  0  0  0.482497  0  4.17327  0  0  0.21768  0.434644  0  4.170892  0
C  C36  1  0.50663062  0.75959251  0.56650718  1  0  -0.180245  0  3.701235  0  0  -0.16536  0  3.933985  0  0  -0.176368  0  3.956015  0  0  -0.018248  -0.158316  0  3.919335  0
C  C37  1  0.00664053  0.24041058  0.93349276  1  0  -0.180213  0  3.701359  0  0  -0.165339  0  3.934112  0  0  -0.176349  0  3.956145  0  0  -0.018204  -0.158294  0  3.919453  0
C  C38  1  0.49336741  0.24040724  0.43349421  1  0  -0.180163  0  3.701083  0  0  -0.165326  0  3.933909  0  0  -0.176335  0  3.955939  0  0  -0.018218  -0.158288  0  3.919263  0
C  C39  1  0.99336293  0.75959229  0.06650680  1  0  -0.180139  0  3.701134  0  0  -0.165294  0  3.933961  0  0  -0.176303  0  3.95599  0  0  -0.018243  -0.158251  0  3.919308  0
C  C40  1  0.67528467  0.85743694  0.62216273  1  0  0.313736  0  3.806621  0  0  0.301451  0  4.057605  0  0  0.31434  0  4.076129  0  0  0.106663  0.292773  0  4.044937  0
C  C41  1  0.17529033  0.14256714  0.87783890  1  0  0.313593  0  3.807006  0  0  0.30138  0  4.057855  0  0  0.314272  0  4.076372  0  0  0.106525  0.2927  0  4.045187  0
C  C42  1  0.32471607  0.14256125  0.37783927  1  0  0.313872  0  3.806483  0  0  0.301528  0  4.05757  0  0  0.314417  0  4.076088  0  0  0.106676  0.292851  0  4.044909  0
C  C43  1  0.82471313  0.85743574  0.12215880  1  0  0.313694  0  3.806661  0  0  0.301384  0  4.057711  0  0  0.314277  0  4.076223  0  0  0.106609  0.29271  0  4.045041  0
C  C44  1  0.76324991  0.92090166  0.57975902  1  0  -0.206053  0  3.730777  0  0  -0.226756  0  3.991681  0  0  -0.234896  0  4.011796  0  0  -0.109857  -0.221372  0  3.978072  0
C  C45  1  0.26326312  0.07910098  0.92024018  1  0  -0.205954  0  3.730894  0  0  -0.22667  0  3.99177  0  0  -0.234806  0  4.011875  0  0  -0.10978  -0.221288  0  3.978171  0
C  C46  1  0.23675083  0.07909653  0.42024298  1  0  -0.206174  0  3.731032  0  0  -0.226866  0  3.991951  0  0  -0.235003  0  4.012064  0  0  -0.109942  -0.221486  0  3.978353  0
C  C47  1  0.73674576  0.92090113  0.07975596  1  0  -0.206133  0  3.730937  0  0  -0.226867  0  3.991833  0  0  -0.235004  0  4.011937  0  0  -0.109889  -0.221486  0  3.978231  0
C  C48  1  0.68549294  0.88982248  0.48601496  1  0  -0.026334  0  3.807892  0  0  -0.040646  0  4.060952  0  0  -0.037167  0  4.080255  0  0  -0.084884  -0.042572  0  4.047584  0
C  C49  1  0.18550172  0.11017746  0.01398241  1  0  -0.026445  0  3.807862  0  0  -0.040771  0  4.060947  0  0  -0.037285  0  4.080254  0  0  -0.084909  -0.042697  0  4.047583  0
C  C50  1  0.31449695  0.11017727  0.51398643  1  0  -0.026175  0  3.807894  0  0  -0.040446  0  4.060911  0  0  -0.03698  0  4.080215  0  0  -0.084787  -0.04237  0  4.04754  0
C  C51  1  0.81450445  0.88982232  0.98601401  1  0  -0.026157  0  3.807836  0  0  -0.040443  0  4.06088  0  0  -0.036974  0  4.080172  0  0  -0.084811  -0.042367  0  4.047514  0
C  C52  1  0.51584357  0.79547669  0.43140560  1  0  -0.127675  0  3.760328  0  0  -0.152955  0  4.015748  0  0  -0.158096  0  4.034552  0  0  -0.100497  -0.149544  0  4.003035  0
C  C53  1  0.01584841  0.20452225  0.06859257  1  0  -0.127764  0  3.760282  0  0  -0.153019  0  4.015702  0  0  -0.158189  0  4.034503  0  0  -0.100542  -0.149608  0  4.002992  0
C  C54  1  0.48414090  0.20452306  0.56859642  1  0  -0.127707  0  3.760304  0  0  -0.152981  0  4.015726  0  0  -0.158156  0  4.034512  0  0  -0.100502  -0.149577  0  4.003023  0
C  C55  1  0.98416047  0.79547674  0.93140478  1  0  -0.127867  0  3.760367  0  0  -0.153113  0  4.015785  0  0  -0.158284  0  4.034589  0  0  -0.100538  -0.149704  0  4.003067  0
C  C56  1  0.43070162  0.72954276  0.47104395  1  0  -0.015735  0  3.75893  0  0  -0.002188  0  3.987123  0  0  -0.000445  0  4.007609  0  0  -0.003161  -0.003275  0  3.973251  0
C  C57  1  0.93070429  0.27045824  0.02895703  1  0  -0.015736  0  3.758877  0  0  -0.002161  0  3.987075  0  0  -0.000419  0  4.007569  0  0  -0.003184  -0.003249  0  3.973201  0
C  C58  1  0.56929098  0.27045698  0.52895806  1  0  -0.015802  0  3.759006  0  0  -0.002209  0  3.98718  0  0  -0.000459  0  4.007674  0  0  -0.00319  -0.003292  0  3.973301  0
C  C59  1  0.06930188  0.72954230  0.97104157  1  0  -0.015719  0  3.758882  0  0  -0.00214  0  3.987061  0  0  -0.000406  0  4.007567  0  0  -0.003161  -0.003226  0  3.973188  0
N  N60  1  0.16799630  0.56659283  0.45131934  1  0  -0.365459  0  3.011509  0  0  -0.348527  0  3.301153  0  0  -0.361663  0  3.313338  0  0  -0.266401  -0.339539  0  3.292919  0
N  N61  1  0.66800114  0.43340940  0.04868395  1  0  -0.365349  0  3.011306  0  0  -0.348344  0  3.300993  0  0  -0.361502  0  3.313157  0  0  -0.266288  -0.33935  0  3.292746  0
N  N62  1  0.83199359  0.43340770  0.54868238  1  0  -0.365363  0  3.011344  0  0  -0.348394  0  3.301013  0  0  -0.361534  0  3.313192  0  0  -0.266318  -0.339405  0  3.292773  0
N  N63  1  0.33200503  0.56659424  0.95131842  1  0  -0.365404  0  3.011395  0  0  -0.348428  0  3.301029  0  0  -0.361578  0  3.313206  0  0  -0.266378  -0.33944  0  3.292796  0
N  N64  1  0.24117251  0.60049427  0.54421878  1  0  -0.253933  0  3.480375  0  0  -0.197671  0  3.735849  0  0  -0.215069  0  3.749129  0  0  -0.295119  -0.186181  0  3.726837  0
N  N65  1  0.74117633  0.39950833  0.95578351  1  0  -0.254008  0  3.480134  0  0  -0.197889  0  3.735831  0  0  -0.215214  0  3.749043  0  0  -0.295173  -0.186371  0  3.726741  0
N  N66  1  0.75882280  0.39950548  0.45578262  1  0  -0.2539  0  3.480318  0  0  -0.197737  0  3.735883  0  0  -0.215107  0  3.749139  0  0  -0.295125  -0.186226  0  3.726818  0
N  N67  1  0.25882441  0.60049454  0.04421792  1  0  -0.254013  0  3.480302  0  0  -0.197774  0  3.735747  0  0  -0.215132  0  3.74899  0  0  -0.295143  -0.186279  0  3.726728  0
N  N68  1  0.74055233  0.89088686  0.71589137  1  0  -0.666102  0  3.10425  0  0  -0.627375  0  3.328632  0  0  -0.647188  0  3.327769  0  0  -0.594261  -0.613418  0  3.328897  0
N  N69  1  0.24055708  0.10911808  0.78410939  1  0  -0.666225  0  3.104252  0  0  -0.627502  0  3.328625  0  0  -0.647315  0  3.327749  0  0  -0.594264  -0.61355  0  3.328904  0
N  N70  1  0.25945112  0.10910978  0.28410875  1  0  -0.666226  0  3.104326  0  0  -0.627456  0  3.328757  0  0  -0.64728  0  3.327909  0  0  -0.594314  -0.613496  0  3.329025  0
N  N71  1  0.75944095  0.89088636  0.21588895  1  0  -0.666171  0  3.104257  0  0  -0.627425  0  3.328657  0  0  -0.647242  0  3.327794  0  0  -0.594265  -0.613469  0  3.328924  0
O  O72  1  0.22399332  0.59395705  0.32418004  1  0  -0.824265  0  1.990209  0  0  -0.781448  0  2.254908  0  0  -0.801721  0  2.241065  0  0  -0.538936  -0.766736  0  2.263897  0
O  O73  1  0.72399576  0.40604136  0.17582169  1  0  -0.824369  0  1.99023  0  0  -0.781492  0  2.254929  0  0  -0.801775  0  2.241121  0  0  -0.538983  -0.766789  0  2.263928  0
O  O74  1  0.77599657  0.40604347  0.67582167  1  0  -0.824301  0  1.990199  0  0  -0.781417  0  2.25485  0  0  -0.801712  0  2.241063  0  0  -0.538968  -0.766718  0  2.263853  0
O  O75  1  0.27601312  0.59395762  0.82417939  1  0  -0.824268  0  1.990221  0  0  -0.781431  0  2.254912  0  0  -0.801716  0  2.241098  0  0  -0.538954  -0.766727  0  2.263917  0
O  O76  1  0.47565001  0.70266222  0.68755563  1  0  -0.688357  0  1.911136  0  0  -0.64575  0  2.154362  0  0  -0.665325  0  2.142282  0  0  -0.399036  -0.631918  0  2.162157  0
O  O77  1  0.97564636  0.29733990  0.81244465  1  0  -0.688419  0  1.91109  0  0  -0.645756  0  2.154297  0  0  -0.665342  0  2.142238  0  0  -0.399043  -0.631933  0  2.162097  0
O  O78  1  0.52436700  0.29733210  0.31244229  1  0  -0.688354  0  1.911329  0  0  -0.645743  0  2.154495  0  0  -0.665317  0  2.142421  0  0  -0.399036  -0.631916  0  2.162294  0
O  O79  1  0.02434082  0.70266297  0.18755491  1  0  -0.688407  0  1.911179  0  0  -0.645802  0  2.154399  0  0  -0.665381  0  2.142318  0  0  -0.399066  -0.63197  0  2.162192  0
