# generated using pymatgen
data_Co2H15C15NO10
_symmetry_space_group_name_H-M   'P 1'
_cell_length_a   9.13458149
_cell_length_b   9.31785660
_cell_length_c   12.60783819
_cell_angle_alpha   94.25877987
_cell_angle_beta   105.60605392
_cell_angle_gamma   114.39519999
_symmetry_Int_Tables_number   1
_chemical_formula_structural   Co2H15C15NO10
_chemical_formula_sum   'Co4 H30 C30 N2 O20'
_cell_volume   920.01340332
_cell_formula_units_Z   2
loop_
 _symmetry_equiv_pos_site_id
 _symmetry_equiv_pos_as_xyz
  1  'x, y, z'
loop_
 _atom_site_type_symbol
 _atom_site_label
 _atom_site_symmetry_multiplicity
 _atom_site_fract_x
 _atom_site_fract_y
 _atom_site_fract_z
 _atom_site_occupancy
 _atom_site_pbe_bader_charge
 _atom_site_pbe_bader_spin_density
 _atom_site_pbe_cm5_charge
 _atom_site_pbe_ddec_charge
 _atom_site_pbe_ddec_spin_density
 _atom_site_pbe_ddec_sum_bond_order
 _atom_site_pbe_magmom
Co  Co0  1  0.13059385  0.48765048  0.29948550  1  1.256239  2.60502  0.667567  0.876865  2.798275  2.390062  2.575
Co  Co1  1  0.86941139  0.51234784  0.70052031  1  1.256255  2.605017  0.667554  0.876905  2.798279  2.390042  2.575
Co  Co2  1  0.50000319  0.50000399  0.49999932  1  1.343365  2.595207  0.667121  1.058688  2.800475  2.369851  2.584
Co  Co3  1  0.00000032  0.00000101  0.50000093  1  1.336276  2.665283  0.642138  1.089915  2.878095  2.196396  2.65
H  H4  1  0.14865976  0.33331463  0.54957149  1  0.657025  0.001372  0.302633  0.407797  0.000691  0.916844  0.002
H  H5  1  0.85133534  0.66669101  0.45043044  1  0.657046  0.001372  0.302648  0.407827  0.000691  0.916806  0.002
H  H6  1  0.64809148  0.10901867  0.40430581  1  0.061879  0.000574  0.110345  0.113108  4.9e-05  0.964007  0.0
H  H7  1  0.35189839  0.89098095  0.59569003  1  0.062354  0.000574  0.110356  0.113056  4.9e-05  0.963982  0.0
H  H8  1  0.25677668  0.09340066  0.17249776  1  0.053422  0.001455  0.100465  0.088884  0.000619  0.983239  0.001
H  H9  1  0.74322003  0.90660134  0.82750110  1  0.053425  0.001454  0.10046  0.088914  0.000619  0.983229  0.001
H  H10  1  0.47881361  0.28388546  0.11920542  1  0.014983  0.00021  0.094085  0.099575  4.1e-05  0.984138  0.0
H  H11  1  0.52118243  0.71611049  0.88079058  1  0.015051  0.00021  0.094104  0.099607  4.1e-05  0.984087  0.0
H  H12  1  0.55942896  0.42607457  0.24737498  1  0.04913  0.000225  0.101242  0.113909  -7.6e-05  0.994881  0.0
H  H13  1  0.44056534  0.57392260  0.75261601  1  0.049188  0.000225  0.10125  0.113967  -7.6e-05  0.994912  0.0
H  H14  1  0.60056048  0.12000617  0.21287324  1  0.070134  0.000162  0.102579  0.083086  -2.4e-05  1.031694  0.0
H  H15  1  0.39943444  0.87998979  0.78712414  1  0.070137  0.000162  0.102607  0.083119  -2.4e-05  1.031654  0.0
H  H16  1  0.35872548  0.00035340  0.31640192  1  0.072259  0.000502  0.106969  0.10254  0.00015  0.976521  0.0
H  H17  1  0.64126832  0.99964498  0.68359380  1  0.072217  0.000503  0.106993  0.102619  0.00015  0.976471  0.0
H  H18  1  0.59465693  0.86987573  0.17673285  1  0.15297  0.001354  0.107082  0.11863  0.000727  1.027774  0.001
H  H19  1  0.40534516  0.13011653  0.82325378  1  0.152878  0.001354  0.107089  0.118627  0.000727  1.027842  0.001
H  H20  1  0.97574187  0.60061959  0.10024269  1  0.104817  0.001626  0.123444  0.103863  0.000384  0.994418  0.001
H  H21  1  0.02426747  0.39938717  0.89976675  1  0.104715  0.001626  0.123435  0.103827  0.000384  0.994505  0.001
H  H22  1  0.05878650  0.01820506  0.70481542  1  0.607284  -0.000435  0.319116  0.402038  -0.000536  0.880224  0.0
H  H23  1  0.94122056  0.98180171  0.29519281  1  0.607433  -0.000435  0.319148  0.402091  -0.000536  0.880273  0.0
H  H24  1  0.08612933  0.78521344  0.97636951  1  0.127243  0.000813  0.109173  0.136132  0.000334  1.034201  0.0
H  H25  1  0.91387704  0.21478729  0.02363427  1  0.12737  0.000813  0.109141  0.136083  0.000334  1.034285  0.0
H  H26  1  0.46363877  0.68342607  0.28767379  1  0.168636  0.001911  0.123774  0.111944  0.000557  1.018174  0.001
H  H27  1  0.53637668  0.31658184  0.71232577  1  0.168687  0.001911  0.123764  0.111904  0.000557  1.01827  0.001
H  H28  1  0.32003644  0.97462151  0.93178211  1  0.066566  0.000247  0.109309  0.108681  0.000174  0.99646  0.0
H  H29  1  0.67996792  0.02536591  0.06820943  1  0.066653  0.000247  0.109259  0.108643  0.000174  0.996442  0.0
H  H30  1  0.10466051  0.87852479  0.67089340  1  0.641692  0.001024  0.290173  0.383827  0.000542  0.964293  0.001
H  H31  1  0.89533054  0.12146999  0.32911112  1  0.641689  0.001025  0.290136  0.383694  0.000542  0.964422  0.001
H  H32  1  0.96898072  0.25951305  0.56896018  1  0.646732  0.000754  0.304329  0.40534  0.000224  0.913828  0.001
H  H33  1  0.03101823  0.74048409  0.43104120  1  0.646678  0.000755  0.304347  0.405353  0.000225  0.913776  0.001
C  C34  1  0.33673446  0.14603334  0.44049300  1  1.584371  0.003647  0.215353  0.613373  0.002658  4.132336  0.003
C  C35  1  0.66326346  0.85397349  0.55950795  1  1.584556  0.003648  0.215376  0.613401  0.002659  4.132415  0.003
C  C36  1  0.25531345  0.29643237  0.25383164  1  1.509498  -0.001571  0.212675  0.602446  -0.002833  4.097798  -0.002
C  C37  1  0.74468835  0.70357080  0.74616666  1  1.510083  -0.001572  0.212711  0.60251  -0.002834  4.097555  -0.002
C  C38  1  0.70874835  0.35013039  0.47128830  1  1.553999  0.013947  0.223267  0.61573  0.009676  4.101882  0.011
C  C39  1  0.29124664  0.64987041  0.52870937  1  1.554104  0.013946  0.22329  0.615683  0.009676  4.101829  0.011
C  C40  1  0.60781130  0.20024632  0.37787355  1  0.006949  0.00706  -0.082399  -0.144825  0.003705  3.790112  0.005
C  C41  1  0.39218141  0.79975449  0.62212290  1  0.006404  0.007061  -0.082419  -0.14478  0.003705  3.789893  0.005
C  C42  1  0.34700084  0.19705960  0.24162431  1  0.013492  0.003422  -0.081114  -0.120755  0.001621  3.807859  0.002
C  C43  1  0.65299756  0.80294359  0.75837256  1  0.013028  0.003423  -0.081186  -0.120949  0.001621  3.807866  0.002
C  C44  1  0.50663054  0.29758245  0.21063063  1  0.029979  0.001944  -0.162343  -0.180051  0.000912  3.882462  0.001
C  C45  1  0.49336543  0.70241107  0.78936205  1  0.030014  0.001943  -0.16232  -0.180064  0.000911  3.882488  0.001
C  C46  1  0.63442565  0.23675076  0.26424872  1  0.007913  0.002427  -0.084435  -0.116865  0.001394  3.869865  0.001
C  C47  1  0.36557386  0.76324759  0.73575125  1  0.007852  0.002427  -0.084466  -0.116816  0.001394  3.869732  0.001
C  C48  1  0.81532808  0.34526010  0.27279053  1  1.516489  -0.001359  0.205947  0.579697  -0.002684  4.126947  -0.003
C  C49  1  0.18466688  0.65473586  0.72720923  1  1.516407  -0.00136  0.205913  0.579571  -0.002685  4.126832  -0.003
C  C50  1  0.41682976  0.95815192  0.99530633  1  -0.000301  -0.011995  -0.078393  -0.120724  -0.013355  3.954935  -0.006
C  C51  1  0.58316723  0.04183193  0.00468599  1  -0.084967  -0.01198  -0.078202  -0.12059  -0.013353  3.954815  -0.006
C  C52  1  0.41116727  0.13078976  0.34699745  1  -0.017258  0.006877  -0.0763  -0.136988  0.003305  3.745153  0.005
C  C53  1  0.58882720  0.86921467  0.65300033  1  -0.016855  0.006878  -0.076261  -0.136999  0.003306  3.745141  0.005
C  C54  1  0.35155255  0.84613072  0.06438828  1  -0.060807  -0.014927  0.003942  0.138472  -0.016302  4.031376  -0.009
C  C55  1  0.64845206  0.15386880  0.93561192  1  -0.060501  -0.01493  0.003845  0.138337  -0.016305  4.03149  -0.009
C  C56  1  0.45629252  0.81328092  0.15363427  1  -0.100735  0.003668  -0.082814  -0.170628  0.001201  3.92613  0.004
C  C57  1  0.54371434  0.18671858  0.84636478  1  -0.100271  0.00367  -0.082822  -0.170569  0.001202  3.926346  0.004
C  C58  1  0.11145878  0.66263081  0.11225255  1  0.467201  -0.010591  0.048396  0.091528  -0.011918  3.943815  -0.005
C  C59  1  0.88855048  0.33737353  0.88775358  1  0.467512  -0.010596  0.048399  0.091498  -0.011923  3.943994  -0.005
C  C60  1  0.17479601  0.76689460  0.04481243  1  0.042024  0.002882  -0.08041  -0.179334  0.000428  3.907244  0.003
C  C61  1  0.82521029  0.23309887  0.95519330  1  0.04175  0.002884  -0.080365  -0.17924  0.000428  3.907286  0.003
C  C62  1  0.38391814  0.70743674  0.21705493  1  0.418506  -0.006444  0.044107  0.088953  -0.007345  3.915648  -0.003
C  C63  1  0.61608868  0.29255793  0.78294542  1  0.417735  -0.006442  0.044128  0.088908  -0.007344  3.915786  -0.003
N  N64  1  0.21345269  0.63192273  0.19720300  1  -1.247386  0.063069  -0.34144  -0.25883  0.033268  3.624939  0.045
N  N65  1  0.78655897  0.36808884  0.80280717  1  -1.247052  0.063072  -0.341402  -0.258688  0.033267  3.624943  0.045
O  O66  1  0.11745552  0.26910455  0.18074080  1  -1.160294  0.06483  -0.302849  -0.536187  0.03232  2.1713  0.057
O  O67  1  0.88254170  0.73089140  0.81925860  1  -1.160628  0.064834  -0.302891  -0.536239  0.032322  2.171235  0.057
O  O68  1  0.06238793  0.23596030  0.56300458  1  -1.242765  0.058603  -0.574051  -0.775563  0.030219  2.165046  0.047
O  O69  1  0.93761571  0.76404650  0.43700141  1  -1.24275  0.058605  -0.574051  -0.775564  0.03022  2.165102  0.047
O  O70  1  0.41502666  0.26774228  0.52274402  1  -1.184625  0.056466  -0.317184  -0.57828  0.028403  2.352269  0.046
O  O71  1  0.58497074  0.73226577  0.47725848  1  -1.184757  0.056464  -0.317182  -0.578224  0.0284  2.352238  0.046
O  O72  1  0.32290654  0.41864411  0.33873764  1  -1.152788  0.113913  -0.317376  -0.601824  0.061484  2.538516  0.096
O  O73  1  0.67709245  0.58136029  0.66126020  1  -1.152859  0.113909  -0.317377  -0.60184  0.061484  2.538458  0.096
O  O74  1  0.80631554  0.34325768  0.56271234  1  -1.154719  0.084125  -0.297312  -0.538456  0.042917  2.354185  0.07
O  O75  1  0.19367712  0.65673346  0.43728830  1  -1.15487  0.084123  -0.297326  -0.5384  0.042917  2.354296  0.07
O  O76  1  0.69300243  0.47755569  0.45397180  1  -1.185084  0.051476  -0.310518  -0.590547  0.026136  2.391478  0.038
O  O77  1  0.30700790  0.52244863  0.54602897  1  -1.18498  0.051487  -0.310549  -0.590576  0.026142  2.391443  0.038
O  O78  1  0.19197578  0.03084773  0.42731742  1  -1.173342  0.063994  -0.312092  -0.581935  0.032443  2.33893  0.058
O  O79  1  0.80802786  0.96916148  0.57268633  1  -1.173546  0.064  -0.312123  -0.582002  0.032446  2.338918  0.058
O  O80  1  0.93136116  0.30275976  0.32190598  1  -1.16193  0.079786  -0.318704  -0.557233  0.040841  2.366544  0.064
O  O81  1  0.06863382  0.69723862  0.67809314  1  -1.161998  0.0798  -0.318666  -0.557225  0.040846  2.366459  0.064
O  O82  1  0.85749612  0.47097044  0.23392782  1  -1.150292  0.056717  -0.296917  -0.516676  0.028336  2.151122  0.049
O  O83  1  0.14249024  0.52902436  0.76606391  1  -1.150198  0.056726  -0.29693  -0.516636  0.028341  2.151243  0.049
O  O84  1  0.12876290  0.99387538  0.66711867  1  -1.2068  0.060948  -0.563998  -0.755067  0.031744  2.104198  0.048
O  O85  1  0.87123669  0.00612298  0.33288767  1  -1.206933  0.060949  -0.563998  -0.754995  0.031747  2.104529  0.048
