# generated using pymatgen
data_CuH4(C2N)3
_symmetry_space_group_name_H-M   'P 1'
_cell_length_a   27.05114146
_cell_length_b   27.26443676
_cell_length_c   27.50360498
_cell_angle_alpha   90.70245455
_cell_angle_beta   92.04612106
_cell_angle_gamma   95.48104123
_symmetry_Int_Tables_number   1
_chemical_formula_structural   CuH4(C2N)3
_chemical_formula_sum   'Cu12 H48 C72 N36'
_cell_volume   20176.72435325
_cell_formula_units_Z   12
loop_
 _symmetry_equiv_pos_site_id
 _symmetry_equiv_pos_as_xyz
  1  'x, y, z'
loop_
 _atom_site_type_symbol
 _atom_site_label
 _atom_site_symmetry_multiplicity
 _atom_site_fract_x
 _atom_site_fract_y
 _atom_site_fract_z
 _atom_site_occupancy
 _atom_site_pbe_bader_charge
 _atom_site_pbe_bader_spin_density
 _atom_site_pbe_cm5_charge
 _atom_site_pbe_ddec_charge
 _atom_site_pbe_ddec_spin_density
 _atom_site_pbe_ddec_sum_bond_order
 _atom_site_pbe_magmom
Cu  Cu0  1  0.34156369  0.38297880  0.42435463  1  0.545613  0  0.490141  0.208577  0  2.117281  0
Cu  Cu1  1  0.39639454  0.30935694  0.35875199  1  0.548713  0  0.489161  0.211669  0  2.1042  0
Cu  Cu2  1  0.36641148  0.40899614  0.31733934  1  0.543085  0  0.490077  0.205796  0  2.139449  0
Cu  Cu3  1  0.83581881  0.64368328  0.08103333  1  0.545968  0  0.489922  0.209481  0  2.113434  0
Cu  Cu4  1  0.93474754  0.68863552  0.13510427  1  0.545613  0  0.487102  0.206042  0  2.114826  0
Cu  Cu5  1  0.88203622  0.58653523  0.16954057  1  0.547046  0  0.488938  0.209258  0  2.107827  0
Cu  Cu6  1  0.16558565  0.85821044  0.59191523  1  0.543443  0  0.49139  0.20666  0  2.143442  0
Cu  Cu7  1  0.05323903  0.83886557  0.61206548  1  0.548717  0  0.488952  0.209892  0  2.108928  0
Cu  Cu8  1  0.12990115  0.89761663  0.68972734  1  0.547968  0  0.488339  0.211743  0  2.09967  0
Cu  Cu9  1  0.68574229  0.13771186  0.91846198  1  0.545078  0  0.486628  0.207912  0  2.101943  0
Cu  Cu10  1  0.58866671  0.17575411  0.86982398  1  0.549318  0  0.489405  0.210049  0  2.108179  0
Cu  Cu11  1  0.62887351  0.07802256  0.82983682  1  0.547004  0  0.489357  0.208501  0  2.114386  0
H  H12  1  0.35854587  0.33539456  0.52852425  1  0.094848  0  0.123732  0.116703  0  0.982887  0
H  H13  1  0.40339036  0.22171351  0.43265617  1  0.086283  0  0.123818  0.115777  0  0.984151  0
H  H14  1  0.28312939  0.48110368  0.29168611  1  0.123464  0  0.124229  0.116989  0  0.981866  0
H  H15  1  0.25719932  0.45399799  0.44407957  1  0.117585  0  0.124931  0.116247  0  0.982543  0
H  H16  1  0.45975632  0.27307556  0.27058959  1  0.08897  0  0.123731  0.116497  0  0.982531  0
H  H17  1  0.44384875  0.42477122  0.23278750  1  0.073025  0  0.124212  0.115999  0  0.983178  0
H  H18  1  0.81899519  0.72817332  0.00490771  1  0.132658  0  0.12443  0.116241  0  0.983434  0
H  H19  1  0.96841833  0.77361315  0.06067059  1  0.114515  0  0.123769  0.116625  0  0.981378  0
H  H20  1  0.80217868  0.49322262  0.17377859  1  0.089524  0  0.123255  0.115838  0  0.984033  0
H  H21  1  0.74996495  0.56335722  0.04373642  1  0.124328  0  0.123193  0.116027  0  0.983982  0
H  H22  1  0.01509412  0.71094331  0.22155825  1  0.098657  0  0.123067  0.115862  0  0.983054  0
H  H23  1  0.95637977  0.56269859  0.25675480  1  0.107116  0  0.123903  0.115988  0  0.984337  0
H  H24  1  0.17779915  0.77184347  0.51577874  1  0.121783  0  0.124699  0.116349  0  0.982817  0
H  H25  1  0.01753829  0.76097300  0.52541083  1  0.072057  0  0.123953  0.116909  0  0.982355  0
H  H26  1  0.22289115  0.97571588  0.72177437  1  0.119802  0  0.124227  0.116839  0  0.981501  0
H  H27  1  0.26032894  0.93357936  0.57611649  1  0.127783  0  0.124635  0.116098  0  0.982642  0
H  H28  1  0.95219437  0.85498366  0.66243400  1  0.117551  0  0.123513  0.115965  0  0.982653  0
H  H29  1  0.05900067  0.90136686  0.77901168  1  0.079316  0  0.123625  0.115713  0  0.983471  0
H  H30  1  0.71422835  0.22291445  0.99794380  1  0.118198  0  0.123834  0.116288  0  0.982579  0
H  H31  1  0.57041884  0.26133454  0.94481235  1  0.111266  0  0.123826  0.116252  0  0.983267  0
H  H32  1  0.69823055  0.99164072  0.81651293  1  0.095487  0  0.123541  0.115209  0  0.98473  0
H  H33  1  0.76591806  0.06386549  0.94695216  1  0.110303  0  0.123642  0.116111  0  0.98366  0
H  H34  1  0.50127474  0.18779933  0.79150804  1  0.084851  0  0.124189  0.116253  0  0.983107  0
H  H35  1  0.54255528  0.04332378  0.75170156  1  0.096774  0  0.12402  0.116045  0  0.9808  0
H  H36  1  0.93824796  0.81218724  0.96521079  1  0.092782  0  0.105527  0.104468  0  0.996491  0
H  H37  1  0.82680233  0.82412910  0.97426542  1  0.087407  0  0.103755  0.116552  0  0.995267  0
H  H38  1  0.39655684  0.24905020  0.57529407  1  0.100508  0  0.105879  0.105767  0  0.99198  0
H  H39  1  0.36341394  0.16439904  0.50254268  1  0.085252  0  0.103563  0.115255  0  0.997469  0
H  H40  1  0.68137953  0.31344559  0.03761594  1  0.123406  0  0.105923  0.105045  0  0.993964  0
H  H41  1  0.56738096  0.29393460  0.03917207  1  0.085414  0  0.10353  0.116364  0  0.996681  0
H  H42  1  0.05776143  0.70327638  0.44656668  1  0.079369  0  0.106492  0.10606  0  0.993604  0
H  H43  1  0.16062766  0.68092007  0.48759249  1  0.062202  0  0.103299  0.114468  0  0.99926  0
H  H44  1  0.79162632  0.96515401  0.92711616  1  0.112842  0  0.104502  0.103457  0  0.996165  0
H  H45  1  0.79511209  0.95709246  0.81555178  1  0.062606  0  0.104909  0.118578  0  0.993422  0
H  H46  1  0.19529779  0.51798961  0.32831294  1  0.113709  0  0.105969  0.10506  0  0.994213  0
H  H47  1  0.21424406  0.53636518  0.43847971  1  0.099202  0  0.103461  0.115666  0  0.996493  0
H  H48  1  0.31286993  0.02616560  0.68585339  1  0.116268  0  0.106678  0.106368  0  0.993295  0
H  H49  1  0.30178432  0.02311490  0.57389401  1  0.072255  0  0.103634  0.115827  0  0.997411  0
H  H50  1  0.70900685  0.45947593  0.06086623  1  0.069397  0  0.106233  0.105969  0  0.98842  0
H  H51  1  0.69937306  0.46495481  0.17195742  1  0.068491  0  0.105113  0.117359  0  0.994631  0
H  H52  1  0.91219241  0.89346484  0.75096012  1  0.123834  0  0.105453  0.104679  0  0.996198  0
H  H53  1  0.98230315  0.86242774  0.83330889  1  0.072558  0  0.103661  0.115255  0  0.99753  0
H  H54  1  0.50524398  0.31005769  0.17845975  1  0.128715  0  0.106515  0.106758  0  0.990099  0
H  H55  1  0.53868140  0.41748139  0.20930723  1  0.07244  0  0.104123  0.115643  0  0.997321  0
H  H56  1  0.04753238  0.67343165  0.31528085  1  0.09064  0  0.105047  0.103783  0  0.99563  0
H  H57  1  0.05233709  0.56238958  0.29666926  1  0.075822  0  0.10422  0.117222  0  0.994526  0
H  H58  1  0.45155963  0.06861986  0.70850088  1  0.122392  0  0.105427  0.104294  0  0.99686  0
H  H59  1  0.45931469  0.18142014  0.69812481  1  0.074354  0  0.104207  0.117994  0  0.994996  0
C  C60  1  0.36898455  0.31290121  0.49842099  1  0.376909  0  0.011079  -0.052353  0  3.94589  0
C  C61  1  0.38271772  0.26442579  0.49852475  1  0.024379  0  -0.034931  0.010441  0  4.109843  0
C  C62  1  0.39059248  0.25430627  0.44923779  1  0.470969  0  0.013245  -0.045284  0  3.936338  0
C  C63  1  0.28323849  0.46925530  0.32922283  1  0.415744  0  0.013413  -0.049744  0  3.946696  0
C  C64  1  0.25257167  0.48130514  0.36696702  1  -0.016725  0  -0.035899  0.009316  0  4.114328  0
C  C65  1  0.27063645  0.45629786  0.40739752  1  0.424805  0  0.015221  -0.041034  0  3.928775  0
C  C66  1  0.44989881  0.31059322  0.26734256  1  0.447227  0  0.011424  -0.050266  0  3.944395  0
C  C67  1  0.46703459  0.34746570  0.23500144  1  0.004752  0  -0.035831  0.008138  0  4.110355  0
C  C68  1  0.44274410  0.38855363  0.24887932  1  0.452892  0  0.013845  -0.043542  0  3.939443  0
C  C69  1  0.85429262  0.73379185  0.02516862  1  0.372849  0  0.014021  -0.042868  0  3.9325  0
C  C70  1  0.89557502  0.76793269  0.01735382  1  0.020215  0  -0.035725  0.007942  0  4.107539  0
C  C71  1  0.93113805  0.75626336  0.05288051  1  0.387091  0  0.012088  -0.049912  0  3.941979  0
C  C72  1  0.79514467  0.51741567  0.14377751  1  0.437013  0  0.01169  -0.049992  0  3.939646  0
C  C73  1  0.75918353  0.51086485  0.10545039  1  0.020701  0  -0.035818  0.011984  0  4.109541  0
C  C74  1  0.76924172  0.55257905  0.07661040  1  0.358235  0  0.009641  -0.053977  0  3.949609  0
C  C75  1  0.99480638  0.67475110  0.22366523  1  0.38636  0  0.010943  -0.052406  0  3.945323  0
C  C76  1  0.00155902  0.63669937  0.25661792  1  0.02164  0  -0.03628  0.010564  0  4.110705  0
C  C77  1  0.96556812  0.59854896  0.24094584  1  0.429751  0  0.012834  -0.046569  0  3.936694  0
C  C78  1  0.13946789  0.77494917  0.52472727  1  0.37699  0  0.014911  -0.042886  0  3.934419  0
C  C79  1  0.09568285  0.74889052  0.50513209  1  0.039525  0  -0.035415  0.009434  0  4.1113  0
C  C80  1  0.05746315  0.77014524  0.52878929  1  0.428608  0  0.012353  -0.050559  0  3.943697  0
C  C81  1  0.22549535  0.95903981  0.68602591  1  0.397294  0  0.012596  -0.0489  0  3.939876  0
C  C82  1  0.25946345  0.97152883  0.64951409  1  0.037841  0  -0.035207  0.008382  0  4.111467  0
C  C83  1  0.24411938  0.93815871  0.61121686  1  0.376273  0  0.014853  -0.04116  0  3.931256  0
C  C84  1  0.98486078  0.86587252  0.68554947  1  0.392101  0  0.011644  -0.050308  0  3.944493  0
C  C85  1  0.98802134  0.87968234  0.73508130  1  -0.005613  0  -0.035079  0.011617  0  4.107766  0
C  C86  1  0.03947673  0.88831359  0.74547986  1  0.439976  0  0.012556  -0.046226  0  3.934858  0
C  C87  1  0.67890714  0.22614195  0.97883634  1  0.371022  0  0.011245  -0.051336  0  3.943839  0
C  C88  1  0.64281727  0.25873416  0.98773340  1  0.017335  0  -0.035321  0.011097  0  4.106943  0
C  C89  1  0.60490166  0.24506492  0.95240090  1  0.429199  0  0.013385  -0.045646  0  3.933689  0
C  C90  1  0.70996400  0.01597608  0.84714618  1  0.411513  0  0.012342  -0.046663  0  3.938308  0
C  C91  1  0.74710194  0.01139271  0.88349257  1  0.008556  0  -0.035529  0.012823  0  4.107652  0
C  C92  1  0.74367951  0.05228709  0.91446876  1  0.407364  0  0.011153  -0.052414  0  3.947174  0
C  C93  1  0.51837885  0.15368629  0.78708248  1  0.401638  0  0.013307  -0.045099  0  3.930602  0
C  C94  1  0.50448399  0.11329677  0.75552720  1  0.07287  0  -0.035797  0.010429  0  4.111257  0
C  C95  1  0.53895634  0.07943761  0.76750943  1  0.405421  0  0.012394  -0.049345  0  3.942266  0
C  C96  1  0.86958325  0.85954097  0.91737214  1  1.043261  0  0.238887  0.425208  0  4.066595  0
C  C97  1  0.83594403  0.91221282  0.86478821  1  1.054458  0  0.239809  0.425871  0  4.060749  0
C  C98  1  0.90779810  0.88008866  0.84705891  1  1.041319  0  0.238368  0.422249  0  4.062334  0
C  C99  1  0.37976732  0.14995040  0.57795433  1  1.018206  0  0.237182  0.422948  0  4.059245  0
C  C100  1  0.40861944  0.13146733  0.65349945  1  1.05578  0  0.240374  0.424627  0  4.064071  0
C  C101  1  0.35293472  0.07704223  0.61216975  1  1.074421  0  0.239137  0.424453  0  4.072169  0
C  C102  1  0.60847355  0.34935478  0.08568413  1  1.085063  0  0.240081  0.423834  0  4.059092  0
C  C103  1  0.65106385  0.41350826  0.12738189  1  1.068892  0  0.240984  0.42613  0  4.06372  0
C  C104  1  0.57537250  0.38177578  0.15245661  1  1.038689  0  0.23871  0.426321  0  4.061066  0
C  C105  1  0.12549529  0.63959310  0.42653787  1  1.030739  0  0.237747  0.423671  0  4.067809  0
C  C106  1  0.09327429  0.60169991  0.35669816  1  1.072867  0  0.239608  0.421641  0  4.064883  0
C  C107  1  0.15769810  0.57103405  0.39792408  1  1.052042  0  0.23738  0.424675  0  4.065885  0
C  C108  1  0.90117838  0.80414279  0.97948132  1  0.005151  0  -0.07206  -0.057691  0  3.998862  0
C  C109  1  0.86389007  0.82778607  0.95949546  1  -0.059776  0  -0.097723  -0.215146  0  3.955819  0
C  C110  1  0.38661355  0.23217641  0.53956085  1  -0.021245  0  -0.073541  -0.061661  0  4.000358  0
C  C111  1  0.37727124  0.18263137  0.53657160  1  -0.073195  0  -0.096643  -0.210311  0  3.959824  0
C  C112  1  0.64468178  0.29668591  0.02514107  1  -0.135345  0  -0.073117  -0.060544  0  4.001932  0
C  C113  1  0.60468754  0.31189059  0.04697515  1  0.009876  0  -0.098288  -0.215366  0  3.957211  0
C  C114  1  0.09174176  0.70922525  0.46945293  1  -0.070387  0  -0.073359  -0.061301  0  4.003909  0
C  C115  1  0.12768698  0.67874479  0.46325117  1  0.055617  0  -0.09767  -0.212919  0  3.963749  0
C  C116  1  0.78059206  0.97345359  0.88967445  1  -0.11246  0  -0.073773  -0.062197  0  4.007028  0
C  C117  1  0.80055231  0.94825566  0.85385927  1  0.048539  0  -0.097675  -0.213747  0  3.951618  0
C  C118  1  0.21253976  0.51266062  0.36419478  1  -0.074284  0  -0.073522  -0.060936  0  4.006887  0
C  C119  1  0.19607412  0.53719071  0.40246398  1  -0.010295  0  -0.097532  -0.212825  0  3.956363  0
C  C120  1  0.29868414  0.01141163  0.65036361  1  -0.089866  0  -0.07404  -0.061977  0  4.003877  0
C  C121  1  0.31706075  0.03358541  0.61021197  1  -0.023759  0  -0.098092  -0.213713  0  3.953768  0
C  C122  1  0.71951875  0.47152453  0.09820553  1  -0.025772  0  -0.074208  -0.064976  0  4.003943  0
C  C123  1  0.69328660  0.45077352  0.13471781  1  -0.011109  0  -0.095919  -0.209334  0  3.963879  0
C  C124  1  0.94741092  0.88384263  0.76720722  1  -0.096715  0  -0.073711  -0.060994  0  4.001773  0
C  C125  1  0.94950521  0.87572330  0.81557169  1  0.012107  0  -0.09772  -0.212511  0  3.959755  0
C  C126  1  0.50341630  0.34502541  0.19789842  1  -0.106198  0  -0.07182  -0.0599  0  3.993575  0
C  C127  1  0.53659978  0.38341935  0.18773791  1  -0.012503  0  -0.096085  -0.210659  0  3.95773  0
C  C128  1  0.03678289  0.63769989  0.29750234  1  -0.012647  0  -0.075149  -0.064045  0  4.011754  0
C  C129  1  0.05803427  0.59832613  0.31499759  1  -0.066476  0  -0.097735  -0.213101  0  3.958837  0
C  C130  1  0.46517868  0.10662479  0.71846362  1  -0.059751  0  -0.075028  -0.063008  0  4.011024  0
C  C131  1  0.44524797  0.14273369  0.69335634  1  -0.06276  0  -0.09856  -0.215716  0  3.954782  0
N  N132  1  0.38211466  0.29358918  0.42214215  1  -0.771133  0  -0.336807  -0.141754  0  3.764234  0
N  N133  1  0.36805471  0.32988644  0.45263276  1  -0.775186  0  -0.337771  -0.140759  0  3.760444  0
N  N134  1  0.30889367  0.43148396  0.39453895  1  -0.79128  0  -0.336603  -0.140173  0  3.76642  0
N  N135  1  0.31708137  0.43991540  0.34604576  1  -0.792237  0  -0.339443  -0.140791  0  3.775282  0
N  N136  1  0.41358906  0.37691243  0.28642556  1  -0.770722  0  -0.339735  -0.142584  0  3.778349  0
N  N137  1  0.41855681  0.32866292  0.29848820  1  -0.788107  0  -0.337607  -0.143444  0  3.75559  0
N  N138  1  0.91223565  0.71865355  0.07992167  1  -0.801433  0  -0.337647  -0.140771  0  3.767319  0
N  N139  1  0.86473821  0.70413620  0.06212489  1  -0.761674  0  -0.337875  -0.142882  0  3.760763  0
N  N140  1  0.80763167  0.58196781  0.09671204  1  -0.771008  0  -0.337897  -0.1409  0  3.776361  0
N  N141  1  0.82424916  0.55969786  0.13800839  1  -0.779541  0  -0.336872  -0.140442  0  3.772791  0
N  N142  1  0.93950966  0.61299473  0.20193938  1  -0.784988  0  -0.335928  -0.139175  0  3.767813  0
N  N143  1  0.95820015  0.66010513  0.19071140  1  -0.774451  0  -0.337537  -0.141123  0  3.77174  0
N  N144  1  0.07709368  0.80550900  0.56038285  1  -0.793876  0  -0.337344  -0.142651  0  3.757958  0
N  N145  1  0.12805646  0.80879230  0.55732762  1  -0.765168  0  -0.339137  -0.139483  0  3.775605  0
N  N146  1  0.20426457  0.90855057  0.62400342  1  -0.774058  0  -0.33854  -0.139451  0  3.775987  0
N  N147  1  0.19220883  0.92179193  0.67033941  1  -0.774063  0  -0.336299  -0.143331  0  3.749921  0
N  N148  1  0.06472539  0.88028941  0.70529849  1  -0.77229  0  -0.336085  -0.142875  0  3.758771  0
N  N149  1  0.03073033  0.86563448  0.66811193  1  -0.775554  0  -0.337679  -0.142586  0  3.76175  0
N  N150  1  0.61759152  0.20743273  0.92485720  1  -0.787  0  -0.335812  -0.14035  0  3.769032  0
N  N151  1  0.66329029  0.19510417  0.94175426  1  -0.772606  0  -0.336449  -0.141278  0  3.761441  0
N  N152  1  0.70778482  0.07927230  0.89756498  1  -0.788653  0  -0.335938  -0.139631  0  3.770126  0
N  N153  1  0.68632402  0.05624127  0.85611361  1  -0.77488  0  -0.337474  -0.14192  0  3.77346  0
N  N154  1  0.57113592  0.09848561  0.80280079  1  -0.775797  0  -0.33834  -0.141987  0  3.772457  0
N  N155  1  0.55786346  0.14436446  0.81547649  1  -0.781457  0  -0.335734  -0.140194  0  3.76386  0
N  N156  1  0.83297835  0.88857248  0.90763416  1  -1.181254  0  -0.330251  -0.447493  0  3.167155  0
N  N157  1  0.87024828  0.90608490  0.83151347  1  -1.179811  0  -0.328536  -0.443231  0  3.152237  0
N  N158  1  0.90978233  0.85702418  0.89000711  1  -1.179169  0  -0.327851  -0.441784  0  3.161512  0
N  N159  1  0.40641844  0.16564593  0.61859339  1  -1.167635  0  -0.329366  -0.444213  0  3.148003  0
N  N160  1  0.38112864  0.08748839  0.65297743  1  -1.200083  0  -0.327195  -0.443337  0  3.183083  0
N  N161  1  0.35399469  0.10523810  0.57209921  1  -1.183275  0  -0.334612  -0.448396  0  3.145082  0
N  N162  1  0.64953193  0.38176180  0.08936841  1  -1.194906  0  -0.325349  -0.44034  0  3.164832  0
N  N163  1  0.61527595  0.41494018  0.16016118  1  -1.179697  0  -0.333214  -0.447058  0  3.151329  0
N  N164  1  0.57004005  0.34816413  0.11578909  1  -1.196469  0  -0.329026  -0.444022  0  3.152121  0
N  N165  1  0.09210345  0.63918507  0.38895533  1  -1.180971  0  -0.325018  -0.438265  0  3.1719  0
N  N166  1  0.12534175  0.56673956  0.35926653  1  -1.206033  0  -0.329597  -0.444486  0  3.157039  0
N  N167  1  0.15857948  0.60596506  0.43319657  1  -1.194319  0  -0.334588  -0.449867  0  3.149575  0
