# generated using pymatgen
data_MnH28(C12N7)2
_symmetry_space_group_name_H-M   'P 1'
_cell_length_a   7.42245473
_cell_length_b   10.09488638
_cell_length_c   10.15835031
_cell_angle_alpha   109.92310882
_cell_angle_beta   103.07883268
_cell_angle_gamma   108.64828215
_symmetry_Int_Tables_number   1
_chemical_formula_structural   MnH28(C12N7)2
_chemical_formula_sum   'Mn1 H28 C24 N14'
_cell_volume   628.17844544
_cell_formula_units_Z   1
loop_
 _symmetry_equiv_pos_site_id
 _symmetry_equiv_pos_as_xyz
  1  'x, y, z'
loop_
 _atom_site_type_symbol
 _atom_site_label
 _atom_site_symmetry_multiplicity
 _atom_site_fract_x
 _atom_site_fract_y
 _atom_site_fract_z
 _atom_site_occupancy
 _atom_site_pbe_cm5_charge
 _atom_site_pbe_ddec_charge
 _atom_site_pbe_ddec_spin_density
 _atom_site_pbe_ddec_sum_bond_order
 _atom_site_pbe_magmom
Mn  Mn0  1  0.00000098  0.50000411  0.50000398  1  0.699947  0.566537  1.083579  3.592235  1.036
H  H1  1  0.08219621  0.67326442  0.04620342  1  0.110844  0.092903  -5.4e-05  0.998254  0.0
H  H2  1  0.91780247  0.32673502  0.95379645  1  0.110841  0.092906  -5.4e-05  0.998214  0.0
H  H3  1  0.27722949  0.61823646  0.01093578  1  0.106118  0.085815  -3.8e-05  1.038583  0.0
H  H4  1  0.72276789  0.38176064  0.98906308  1  0.106114  0.085828  -3.8e-05  1.038555  0.0
H  H5  1  0.37654736  0.88325878  0.03917486  1  0.098075  0.10287  -0.000106  0.968189  0.0
H  H6  1  0.62344724  0.11673829  0.96082157  1  0.098073  0.102869  -0.000106  0.968246  0.0
H  H7  1  0.54608747  0.89007404  0.19559266  1  0.090508  0.083617  -1.2e-05  1.033968  0.0
H  H8  1  0.45391120  0.10992540  0.80440327  1  0.09052  0.083606  -1.2e-05  1.033985  0.0
H  H9  1  0.31124871  0.95678252  0.33965479  1  0.089243  0.081659  -1.4e-05  1.001869  0.0
H  H10  1  0.68874932  0.04321575  0.66034261  1  0.089254  0.081688  -1.4e-05  1.001835  0.0
H  H11  1  0.46870777  0.10419948  0.30625739  1  0.093792  0.096343  -5.3e-05  1.002436  0.0
H  H12  1  0.53128952  0.89579995  0.69374127  1  0.093823  0.096405  -5.3e-05  1.002398  0.0
H  H13  1  0.18744538  0.05742161  0.09447132  1  0.107845  0.083446  -3.5e-05  1.031145  0.0
H  H14  1  0.81255395  0.94257900  0.90552808  1  0.107851  0.083462  -3.5e-05  1.031118  0.0
H  H15  1  0.02312503  0.88095434  0.08981695  1  0.106455  0.084562  -0.000101  1.016931  0.0
H  H16  1  0.97687291  0.11904626  0.91018024  1  0.106469  0.084562  -0.000101  1.016953  0.0
H  H17  1  0.95784097  0.59969993  0.22063155  1  0.131366  0.10786  -0.00028  1.079898  0.0
H  H18  1  0.04216181  0.40030187  0.77937176  1  0.13141  0.107945  -0.00028  1.079913  0.0
H  H19  1  0.47623724  0.60558463  0.50614407  1  0.117097  0.104787  -0.000349  1.046469  0.0
H  H20  1  0.52376756  0.39441836  0.49385702  1  0.11711  0.104829  -0.000349  1.046458  0.0
H  H21  1  0.57915371  0.69312753  0.29108952  1  0.121238  0.130467  -0.000192  1.030572  0.0
H  H22  1  0.42084441  0.30686842  0.70890710  1  0.121234  0.13046  -0.000192  1.030531  0.0
H  H23  1  0.17856934  0.30633981  0.25573299  1  0.130284  0.09448  -0.000246  1.055035  0.0
H  H24  1  0.82143000  0.69366080  0.74426837  1  0.130278  0.094463  -0.000246  1.055072  0.0
H  H25  1  0.83665004  0.15186148  0.49798981  1  0.116567  0.104434  -6.8e-05  1.041612  0.0
H  H26  1  0.16335626  0.84813919  0.50201468  1  0.116556  0.10443  -6.8e-05  1.041627  0.0
H  H27  1  0.91452851  0.91095695  0.32586356  1  0.11892  0.119692  -8.1e-05  1.051972  0.0
H  H28  1  0.08547435  0.08904253  0.67413700  1  0.118923  0.119709  -8.1e-05  1.05197  0.0
C  C29  1  0.24434790  0.69881838  0.09544034  1  -0.054727  -0.072302  -0.000193  3.864454  0.0
C  C30  1  0.75565078  0.30118106  0.90455854  1  -0.05471  -0.072318  -0.000193  3.864492  0.0
C  C31  1  0.38659795  0.86871635  0.14290136  1  -0.163859  -0.16525  -2.3e-05  3.926975  0.0
C  C32  1  0.61339869  0.13128191  0.85709581  1  -0.163857  -0.165212  -2.3e-05  3.92712  0.0
C  C33  1  0.33725836  0.98839557  0.24965415  1  -0.165115  -0.164632  -0.000116  3.925018  0.0
C  C34  1  0.66273893  0.01160386  0.75034352  1  -0.165176  -0.164765  -0.000116  3.925097  0.0
C  C35  1  0.14816970  0.99840605  0.16373758  1  -0.057052  -0.070295  -0.000163  3.883186  0.0
C  C36  1  0.85182898  0.00159339  0.83626032  1  -0.057039  -0.070284  -0.000163  3.883228  0.0
C  C37  1  0.11051117  0.61001036  0.27063888  1  0.139582  0.063273  0.005494  3.87593  0.005
C  C38  1  0.88949160  0.38999144  0.72936345  1  0.139515  0.063149  0.005495  3.875965  0.005
C  C39  1  0.38384370  0.61751629  0.41578235  1  -0.002509  -0.054462  0.000948  3.997267  0.002
C  C40  1  0.61615907  0.38248551  0.58421998  1  -0.002508  -0.054526  0.000949  3.997412  0.002
C  C41  1  0.43842558  0.66433279  0.31274776  1  -0.000375  -0.104773  0.000475  3.903638  0.0
C  C42  1  0.56157727  0.33566669  0.68725182  1  -0.000363  -0.104721  0.000475  3.90357  0.0
C  C43  1  0.09502093  0.23503056  0.30043652  1  0.137199  0.072188  -0.004122  3.878751  -0.002
C  C44  1  0.90497777  0.76496888  0.69956532  1  0.137165  0.072164  -0.004124  3.878689  -0.002
C  C45  1  0.92114200  0.14985315  0.42399482  1  -0.002388  -0.046474  -0.000319  3.9991  0.001
C  C46  1  0.07886290  0.85014751  0.57600845  1  -0.002384  -0.046492  -0.00032  3.999095  0.001
C  C47  1  0.95888057  0.02986043  0.34060200  1  -0.002927  -0.117216  -0.000191  3.946975  0.0
C  C48  1  0.04112016  0.97014019  0.65939959  1  -0.002916  -0.117254  -0.000191  3.947002  0.0
C  C49  1  0.40008705  0.62542079  0.77621153  1  0.287792  0.402277  -0.011532  4.256637  -0.008
C  C50  1  0.59991303  0.37457867  0.22378956  1  0.28777  0.402168  -0.011532  4.256621  -0.008
C  C51  1  0.65021547  0.66514067  0.99208258  1  0.276307  0.408909  -0.002328  4.33426  -0.001
C  C52  1  0.34978461  0.33485879  0.00791752  1  0.276296  0.408899  -0.002328  4.334153  -0.001
N  N53  1  0.26414789  0.66000157  0.22278055  1  -0.245009  0.049291  0.001915  3.766996  0.002
N  N54  1  0.73585219  0.33999789  0.77722054  1  -0.244992  0.049311  0.001915  3.767003  0.002
N  N55  1  0.17853447  0.58296519  0.38818912  1  -0.345095  -0.221705  -0.007465  3.565007  -0.013
N  N56  1  0.82146821  0.41703893  0.61181299  1  -0.345135  -0.221691  -0.007465  3.565182  -0.013
N  N57  1  0.06838726  0.08517761  0.26286356  1  -0.245631  0.048444  -0.001764  3.77435  -0.001
N  N58  1  0.93161346  0.91482301  0.73713606  1  -0.245595  0.048521  -0.001765  3.774285  -0.001
N  N59  1  0.00693709  0.27756169  0.39847133  1  -0.325559  -0.206751  -0.007826  3.527727  -0.012
N  N60  1  0.99306299  0.72243776  0.60152976  1  -0.325555  -0.206697  -0.007827  3.527758  -0.012
N  N61  1  0.58010550  0.69731646  0.88407224  1  -0.323606  -0.41477  -0.000173  3.639706  0.001
N  N62  1  0.41989264  0.30267948  0.11592833  1  -0.323567  -0.414708  -0.000173  3.639553  0.001
N  N63  1  0.24818673  0.57747900  0.67119552  1  -0.411567  -0.49234  -0.010629  3.487967  -0.007
N  N64  1  0.75181114  0.42252393  0.32880836  1  -0.411536  -0.492207  -0.010629  3.487794  -0.007
N  N65  1  0.73705965  0.65367267  0.09808671  1  -0.383809  -0.569684  -0.00215  2.893297  -0.001
N  N66  1  0.26293905  0.34632677  0.90191415  1  -0.383819  -0.569697  -0.00215  2.893311  -0.001
