# generated using pymatgen
data_ZnH15C15N3O5
_symmetry_space_group_name_H-M   'P 1'
_cell_length_a   7.79264305
_cell_length_b   8.98648799
_cell_length_c   11.01741802
_cell_angle_alpha   86.00587275
_cell_angle_beta   79.38795057
_cell_angle_gamma   81.19935059
_symmetry_Int_Tables_number   1
_chemical_formula_structural   ZnH15C15N3O5
_chemical_formula_sum   'Zn2 H30 C30 N6 O10'
_cell_volume   748.72559387
_cell_formula_units_Z   2
loop_
 _symmetry_equiv_pos_site_id
 _symmetry_equiv_pos_as_xyz
  1  'x, y, z'
loop_
 _atom_site_type_symbol
 _atom_site_label
 _atom_site_symmetry_multiplicity
 _atom_site_fract_x
 _atom_site_fract_y
 _atom_site_fract_z
 _atom_site_occupancy
 _atom_site_hle17_bader_spin_density
 _atom_site_hle17_ddec_charge
 _atom_site_hle17_ddec_spin_density
 _atom_site_hle17_ddec_sum_bond_order
 _atom_site_hle17_magmom
 _atom_site_hse06_10hf_bader_spin_density
 _atom_site_hse06_10hf_ddec_charge
 _atom_site_hse06_10hf_ddec_spin_density
 _atom_site_hse06_10hf_ddec_sum_bond_order
 _atom_site_hse06_10hf_magmom
 _atom_site_hse06_bader_spin_density
 _atom_site_hse06_ddec_charge
 _atom_site_hse06_ddec_spin_density
 _atom_site_hse06_ddec_sum_bond_order
 _atom_site_hse06_magmom
 _atom_site_pbe_bader_spin_density
 _atom_site_pbe_cm5_charge
 _atom_site_pbe_ddec_charge
 _atom_site_pbe_ddec_spin_density
 _atom_site_pbe_ddec_sum_bond_order
 _atom_site_pbe_magmom
Zn  Zn0  1  0.37066161  0.38941892  0.42111529  1  0  1.048716  0  1.819566  0  0  0.854071  0  2.295784  0  0  0.906999  0  2.234625  0  0  0.683441  0.816699  0  2.338083  0
Zn  Zn1  1  0.62934063  0.61057677  0.57888083  1  0  1.048601  0  1.819595  0  0  0.854006  0  2.295802  0  0  0.906936  0  2.234648  0  0  0.683424  0.816634  0  2.338099  0
H  H2  1  0.44598267  0.09859091  0.55654197  1  0  0.088236  0  0.949471  0  0  0.09636  0  1.014699  0  0  0.099242  0  1.01215  0  0  0.117372  0.094349  0  1.016583  0
H  H3  1  0.55401717  0.90140363  0.44345454  1  0  0.088171  0  0.949648  0  0  0.096349  0  1.0148  0  0  0.099232  0  1.012251  0  0  0.117391  0.094338  0  1.016683  0
H  H4  1  0.32981117  0.95199190  0.74651111  1  0  0.111133  0  0.958617  0  0  0.119392  0  1.020578  0  0  0.122824  0  1.018709  0  0  0.108176  0.116914  0  1.022245  0
H  H5  1  0.67018957  0.04800497  0.25348966  1  0  0.11114  0  0.958591  0  0  0.119379  0  1.020573  0  0  0.122809  0  1.018707  0  0  0.108164  0.116902  0  1.022239  0
H  H6  1  0.08095412  0.07611389  0.90083490  1  0  0.129121  0  0.977128  0  0  0.136141  0  1.038589  0  0  0.14021  0  1.035029  0  0  0.112818  0.133207  0  1.04117  0
H  H7  1  0.91904972  0.92388756  0.09916698  1  0  0.129171  0  0.977047  0  0  0.136177  0  1.038524  0  0  0.140243  0  1.034973  0  0  0.112834  0.133242  0  1.041105  0
H  H8  1  0.07960301  0.47449627  0.65737309  1  0  0.111289  0  0.952212  0  0  0.117284  0  1.017452  0  0  0.12048  0  1.014658  0  0  0.122036  0.114986  0  1.019452  0
H  H9  1  0.92040254  0.52550289  0.34262599  1  0  0.111261  0  0.952232  0  0  0.117237  0  1.017505  0  0  0.120431  0  1.01471  0  0  0.122028  0.114938  0  1.019504  0
H  H10  1  0.89641369  0.48247947  0.83937023  1  0  0.311341  0  0.927297  0  0  0.290156  0  0.997512  0  0  0.298153  0  0.991125  0  0  0.307329  0.284465  0  1.0021  0
H  H11  1  0.10359132  0.51752981  0.16062553  1  0  0.311446  0  0.927136  0  0  0.29023  0  0.997406  0  0  0.29823  0  0.991005  0  0  0.307351  0.284539  0  1.001996  0
H  H12  1  0.65032514  0.28045456  0.20506646  1  0  0.090444  0  0.95492  0  0  0.095142  0  1.024094  0  0  0.098731  0  1.020069  0  0  0.119797  0.092247  0  1.027466  0
H  H13  1  0.34967547  0.71955017  0.79493109  1  0  0.090387  0  0.954938  0  0  0.095133  0  1.02406  0  0  0.098725  0  1.02003  0  0  0.119798  0.09221  0  1.027459  0
H  H14  1  0.35943443  0.70195031  0.26547405  1  0  0.078839  0  0.948968  0  0  0.088758  0  1.011227  0  0  0.090932  0  1.009435  0  0  0.116796  0.087138  0  1.012522  0
H  H15  1  0.64055549  0.29804875  0.73453164  1  0  0.078818  0  0.949152  0  0  0.088804  0  1.011354  0  0  0.090978  0  1.009561  0  0  0.116802  0.087184  0  1.012645  0
H  H16  1  0.52627354  0.81169685  0.07271694  1  0  0.098523  0  0.955045  0  0  0.110551  0  1.010863  0  0  0.113291  0  1.010932  0  0  0.107324  0.108238  0  1.011603  0
H  H17  1  0.47370944  0.18830435  0.92728591  1  0  0.098497  0  0.955083  0  0  0.11051  0  1.010921  0  0  0.113249  0  1.010996  0  0  0.107331  0.108198  0  1.011657  0
H  H18  1  0.76218185  0.64419118  0.94023747  1  0  0.102866  0  0.993258  0  0  0.114608  0  1.052228  0  0  0.117393  0  1.050212  0  0  0.111376  0.112533  0  1.053668  0
H  H19  1  0.23780952  0.35582140  0.05976351  1  0  0.102827  0  0.993254  0  0  0.114631  0  1.052154  0  0  0.117416  0  1.050137  0  0  0.111359  0.112556  0  1.053594  0
H  H20  1  0.82404196  0.07197347  0.53853070  1  0  0.132738  0  0.954105  0  0  0.152451  0  1.015716  0  0  0.154416  0  1.01565  0  0  0.098243  0.150976  0  1.015832  0
H  H21  1  0.17596208  0.92802681  0.46146850  1  0  0.132762  0  0.954144  0  0  0.152475  0  1.015753  0  0  0.154441  0  1.015686  0  0  0.098249  0.150999  0  1.015872  0
H  H22  1  0.00649273  0.17649151  0.52146599  1  0  0.137207  0  0.965245  0  0  0.152766  0  1.027563  0  0  0.154616  0  1.028777  0  0  0.09375  0.151425  0  1.02676  0
H  H23  1  0.99351260  0.82350876  0.47853122  1  0  0.137232  0  0.965208  0  0  0.152785  0  1.027528  0  0  0.154633  0  1.028744  0  0  0.093745  0.151444  0  1.026727  0
H  H24  1  0.92199417  0.13101736  0.38976681  1  0  0.141251  0  0.943297  0  0  0.164199  0  0.996357  0  0  0.165634  0  0.997472  0  0  0.101408  0.163012  0  0.995816  0
H  H25  1  0.07800677  0.86897836  0.61023220  1  0  0.141318  0  0.943266  0  0  0.164249  0  0.99634  0  0  0.165684  0  0.997454  0  0  0.101414  0.163061  0  0.995798  0
H  H26  1  0.11419228  0.09710973  0.14706435  1  0  0.144745  0  0.966601  0  0  0.159759  0  1.030869  0  0  0.162612  0  1.02974  0  0  0.094834  0.157632  0  1.031785  0
H  H27  1  0.88580365  0.90288479  0.85293449  1  0  0.144754  0  0.966615  0  0  0.159766  0  1.030878  0  0  0.162619  0  1.029747  0  0  0.094833  0.15764  0  1.031792  0
H  H28  1  0.23596274  0.97902584  0.25026258  1  0  0.127832  0  0.953219  0  0  0.148755  0  1.012763  0  0  0.150895  0  1.012467  0  0  0.093418  0.147203  0  1.012975  0
H  H29  1  0.76403319  0.02096866  0.74973536  1  0  0.127781  0  0.953085  0  0  0.148687  0  1.012662  0  0  0.150829  0  1.012362  0  0  0.093369  0.14713  0  1.01288  0
H  H30  1  0.34971831  0.06891955  0.11913972  1  0  0.123277  0  0.943738  0  0  0.145126  0  1.00226  0  0  0.147533  0  1.001032  0  0  0.094238  0.143192  0  1.003699  0
H  H31  1  0.65027673  0.93107271  0.88085940  1  0  0.123322  0  0.943672  0  0  0.145127  0  1.002235  0  0  0.147534  0  1.001007  0  0  0.094225  0.143193  0  1.003674  0
C  C32  1  0.33666024  0.14800177  0.62477136  1  0  0.102461  0  3.716767  0  0  0.067297  0  3.973209  0  0  0.072232  0  3.993205  0  0  0.035043  0.063673  0  3.960188  0
C  C33  1  0.66334221  0.85199284  0.37522843  1  0  0.102474  0  3.716967  0  0  0.067253  0  3.973426  0  0  0.072201  0  3.993396  0  0  0.035034  0.063628  0  3.960406  0
C  C34  1  0.27106638  0.06798562  0.73102990  1  0  -0.103983  0  3.765104  0  0  -0.115046  0  4.020064  0  0  -0.121002  0  4.04257  0  0  -0.085371  -0.111229  0  4.005026  0
C  C35  1  0.72893326  0.93201011  0.26897109  1  0  -0.103873  0  3.765101  0  0  -0.114922  0  4.020079  0  0  -0.120882  0  4.042594  0  0  -0.085314  -0.111103  0  4.00504  0
C  C36  1  0.13281997  0.13678022  0.81694484  1  0  -0.116761  0  3.684113  0  0  -0.142733  0  3.932194  0  0  -0.143235  0  3.950895  0  0  -0.075798  -0.141855  0  3.919203  0
C  C37  1  0.86717754  0.86321995  0.18305252  1  0  -0.116885  0  3.684072  0  0  -0.142823  0  3.932161  0  0  -0.143328  0  3.95086  0  0  -0.075857  -0.141946  0  3.919172  0
C  C38  1  0.06396921  0.28754562  0.79306278  1  0  0.207766  0  3.76426  0  0  0.206602  0  4.009964  0  0  0.210301  0  4.032975  0  0  0.102745  0.203841  0  3.994319  0
C  C39  1  0.93603573  0.71245695  0.20693797  1  0  0.207905  0  3.764299  0  0  0.206692  0  4.010048  0  0  0.210389  0  4.033061  0  0  0.102849  0.20393  0  3.994403  0
C  C40  1  0.13437434  0.35959561  0.68121765  1  0  0.04485  0  3.632541  0  0  0.007826  0  3.886453  0  0  0.013019  0  3.902294  0  0  0.047818  0.004313  0  3.87575  0
C  C41  1  0.86563100  0.64040469  0.31878229  1  0  0.044874  0  3.632583  0  0  0.007868  0  3.886498  0  0  0.013065  0  3.90234  0  0  0.047819  0.004356  0  3.875793  0
C  C42  1  0.85002151  0.32886842  0.98814570  1  0  0.539623  0  3.832462  0  0  0.491124  0  4.122061  0  0  0.520642  0  4.122384  0  0  0.241493  0.47139  0  4.121098  0
C  C43  1  0.14998735  0.67113425  0.01185906  1  0  0.539399  0  3.832975  0  0  0.49097  0  4.122484  0  0  0.520485  0  4.122814  0  0  0.241479  0.471235  0  4.121517  0
C  C44  1  0.72002260  0.44600661  0.05998908  1  0  -0.111685  0  3.74775  0  0  -0.087632  0  3.988637  0  0  -0.099055  0  4.012094  0  0  -0.012985  -0.080467  0  3.972905  0
C  C45  1  0.27997762  0.55400044  0.94001291  1  0  -0.111825  0  3.748125  0  0  -0.087765  0  3.988993  0  0  -0.099193  0  4.012455  0  0  -0.013055  -0.080597  0  3.973253  0
C  C46  1  0.62433605  0.39715573  0.17215136  1  0  0.135217  0  3.652158  0  0  0.095399  0  3.89772  0  0  0.104131  0  3.914181  0  0  0.059919  0.089848  0  3.886859  0
C  C47  1  0.37566196  0.60284900  0.82784834  1  0  0.135288  0  3.65236  0  0  0.095444  0  3.8979  0  0  0.104173  0  3.914362  0  0  0.059953  0.089914  0  3.887046  0
C  C48  1  0.46427667  0.63311047  0.20599842  1  0  0.139777  0  3.696073  0  0  0.102205  0  3.956197  0  0  0.110585  0  3.974165  0  0  0.049696  0.096794  0  3.943864  0
C  C49  1  0.53571482  0.36689418  0.79400125  1  0  0.139561  0  3.696294  0  0  0.101909  0  3.956462  0  0  0.110288  0  3.974432  0  0  0.049591  0.096499  0  3.94413  0
C  C50  1  0.55651028  0.69260380  0.09803245  1  0  -0.12412  0  3.756243  0  0  -0.134168  0  4.013128  0  0  -0.143223  0  4.036359  0  0  -0.084463  -0.128342  0  3.997603  0
C  C51  1  0.44348162  0.30739860  0.90196732  1  0  -0.123953  0  3.756121  0  0  -0.133988  0  4.013068  0  0  -0.143043  0  4.036301  0  0  -0.084448  -0.128162  0  3.997544  0
C  C52  1  0.68727908  0.59864938  0.02431422  1  0  -0.018311  0  3.685995  0  0  -0.052676  0  3.938558  0  0  -0.047045  0  3.956646  0  0  -0.066239  -0.055814  0  3.925905  0
C  C53  1  0.31271701  0.40135870  0.97568461  1  0  -0.01829  0  3.686021  0  0  -0.052692  0  3.938546  0  0  -0.047059  0  3.956634  0  0  -0.066232  -0.05583  0  3.925895  0
C  C54  1  0.75698106  0.30590727  0.49453948  1  0  0.769713  0  3.821372  0  0  0.722541  0  4.119095  0  0  0.758108  0  4.108806  0  0  0.219204  0.698275  0  4.125189  0
C  C55  1  0.24302208  0.69409072  0.50545818  1  0  0.769772  0  3.821259  0  0  0.722564  0  4.119011  0  0  0.758131  0  4.10872  0  0  0.219183  0.698299  0  4.125106  0
C  C56  1  0.88770328  0.16341956  0.48625047  1  0  -0.460195  0  3.651741  0  0  -0.535163  0  3.88269  0  0  -0.542817  0  3.886321  0  0  -0.250127  -0.529539  0  3.879902  0
C  C57  1  0.11230096  0.83657958  0.51374788  1  0  -0.46033  0  3.651762  0  0  -0.535299  0  3.882729  0  0  -0.542953  0  3.886359  0  0  -0.250139  -0.529675  0  3.879944  0
C  C58  1  0.23517477  0.21773558  0.26505194  1  0  0.7342  0  3.868379  0  0  0.694157  0  4.163562  0  0  0.726953  0  4.157113  0  0  0.202592  0.671977  0  4.166745  0
C  C59  1  0.76482186  0.78226239  0.73495021  1  0  0.734357  0  3.868124  0  0  0.694293  0  4.163332  0  0  0.72709  0  4.15688  0  0  0.202632  0.672112  0  4.166516  0
C  C60  1  0.23081542  0.08243237  0.19117731  1  0  -0.45655  0  3.660339  0  0  -0.531508  0  3.891007  0  0  -0.538562  0  3.893655  0  0  -0.24956  -0.52639  0  3.889165  0
C  C61  1  0.76918011  0.91756444  0.80882416  1  0  -0.456583  0  3.660172  0  0  -0.531459  0  3.890824  0  0  -0.538511  0  3.893467  0  0  -0.249487  -0.526339  0  3.888992  0
N  N62  1  0.26742542  0.29154257  0.60002795  1  0  -0.321543  0  3.317316  0  0  -0.242299  0  3.587465  0  0  -0.260695  0  3.605703  0  0  -0.322576  -0.229404  0  3.574733  0
N  N63  1  0.73257442  0.70845202  0.39997219  1  0  -0.321563  0  3.317358  0  0  -0.242261  0  3.587436  0  0  -0.260667  0  3.605684  0  0  -0.322595  -0.229367  0  3.574703  0
N  N64  1  0.93183085  0.37423858  0.87335700  1  0  -0.448447  0  3.342392  0  0  -0.392016  0  3.580972  0  0  -0.415666  0  3.592472  0  0  -0.391047  -0.375819  0  3.572682  0
N  N65  1  0.06817197  0.62576850  0.12664464  1  0  -0.448575  0  3.342692  0  0  -0.392139  0  3.581294  0  0  -0.415785  0  3.592792  0  0  -0.391131  -0.375942  0  3.573005  0
N  N66  1  0.49958614  0.48781471  0.24370641  1  0  -0.322041  0  3.252247  0  0  -0.245857  0  3.52395  0  0  -0.264851  0  3.540191  0  0  -0.31457  -0.23305  0  3.51291  0
N  N67  1  0.50040536  0.51218996  0.75629508  1  0  -0.321778  0  3.252264  0  0  -0.245583  0  3.52396  0  0  -0.264577  0  3.54021  0  0  -0.314456  -0.232775  0  3.512907  0
O  O68  1  0.87720718  0.19854406  0.03290540  1  0  -0.533201  0  1.931485  0  0  -0.485516  0  2.14688  0  0  -0.506427  0  2.141402  0  0  -0.283248  -0.471155  0  2.150523  0
O  O69  1  0.12280649  0.80146093  0.96709947  1  0  -0.533  0  1.931583  0  0  -0.485393  0  2.147001  0  0  -0.506303  0  2.141525  0  0  -0.283244  -0.471029  0  2.150637  0
O  O70  1  0.62100662  0.30550373  0.44703028  1  0  -0.670074  0  2.098091  0  0  -0.602407  0  2.384192  0  0  -0.630664  0  2.367734  0  0  -0.32511  -0.582597  0  2.394776  0
O  O71  1  0.37899590  0.69449761  0.55296542  1  0  -0.670064  0  2.097997  0  0  -0.602427  0  2.384127  0  0  -0.630687  0  2.36767  0  0  -0.325094  -0.582618  0  2.39471  0
O  O72  1  0.79105223  0.41522084  0.55025054  1  0  -0.646031  0  2.054788  0  0  -0.57051  0  2.325748  0  0  -0.598681  0  2.309047  0  0  -0.315151  -0.551013  0  2.336795  0
O  O73  1  0.20894742  0.58477489  0.44975046  1  0  -0.646106  0  2.05494  0  0  -0.570429  0  2.325738  0  0  -0.598601  0  2.309039  0  0  -0.315137  -0.550932  0  2.336786  0
O  O74  1  0.34644526  0.19955877  0.33959265  1  0  -0.663761  0  2.025892  0  0  -0.59173  0  2.292076  0  0  -0.621873  0  2.280355  0  0  -0.331925  -0.570378  0  2.299384  0
O  O75  1  0.65355789  0.80043926  0.66040864  1  0  -0.663803  0  2.025791  0  0  -0.591785  0  2.292009  0  0  -0.621928  0  2.280291  0  0  -0.331963  -0.570432  0  2.299314  0
O  O76  1  0.13573320  0.33967080  0.24954997  1  0  -0.654467  0  1.937915  0  0  -0.603473  0  2.165941  0  0  -0.626199  0  2.15589  0  0  -0.332701  -0.587335  0  2.172346  0
O  O77  1  0.86426815  0.66032264  0.75044733  1  0  -0.654485  0  1.937727  0  0  -0.603508  0  2.165807  0  0  -0.626235  0  2.155756  0  0  -0.332697  -0.587371  0  2.172213  0
