# generated using pymatgen
data_CdH14C22(NO)4
_symmetry_space_group_name_H-M   'P 1'
_cell_length_a   7.95432840
_cell_length_b   18.82131600
_cell_length_c   19.08536760
_cell_angle_alpha   89.99963813
_cell_angle_beta   90.00022823
_cell_angle_gamma   100.34603888
_symmetry_Int_Tables_number   1
_chemical_formula_structural   CdH14C22(NO)4
_chemical_formula_sum   'Cd4 H56 C88 N16 O16'
_cell_volume   2810.83159036
_cell_formula_units_Z   4
loop_
 _symmetry_equiv_pos_site_id
 _symmetry_equiv_pos_as_xyz
  1  'x, y, z'
loop_
 _atom_site_type_symbol
 _atom_site_label
 _atom_site_symmetry_multiplicity
 _atom_site_fract_x
 _atom_site_fract_y
 _atom_site_fract_z
 _atom_site_occupancy
 _atom_site_pbe_bader_charge
 _atom_site_pbe_bader_spin_density
 _atom_site_pbe_cm5_charge
 _atom_site_pbe_ddec_charge
 _atom_site_pbe_ddec_spin_density
 _atom_site_pbe_ddec_sum_bond_order
 _atom_site_pbe_magmom
Cd  Cd0  1  0.30075238  0.99468661  0.06040939  1  1.271768  0  0.786302  0.896671  0  2.130788  0
Cd  Cd1  1  0.69925276  0.50531419  0.56040792  1  1.271709  0  0.786275  0.896525  0  2.130945  0
Cd  Cd2  1  0.69927675  0.00531349  0.93958740  1  1.271553  0  0.786274  0.896554  0  2.130893  0
Cd  Cd3  1  0.30075442  0.49468753  0.43958993  1  1.271863  0  0.786282  0.896603  0  2.130837  0
H  H4  1  0.85775432  0.29617937  0.43277690  1  0.102542  0  0.110979  0.116106  0  0.989407  0
H  H5  1  0.14225897  0.20381520  0.93277638  1  0.102593  0  0.110979  0.116121  0  0.989552  0
H  H6  1  0.14225001  0.70382450  0.56722514  1  0.102573  0  0.110965  0.116078  0  0.989517  0
H  H7  1  0.85775450  0.79618651  0.06722618  1  0.102467  0  0.110976  0.116069  0  0.989558  0
H  H8  1  0.80384049  0.19980851  0.34051851  1  0.083379  0  0.107477  0.114638  0  0.99543  0
H  H9  1  0.19616634  0.30018768  0.84051696  1  0.083563  0  0.107463  0.114565  0  0.99532  0
H  H10  1  0.19616819  0.80019374  0.65948457  1  0.083404  0  0.107475  0.114658  0  0.995333  0
H  H11  1  0.80384508  0.69981512  0.15948507  1  0.083696  0  0.107447  0.114576  0  0.995423  0
H  H12  1  0.47884353  0.39787457  0.33195190  1  0.1439  0  0.1126  0.089061  0  1.052473  0
H  H13  1  0.52113740  0.10211411  0.83194218  1  0.144237  0  0.112577  0.088999  0  1.052478  0
H  H14  1  0.52115771  0.60212498  0.66804542  1  0.143913  0  0.112616  0.089045  0  1.052502  0
H  H15  1  0.47885218  0.89788167  0.16805514  1  0.144233  0  0.112565  0.089058  0  1.052428  0
H  H16  1  0.69524305  0.11019606  0.27426061  1  0.055426  0  0.11023  0.115072  0  0.996866  0
H  H17  1  0.30476079  0.38980052  0.77425816  1  0.055066  0  0.110249  0.115109  0  0.996968  0
H  H18  1  0.30475498  0.88980187  0.72573880  1  0.055118  0  0.110222  0.115054  0  0.996878  0
H  H19  1  0.69525279  0.61019849  0.22573968  1  0.054877  0  0.110221  0.115043  0  0.99692  0
H  H20  1  0.58888914  0.02170568  0.18121779  1  0.083252  0  0.119667  0.091628  0  0.998011  0
H  H21  1  0.41112024  0.47829414  0.68121916  1  0.083263  0  0.119654  0.091618  0  0.997978  0
H  H22  1  0.41110078  0.97829387  0.81878058  1  0.083281  0  0.119666  0.091634  0  0.997975  0
H  H23  1  0.58888317  0.52170163  0.31877502  1  0.083222  0  0.119659  0.091641  0  0.997991  0
H  H24  1  0.30498272  0.16019075  0.08883483  1  0.134946  0  0.115111  0.091285  0  1.014804  0
H  H25  1  0.69500648  0.33980800  0.58882916  1  0.135092  0  0.115071  0.091211  0  1.014775  0
H  H26  1  0.69501179  0.83981367  0.91116773  1  0.135245  0  0.115094  0.091326  0  1.014656  0
H  H27  1  0.30498332  0.66018237  0.41116345  1  0.135111  0  0.115116  0.091317  0  1.014843  0
H  H28  1  0.39885578  0.25567232  0.17905399  1  0.165119  0  0.109372  0.115043  0  1.041676  0
H  H29  1  0.60112969  0.24432158  0.67904352  1  0.164475  0  0.109385  0.115048  0  1.041666  0
H  H30  1  0.60114718  0.74432832  0.82095067  1  0.165076  0  0.109359  0.115014  0  1.041666  0
H  H31  1  0.39886102  0.75567095  0.32095014  1  0.165107  0  0.109349  0.115002  0  1.041635  0
H  H32  1  0.16852698  0.56430414  0.78369038  1  0.095588  0  0.10707  0.109089  0  0.986751  0
H  H33  1  0.83146907  0.93569697  0.28369994  1  0.095766  0  0.10703  0.109055  0  0.986705  0
H  H34  1  0.83146202  0.43569325  0.21630903  1  0.095493  0  0.10705  0.109034  0  0.986789  0
H  H35  1  0.16853525  0.06430691  0.71631101  1  0.095552  0  0.107075  0.109102  0  0.98676  0
H  H36  1  0.25782789  0.65864829  0.87654507  1  0.073116  0  0.104401  0.110884  0  1.000111  0
H  H37  1  0.74216377  0.84134634  0.37654668  1  0.073015  0  0.104326  0.110794  0  1.000075  0
H  H38  1  0.74217140  0.34134965  0.12345330  1  0.07307  0  0.10438  0.110871  0  1.000033  0
H  H39  1  0.25783804  0.15865160  0.62345693  1  0.073059  0  0.104345  0.110836  0  1.000039  0
H  H40  1  0.77425241  0.68112888  0.72385097  1  0.141163  0  0.108862  0.081552  0  1.047141  0
H  H41  1  0.22575741  0.81888230  0.22385656  1  0.140231  0  0.108902  0.081577  0  1.047012  0
H  H42  1  0.22573751  0.31887067  0.27615683  1  0.141087  0  0.10884  0.081548  0  1.047041  0
H  H43  1  0.77424898  0.18112644  0.77614495  1  0.141117  0  0.108852  0.081562  0  1.047121  0
H  H44  1  0.23303116  0.72043854  0.97592885  1  0.074195  0  0.105849  0.111141  0  1.001646  0
H  H45  1  0.76699332  0.77956307  0.47593193  1  0.074446  0  0.105904  0.111248  0  1.001579  0
H  H46  1  0.76698288  0.27956156  0.02407109  1  0.074281  0  0.105903  0.111251  0  1.001569  0
H  H47  1  0.23303010  0.22044135  0.52406958  1  0.074251  0  0.105885  0.111187  0  1.001692  0
H  H48  1  0.30943310  0.82752307  0.05403803  1  0.102569  0  0.114368  0.086062  0  1.008433  0
H  H49  1  0.69058252  0.67247884  0.55404230  1  0.102527  0  0.114382  0.086041  0  1.008444  0
H  H50  1  0.69057809  0.17247918  0.94596034  1  0.102519  0  0.114357  0.086052  0  1.008446  0
H  H51  1  0.30942787  0.32752450  0.44595869  1  0.102488  0  0.114352  0.086078  0  1.008377  0
H  H52  1  0.08663141  0.95663592  0.91898174  1  0.166665  0  0.115038  0.094851  0  1.027461  0
H  H53  1  0.91334900  0.54335792  0.41898236  1  0.167075  0  0.115029  0.094753  0  1.027588  0
H  H54  1  0.91337040  0.04336202  0.08101663  1  0.166627  0  0.11504  0.094809  0  1.027465  0
H  H55  1  0.08663577  0.45663840  0.58101444  1  0.166511  0  0.115065  0.094847  0  1.027491  0
H  H56  1  0.99495348  0.85480080  0.83740881  1  0.128718  0  0.11146  0.121278  0  1.010828  0
H  H57  1  0.00503517  0.64519351  0.33740831  1  0.128775  0  0.11145  0.121263  0  1.010828  0
H  H58  1  0.00504890  0.14519551  0.16259060  1  0.128522  0  0.111454  0.121307  0  1.010781  0
H  H59  1  0.99495395  0.35480118  0.66258744  1  0.128655  0  0.11143  0.12119  0  1.01089  0
C  C60  1  0.68547176  0.41056434  0.44607978  1  1.558385  0  0.200511  0.569041  0  4.220433  0
C  C61  1  0.31452882  0.08942961  0.94607608  1  1.558081  0  0.200465  0.568966  0  4.220333  0
C  C62  1  0.31452137  0.58943683  0.55391964  1  1.557812  0  0.200365  0.568954  0  4.220743  0
C  C63  1  0.68547093  0.91056940  0.05392229  1  1.558043  0  0.200447  0.568981  0  4.220484  0
C  C64  1  0.67056944  0.35404538  0.39023454  1  -0.01845  0  -0.011615  -0.069083  0  3.957628  0
C  C65  1  0.32942400  0.14594782  0.89022894  1  -0.018389  0  -0.011609  -0.069091  0  3.957803  0
C  C66  1  0.32942071  0.64595471  0.60976540  1  -0.018171  0  -0.011544  -0.068954  0  3.957526  0
C  C67  1  0.67057426  0.85405065  0.10977047  1  -0.01834  0  -0.011605  -0.069043  0  3.957631  0
C  C68  1  0.76331824  0.29756794  0.39157771  1  -0.091698  0  -0.062609  -0.042741  0  3.938606  0
C  C69  1  0.23668047  0.20242579  0.89157422  1  -0.091704  0  -0.062639  -0.042865  0  3.93892  0
C  C70  1  0.23668197  0.70243215  0.60842275  1  -0.091752  0  -0.062666  -0.042819  0  3.938764  0
C  C71  1  0.76332477  0.79757430  0.10842729  1  -0.09165  0  -0.062645  -0.042786  0  3.938787  0
C  C72  1  0.73206344  0.24397566  0.34034488  1  -0.004385  0  -0.083321  -0.169587  0  3.953421  0
C  C73  1  0.26793469  0.25601783  0.84034216  1  -0.004672  0  -0.083365  -0.16942  0  3.953312  0
C  C74  1  0.26794054  0.75602443  0.65965663  1  -0.004376  0  -0.083364  -0.169661  0  3.953451  0
C  C75  1  0.73206632  0.74398118  0.15965830  1  -0.004819  0  -0.083337  -0.169525  0  3.953417  0
C  C76  1  0.60767137  0.24788312  0.28887183  1  0.514117  0  0.120567  0.193089  0  4.001394  0
C  C77  1  0.39232149  0.25210798  0.78886514  1  0.514388  0  0.12052  0.192911  0  4.00156  0
C  C78  1  0.39233193  0.75211536  0.71112864  1  0.51413  0  0.12061  0.193164  0  4.001479  0
C  C79  1  0.60767883  0.74788942  0.21113375  1  0.514481  0  0.120664  0.193203  0  4.001338  0
C  C80  1  0.55415778  0.35493597  0.33523052  1  0.521192  0  0.050664  0.073716  0  3.961564  0
C  C81  1  0.44583334  0.14505593  0.83522303  1  0.520766  0  0.05068  0.073762  0  3.961663  0
C  C82  1  0.44584346  0.64506358  0.66476942  1  0.52133  0  0.050662  0.073735  0  3.961379  0
C  C83  1  0.55416149  0.85494038  0.16477429  1  0.521174  0  0.050701  0.073726  0  3.961614  0
C  C84  1  0.55659194  0.19178352  0.23450675  1  0.053193  0  0.013606  0.081038  0  3.959974  0
C  C85  1  0.44340261  0.30821275  0.73450138  1  0.053228  0  0.013621  0.081088  0  3.959734  0
C  C86  1  0.44340976  0.80821711  0.76549267  1  0.05315  0  0.013611  0.08097  0  3.959885  0
C  C87  1  0.55659417  0.69178518  0.26549437  1  0.053283  0  0.013654  0.081096  0  3.959652  0
C  C88  1  0.60910828  0.12451051  0.23446142  1  -0.006693  0  -0.081498  -0.167577  0  3.948034  0
C  C89  1  0.39089529  0.37548631  0.73445816  1  -0.006617  0  -0.081507  -0.167545  0  3.948098  0
C  C90  1  0.39089147  0.87548851  0.76553852  1  -0.006703  0  -0.081481  -0.167514  0  3.948097  0
C  C91  1  0.60911463  0.62451001  0.26553812  1  -0.006116  0  -0.0815  -0.16752  0  3.947851  0
C  C92  1  0.54947835  0.07424144  0.18267578  1  0.477603  0  0.049402  0.101114  0  3.95198  0
C  C93  1  0.45052784  0.42575675  0.68267492  1  0.477837  0  0.049374  0.100988  0  3.951908  0
C  C94  1  0.45051786  0.92575811  0.81732416  1  0.477905  0  0.049419  0.101085  0  3.952125  0
C  C95  1  0.54947808  0.57423902  0.31732030  1  0.477425  0  0.049371  0.10106  0  3.951993  0
C  C96  1  0.39253461  0.15200783  0.13084198  1  0.411489  0  0.04595  0.092068  0  3.947474  0
C  C97  1  0.60745945  0.34798959  0.63084030  1  0.411399  0  0.045958  0.092154  0  3.947636  0
C  C98  1  0.60746000  0.84799388  0.86915691  1  0.411075  0  0.045836  0.09185  0  3.94744  0
C  C99  1  0.39253322  0.65200456  0.36915597  1  0.41098  0  0.045916  0.092023  0  3.947326  0
C  C100  1  0.44600357  0.20494782  0.18054538  1  -0.046166  0  -0.078332  -0.155152  0  3.935463  0
C  C101  1  0.55398637  0.29504769  0.68053713  1  -0.045622  0  -0.078398  -0.15527  0  3.935642  0
C  C102  1  0.55399562  0.79505281  0.81945770  1  -0.0461  0  -0.078288  -0.155032  0  3.935454  0
C  C103  1  0.44600754  0.70494647  0.31945704  1  -0.046113  0  -0.078347  -0.155152  0  3.93539  0
C  C104  1  0.91046018  0.56280288  0.68763208  1  1.595182  0  0.189331  0.565197  0  4.2712  0
C  C105  1  0.08953934  0.93720851  0.18764195  1  1.5946  0  0.189398  0.565164  0  4.271526  0
C  C106  1  0.08952402  0.43719505  0.31237152  1  1.595027  0  0.189382  0.565288  0  4.271536  0
C  C107  1  0.91045540  0.06280238  0.81236690  1  1.595437  0  0.189337  0.565081  0  4.271377  0
C  C108  1  0.96525251  0.61565876  0.74643932  1  -0.042737  0  -0.014549  -0.069624  0  3.942958  0
C  C109  1  0.03474616  0.88435229  0.24644628  1  -0.042607  0  -0.014498  -0.069683  0  3.943098  0
C  C110  1  0.03473708  0.38434295  0.25356324  1  -0.042918  0  -0.014604  -0.06971  0  3.94295  0
C  C111  1  0.96525486  0.11565861  0.75355838  1  -0.042676  0  -0.014572  -0.069528  0  3.942737  0
C  C112  1  0.10083739  0.60926622  0.79107857  1  -0.066433  0  -0.068284  -0.048866  0  3.971816  0
C  C113  1  0.89916192  0.89073646  0.29108642  1  -0.066092  0  -0.068351  -0.048947  0  3.971781  0
C  C114  1  0.89915082  0.39073225  0.20892137  1  -0.066795  0  -0.068276  -0.048779  0  3.971548  0
C  C115  1  0.10084367  0.10926741  0.70892085  1  -0.066876  0  -0.06827  -0.048901  0  3.971677  0
C  C116  1  0.14868806  0.66130251  0.84273897  1  -0.032824  0  -0.088074  -0.17143  0  3.969082  0
C  C117  1  0.85131046  0.83869717  0.34274392  1  -0.03302  0  -0.088007  -0.170593  0  3.969594  0
C  C118  1  0.85131077  0.33869435  0.15726045  1  -0.032344  0  -0.088036  -0.170712  0  3.969559  0
C  C119  1  0.14869147  0.16130400  0.65726021  1  -0.032405  0  -0.088021  -0.17066  0  3.969644  0
C  C120  1  0.05967440  0.71907493  0.84834877  1  0.514114  0  0.111573  0.183847  0  4.023341  0
C  C121  1  0.94032588  0.78092580  0.34835371  1  0.513653  0  0.1116  0.181896  0  4.026119  0
C  C122  1  0.94032318  0.28092192  0.15165065  1  0.514376  0  0.111604  0.181861  0  4.026149  0
C  C123  1  0.05967605  0.21907538  0.65164780  1  0.513962  0  0.111572  0.181833  0  4.026269  0
C  C124  1  0.88257329  0.67475459  0.75675273  1  0.544606  0  0.045592  0.079728  0  3.954619  0
C  C125  1  0.11743071  0.82525693  0.25676019  1  0.545472  0  0.045572  0.07996  0  3.954303  0
C  C126  1  0.11741538  0.32524496  0.24324931  1  0.54537  0  0.045685  0.079858  0  3.954467  0
C  C127  1  0.88257237  0.17475288  0.74324237  1  0.544839  0  0.045606  0.079704  0  3.954564  0
C  C128  1  0.10778496  0.77882662  0.89899370  1  -0.019455  0  0.011127  0.081511  0  3.976332  0
C  C129  1  0.89221703  0.72117111  0.39899527  1  -0.019521  0  0.011068  0.081977  0  3.976856  0
C  C130  1  0.89222130  0.22117293  0.10100781  1  -0.01954  0  0.011129  0.082043  0  3.976799  0
C  C131  1  0.10778375  0.27882736  0.60100310  1  -0.019405  0  0.01106  0.082088  0  3.97638  0
C  C132  1  0.19780567  0.77173327  0.96117599  1  -0.0432  0  -0.089204  -0.183507  0  3.974106  0
C  C133  1  0.80220750  0.72826572  0.46117789  1  -0.043515  0  -0.089316  -0.183662  0  3.974137  0
C  C134  1  0.80220711  0.22826683  0.03882395  1  -0.043056  0  -0.089329  -0.183653  0  3.97394  0
C  C135  1  0.19780803  0.27173491  0.53881943  1  -0.043466  0  -0.089274  -0.183621  0  3.973966  0
C  C136  1  0.24117888  0.83114274  0.00500039  1  0.469722  0  0.039845  0.089259  0  3.973448  0
C  C137  1  0.75882668  0.66885730  0.50500271  1  0.469749  0  0.039863  0.089336  0  3.973421  0
C  C138  1  0.75882956  0.16885897  0.99499850  1  0.469622  0  0.039869  0.089326  0  3.973359  0
C  C139  1  0.24118108  0.33114280  0.49499618  1  0.469826  0  0.039874  0.089357  0  3.973347  0
C  C140  1  0.11569462  0.90349610  0.93071553  1  0.447948  0  0.051932  0.116623  0  3.930846  0
C  C141  1  0.88428930  0.59649983  0.43071576  1  0.447504  0  0.051939  0.116747  0  3.93075  0
C  C142  1  0.88430765  0.09650292  0.06928441  1  0.447959  0  0.05191  0.116692  0  3.930794  0
C  C143  1  0.11569788  0.40349918  0.56928103  1  0.44795  0  0.051956  0.116732  0  3.930848  0
C  C144  1  0.06506645  0.84649247  0.88479200  1  -0.010525  0  -0.076892  -0.156607  0  3.917893  0
C  C145  1  0.93492665  0.65350535  0.38479092  1  -0.010507  0  -0.076842  -0.156467  0  3.917556  0
C  C146  1  0.93493857  0.15350709  0.11520846  1  -0.010393  0  -0.076881  -0.156596  0  3.917734  0
C  C147  1  0.06506659  0.34649312  0.61520431  1  -0.01033  0  -0.076926  -0.15655  0  3.917661  0
N  N148  1  0.52301745  0.30385662  0.28630784  1  -1.211912  0  -0.310716  -0.285483  0  3.334505  0
N  N149  1  0.47697036  0.19613448  0.78630008  1  -1.211728  0  -0.310532  -0.285277  0  3.334691  0
N  N150  1  0.47698882  0.69614293  0.71369106  1  -1.212089  0  -0.310746  -0.285511  0  3.334517  0
N  N151  1  0.52302596  0.80386237  0.21369672  1  -1.212087  0  -0.310735  -0.285576  0  3.334681  0
N  N152  1  0.44238202  0.08726846  0.13168109  1  -1.219163  0  -0.327381  -0.236398  0  3.494514  0
N  N153  1  0.55762279  0.41273058  0.63167839  1  -1.219052  0  -0.327282  -0.236211  0  3.494252  0
N  N154  1  0.55761534  0.91273380  0.86831833  1  -1.21906  0  -0.327277  -0.236218  0  3.494391  0
N  N155  1  0.44237890  0.58726412  0.36831473  1  -1.218763  0  -0.327299  -0.236337  0  3.494204  0
N  N156  1  0.92769974  0.72523245  0.80567176  1  -1.222762  0  -0.31697  -0.300026  0  3.322047  0
N  N157  1  0.07231213  0.77477285  0.30567737  1  -1.222191  0  -0.316966  -0.299529  0  3.322417  0
N  N158  1  0.07230001  0.27476656  0.19433028  1  -1.223534  0  -0.316963  -0.2994  0  3.322606  0
N  N159  1  0.92769425  0.22522995  0.69432205  1  -1.222746  0  -0.316927  -0.29936  0  3.32274  0
N  N160  1  0.20266394  0.89613557  0.98980330  1  -1.215162  0  -0.330582  -0.237141  0  3.518065  0
N  N161  1  0.79732680  0.60386325  0.48980334  1  -1.215059  0  -0.330592  -0.237161  0  3.518056  0
N  N162  1  0.79733856  0.10386398  0.01019612  1  -1.215019  0  -0.330575  -0.237195  0  3.518026  0
N  N163  1  0.20266713  0.39613685  0.51019398  1  -1.215217  0  -0.330555  -0.237223  0  3.518055  0
O  O164  1  0.57776244  0.45350856  0.44613405  1  -1.163684  0  -0.330961  -0.585204  0  2.329081  0
O  O165  1  0.42223687  0.04648539  0.94613184  1  -1.163845  0  -0.330968  -0.585212  0  2.328919  0
O  O166  1  0.42221044  0.54648343  0.55387009  1  -1.163625  0  -0.330904  -0.585189  0  2.328976  0
O  O167  1  0.57776539  0.95351362  0.05386600  1  -1.163826  0  -0.330957  -0.585245  0  2.329108  0
O  O168  1  0.80099801  0.41331478  0.49258198  1  -1.168732  0  -0.317603  -0.544929  0  2.205205  0
O  O169  1  0.19901067  0.08668538  0.99258177  1  -1.168701  0  -0.317597  -0.54488  0  2.205093  0
O  O170  1  0.19901628  0.58669773  0.50741010  1  -1.168556  0  -0.317524  -0.544904  0  2.205387  0
O  O171  1  0.80099011  0.91331309  0.00741817  1  -1.168734  0  -0.317558  -0.544855  0  2.205164  0
O  O172  1  0.77844331  0.57520562  0.65345392  1  -1.161503  0  -0.342571  -0.582692  0  2.316858  0
O  O173  1  0.22154808  0.92480219  0.15345779  1  -1.161291  0  -0.342775  -0.58284  0  2.316803  0
O  O174  1  0.22153403  0.42478799  0.34655179  1  -1.161446  0  -0.342635  -0.582755  0  2.316867  0
O  O175  1  0.77845924  0.07521465  0.84654686  1  -1.16149  0  -0.342588  -0.582617  0  2.317048  0
O  O176  1  0.99224163  0.51324826  0.67539256  1  -1.184446  0  -0.337687  -0.564477  0  2.10245  0
O  O177  1  0.00776649  0.98676590  0.17540827  1  -1.184354  0  -0.337519  -0.564273  0  2.102801  0
O  O178  1  0.00774989  0.48674913  0.32460790  1  -1.184173  0  -0.337689  -0.564524  0  2.102799  0
O  O179  1  0.99221807  0.01324175  0.82460215  1  -1.184404  0  -0.337659  -0.564448  0  2.10264  0
