# generated using pymatgen
data_ZnH25C31N5O4
_symmetry_space_group_name_H-M   'P 1'
_cell_length_a   10.99564721
_cell_length_b   10.99615353
_cell_length_c   14.82180044
_cell_angle_alpha   91.53439356
_cell_angle_beta   112.18428124
_cell_angle_gamma   117.06265757
_symmetry_Int_Tables_number   1
_chemical_formula_structural   ZnH25C31N5O4
_chemical_formula_sum   'Zn2 H50 C62 N10 O8'
_cell_volume   1434.26161629
_cell_formula_units_Z   2
loop_
 _symmetry_equiv_pos_site_id
 _symmetry_equiv_pos_as_xyz
  1  'x, y, z'
loop_
 _atom_site_type_symbol
 _atom_site_label
 _atom_site_symmetry_multiplicity
 _atom_site_fract_x
 _atom_site_fract_y
 _atom_site_fract_z
 _atom_site_occupancy
 _atom_site_hle17_bader_spin_density
 _atom_site_hle17_ddec_charge
 _atom_site_hle17_ddec_spin_density
 _atom_site_hle17_ddec_sum_bond_order
 _atom_site_hle17_magmom
 _atom_site_hse06_10hf_bader_spin_density
 _atom_site_hse06_10hf_ddec_charge
 _atom_site_hse06_10hf_ddec_spin_density
 _atom_site_hse06_10hf_ddec_sum_bond_order
 _atom_site_hse06_10hf_magmom
 _atom_site_hse06_bader_spin_density
 _atom_site_hse06_ddec_charge
 _atom_site_hse06_ddec_spin_density
 _atom_site_hse06_ddec_sum_bond_order
 _atom_site_hse06_magmom
 _atom_site_pbe_bader_spin_density
 _atom_site_pbe_cm5_charge
 _atom_site_pbe_ddec_charge
 _atom_site_pbe_ddec_spin_density
 _atom_site_pbe_ddec_sum_bond_order
 _atom_site_pbe_magmom
Zn  Zn0  1  0.44016404  0.19035082  0.24998296  1  0  0.955742  0  1.922266  0  0  0.767984  0  2.390274  0  0  0.810871  0  2.34258  0  0  0.708924  0.738092  0  2.423154  0
Zn  Zn1  1  0.55983727  0.80964664  0.75001430  1  0  0.955765  0  1.922271  0  0  0.768019  0  2.390251  0  0  0.810898  0  2.342569  0  0  0.708942  0.738129  0  2.423135  0
H  H2  1  0.43043427  0.10911104  0.04294838  1  0  0.13265  0  0.93218  0  0  0.155344  0  0.98714  0  0  0.157112  0  0.986776  0  0  0.104566  0.154369  0  0.98714  0
H  H3  1  0.56600693  0.38787305  0.45712249  1  0  0.131785  0  0.933404  0  0  0.154683  0  0.988115  0  0  0.156416  0  0.987802  0  0  0.10436  0.153722  0  0.988082  0
H  H4  1  0.56956574  0.89086960  0.95704476  1  0  0.132725  0  0.932397  0  0  0.155444  0  0.987292  0  0  0.157212  0  0.98693  0  0  0.104619  0.154471  0  0.987291  0
H  H5  1  0.43399130  0.61212965  0.54287408  1  0  0.131796  0  0.933418  0  0  0.1547  0  0.988125  0  0  0.156433  0  0.987814  0  0  0.104385  0.153739  0  0.988093  0
H  H6  1  0.30726966  0.95354659  0.94323109  1  0  0.144094  0  0.954825  0  0  0.161358  0  1.016418  0  0  0.163836  0  1.015679  0  0  0.104307  0.159619  0  1.017129  0
H  H7  1  0.51007209  0.36433440  0.55681416  1  0  0.14464  0  0.954924  0  0  0.161525  0  1.01678  0  0  0.163954  0  1.016113  0  0  0.104624  0.159802  0  1.017472  0
H  H8  1  0.69272300  0.04643299  0.05676279  1  0  0.144116  0  0.954912  0  0  0.161394  0  1.016492  0  0  0.163876  0  1.015746  0  0  0.104317  0.159655  0  1.017204  0
H  H9  1  0.48992727  0.63567040  0.44318275  1  0  0.144588  0  0.954949  0  0  0.16146  0  1.016839  0  0  0.16389  0  1.016168  0  0  0.104585  0.159736  0  1.01753  0
H  H10  1  0.41959799  0.94918197  0.06635444  1  0  0.140327  0  0.929044  0  0  0.163269  0  0.982859  0  0  0.165866  0  0.981311  0  0  0.105249  0.161311  0  0.984206  0
H  H11  1  0.38254192  0.35344659  0.43364955  1  0  0.139858  0  0.929204  0  0  0.162245  0  0.983686  0  0  0.164833  0  0.982137  0  0  0.104936  0.160331  0  0.98498  0
H  H12  1  0.58039662  0.05079761  0.93363928  1  0  0.140424  0  0.929102  0  0  0.16335  0  0.98292  0  0  0.165956  0  0.981363  0  0  0.105314  0.161395  0  0.984262  0
H  H13  1  0.61745676  0.64655506  0.56634778  1  0  0.139886  0  0.929186  0  0  0.162276  0  0.983671  0  0  0.164865  0  0.982119  0  0  0.104951  0.160361  0  0.984968  0
H  H14  1  0.13660572  0.11748106  0.26321191  1  0  0.111083  0  0.94812  0  0  0.12278  0  1.006509  0  0  0.125421  0  1.00531  0  0  0.106584  0.120773  0  1.007686  0
H  H15  1  0.35484125  0.87407688  0.23694862  1  0  0.110833  0  0.948968  0  0  0.122264  0  1.007677  0  0  0.124982  0  1.006401  0  0  0.106722  0.120197  0  1.008922  0
H  H16  1  0.86340604  0.88251958  0.73678547  1  0  0.111089  0  0.947914  0  0  0.122769  0  1.006345  0  0  0.125412  0  1.005139  0  0  0.106582  0.120761  0  1.007525  0
H  H17  1  0.64516058  0.12592485  0.76305427  1  0  0.110819  0  0.948985  0  0  0.122262  0  1.007693  0  0  0.12498  0  1.006419  0  0  0.106723  0.120196  0  1.008937  0
H  H18  1  0.86507640  0.97235095  0.22955389  1  0  0.09556  0  0.968304  0  0  0.104969  0  1.031182  0  0  0.107855  0  1.029844  0  0  0.098976  0.102848  0  1.03224  0
H  H19  1  0.24373226  0.63618924  0.27065263  1  0  0.096297  0  0.967083  0  0  0.10547  0  1.030199  0  0  0.108348  0  1.028879  0  0  0.099227  0.103347  0  1.03124  0
H  H20  1  0.13493656  0.02765710  0.77044871  1  0  0.09568  0  0.968298  0  0  0.105072  0  1.031175  0  0  0.107958  0  1.029836  0  0  0.099049  0.10295  0  1.032234  0
H  H21  1  0.75626186  0.36381455  0.72934895  1  0  0.096213  0  0.967054  0  0  0.105388  0  1.030173  0  0  0.108261  0  1.028856  0  0  0.099182  0.103266  0  1.031214  0
H  H22  1  0.68608162  0.76216052  0.08741751  1  0  0.084603  0  0.942173  0  0  0.100457  0  0.99157  0  0  0.102854  0  0.991279  0  0  0.100113  0.098942  0  0.991477  0
H  H23  1  0.17542990  0.59907208  0.41265253  1  0  0.084105  0  0.944168  0  0  0.100235  0  0.993181  0  0  0.102648  0  0.992891  0  0  0.099787  0.098705  0  0.993105  0
H  H24  1  0.31392740  0.23784545  0.91258737  1  0  0.084623  0  0.94223  0  0  0.100449  0  0.991652  0  0  0.102847  0  0.991362  0  0  0.100111  0.098938  0  0.99156  0
H  H25  1  0.82456324  0.40093171  0.58734879  1  0  0.084128  0  0.944119  0  0  0.100246  0  0.993146  0  0  0.102655  0  0.992859  0  0  0.099792  0.098716  0  0.99307  0
H  H26  1  0.76997891  0.69462836  0.96902671  1  0  0.110811  0  0.948824  0  0  0.122259  0  1.007136  0  0  0.124844  0  1.006326  0  0  0.107125  0.120355  0  1.007838  0
H  H27  1  0.22595646  0.80118671  0.53103099  1  0  0.111282  0  0.948596  0  0  0.122365  0  1.007342  0  0  0.124947  0  1.006514  0  0  0.10689  0.120459  0  1.008043  0
H  H28  1  0.23002283  0.30537130  0.03097746  1  0  0.110779  0  0.948699  0  0  0.122236  0  1.007015  0  0  0.124826  0  1.006203  0  0  0.107105  0.12033  0  1.007723  0
H  H29  1  0.77404333  0.19882028  0.46897283  1  0  0.111276  0  0.948677  0  0  0.122365  0  1.007419  0  0  0.124947  0  1.006591  0  0  0.106897  0.120459  0  1.008117  0
H  H30  1  0.09446830  0.77564148  0.87991987  1  0  0.105341  0  0.9609  0  0  0.118686  0  1.024517  0  0  0.120342  0  1.023202  0  0  0.114777  0.117511  0  1.025349  0
H  H31  1  0.39575092  0.21481886  0.62013635  1  0  0.105603  0  0.962106  0  0  0.119141  0  1.025018  0  0  0.120823  0  1.023683  0  0  0.114963  0.117959  0  1.025876  0
H  H32  1  0.90552204  0.22434443  0.12007827  1  0  0.10546  0  0.960802  0  0  0.118705  0  1.024474  0  0  0.12036  0  1.023152  0  0  0.11478  0.117528  0  1.025315  0
H  H33  1  0.60425846  0.78518605  0.37986725  1  0  0.105533  0  0.962172  0  0  0.11911  0  1.025078  0  0  0.120796  0  1.023741  0  0  0.114948  0.117915  0  1.025931  0
H  H34  1  0.90889458  0.72301506  0.86530690  1  0  0.10144  0  0.923407  0  0  0.113061  0  0.98971  0  0  0.115044  0  0.987631  0  0  0.11496  0.111503  0  0.991296  0
H  H35  1  0.35779879  0.04388172  0.63475169  1  0  0.101499  0  0.922298  0  0  0.11283  0  0.988897  0  0  0.11478  0  0.98692  0  0  0.114923  0.111317  0  0.99043  0
H  H36  1  0.09109906  0.27697509  0.13469356  1  0  0.101511  0  0.923289  0  0  0.113092  0  0.989605  0  0  0.115047  0  0.987562  0  0  0.114995  0.111575  0  0.99115  0
H  H37  1  0.64220256  0.95612310  0.36524643  1  0  0.101428  0  0.922277  0  0  0.112796  0  0.988893  0  0  0.11475  0  0.986914  0  0  0.114903  0.111272  0  0.990418  0
H  H38  1  0.25072986  0.71757015  0.05954910  1  0  0.085327  0  0.957584  0  0  0.101291  0  1.012473  0  0  0.103489  0  1.011752  0  0  0.099263  0.099835  0  1.012738  0
H  H39  1  0.15790928  0.19140459  0.44054385  1  0  0.08708  0  0.956639  0  0  0.102404  0  1.011982  0  0  0.104561  0  1.01131  0  0  0.09985  0.100978  0  1.012204  0
H  H40  1  0.74926226  0.28241895  0.94045161  1  0  0.085344  0  0.957496  0  0  0.101325  0  1.012376  0  0  0.103514  0  1.011664  0  0  0.099285  0.099865  0  1.012649  0
H  H41  1  0.84209778  0.80860871  0.55946069  1  0  0.087154  0  0.956642  0  0  0.102466  0  1.011991  0  0  0.104623  0  1.01132  0  0  0.099891  0.101057  0  1.012192  0
H  H42  1  0.76826840  0.48628018  0.86830700  1  0  0.104673  0  0.979431  0  0  0.112448  0  1.044198  0  0  0.116017  0  1.04181  0  0  0.099537  0.10976  0  1.046189  0
H  H43  1  0.11813687  0.89993470  0.63157636  1  0  0.104254  0  0.979344  0  0  0.11194  0  1.044264  0  0  0.115509  0  1.041866  0  0  0.099491  0.109296  0  1.046191  0
H  H44  1  0.23172235  0.51370997  0.13169404  1  0  0.104719  0  0.979431  0  0  0.112456  0  1.044245  0  0  0.116026  0  1.041857  0  0  0.099531  0.109765  0  1.046241  0
H  H45  1  0.88186565  0.10007752  0.36842628  1  0  0.104237  0  0.979219  0  0  0.111955  0  1.044109  0  0  0.115531  0  1.041715  0  0  0.099452  0.109302  0  1.046055  0
H  H46  1  0.94274237  0.46769409  0.23434227  1  0  0.117153  0  0.942988  0  0  0.125588  0  1.004689  0  0  0.129299  0  1.002942  0  0  0.113236  0.122855  0  1.006144  0
H  H47  1  0.73299458  0.70856517  0.26560173  1  0  0.117751  0  0.942326  0  0  0.126038  0  1.004009  0  0  0.129728  0  1.002322  0  0  0.113142  0.123335  0  1.005419  0
H  H48  1  0.05725684  0.53230861  0.76565455  1  0  0.117278  0  0.942851  0  0  0.125598  0  1.004672  0  0  0.129309  0  1.002926  0  0  0.113241  0.122886  0  1.006102  0
H  H49  1  0.26700361  0.29143340  0.73440080  1  0  0.117737  0  0.942228  0  0  0.126044  0  1.003902  0  0  0.129736  0  1.002212  0  0  0.113148  0.123341  0  1.005312  0
H  H50  1  0.94949993  0.69980113  0.24993249  1  0  0.10358  0  0.94091  0  0  0.113867  0  0.99831  0  0  0.116345  0  0.998176  0  0  0.110475  0.111903  0  0.998725  0
H  H51  1  0.05049650  0.30020160  0.75006764  1  0  0.103556  0  0.940973  0  0  0.113854  0  0.998341  0  0  0.116332  0  0.998209  0  0  0.110468  0.111889  0  0.998756  0
C  C52  1  0.35236736  0.99543759  0.02388404  1  0  -0.405787  0  3.704972  0  0  -0.488383  0  3.946761  0  0  -0.493355  0  3.952528  0  0  -0.231431  -0.484996  0  3.943357  0
C  C53  1  0.47135993  0.32877009  0.47615624  1  0  -0.404118  0  3.705278  0  0  -0.485964  0  3.946689  0  0  -0.490863  0  3.9526  0  0  -0.23108  -0.482635  0  3.943146  0
C  C54  1  0.64763089  0.00454516  0.97611003  1  0  -0.406003  0  3.705396  0  0  -0.488671  0  3.947129  0  0  -0.493651  0  3.952884  0  0  -0.23154  -0.485287  0  3.943722  0
C  C55  1  0.52863850  0.67123472  0.52384177  1  0  -0.404103  0  3.705226  0  0  -0.485942  0  3.946643  0  0  -0.490839  0  3.952553  0  0  -0.231084  -0.482613  0  3.943102  0
C  C56  1  0.22931239  0.96845830  0.05342158  1  0  0.415326  0  3.679034  0  0  0.384382  0  3.958274  0  0  0.404213  0  3.97016  0  0  0.240515  0.371395  0  3.949976  0
C  C57  1  0.41502907  0.17622726  0.44663147  1  0  0.412436  0  3.682624  0  0  0.38191  0  3.962123  0  0  0.401732  0  3.974054  0  0  0.240063  0.368933  0  3.953787  0
C  C58  1  0.77068933  0.03153078  0.94657558  1  0  0.415468  0  3.678959  0  0  0.384648  0  3.957997  0  0  0.404475  0  3.969893  0  0  0.240592  0.371662  0  3.949699  0
C  C59  1  0.58497090  0.82377655  0.55337030  1  0  0.412477  0  3.682452  0  0  0.381938  0  3.962004  0  0  0.40176  0  3.973936  0  0  0.240049  0.36896  0  3.953669  0
C  C60  1  0.10596694  0.98530473  0.13592897  1  0  0.151143  0  3.829981  0  0  0.1428  0  4.084131  0  0  0.147165  0  4.106535  0  0  0.084364  0.139867  0  4.068883  0
C  C61  1  0.34964036  0.97047127  0.36418035  1  0  0.15081  0  3.829012  0  0  0.143447  0  4.081597  0  0  0.147778  0  4.104084  0  0  0.08408  0.140538  0  4.066285  0
C  C62  1  0.89403981  0.01469381  0.86406839  1  0  0.151051  0  3.830144  0  0  0.142717  0  4.084251  0  0  0.147081  0  4.106662  0  0  0.084324  0.139786  0  4.068999  0
C  C63  1  0.65036124  0.02953040  0.63581707  1  0  0.150748  0  3.829076  0  0  0.143411  0  4.081619  0  0  0.147757  0  4.104087  0  0  0.084071  0.14048  0  4.06634  0
C  C64  1  0.05840055  0.02422393  0.20125764  1  0  -0.131924  0  3.719742  0  0  -0.153073  0  3.977012  0  0  -0.155195  0  3.996818  0  0  -0.092344  -0.151853  0  3.964057  0
C  C65  1  0.32347625  0.85769586  0.29888313  1  0  -0.131272  0  3.718068  0  0  -0.152447  0  3.974745  0  0  -0.154624  0  3.994522  0  0  -0.09221  -0.15119  0  3.961796  0
C  C66  1  0.94160982  0.97578304  0.79874290  1  0  -0.131835  0  3.719664  0  0  -0.152973  0  3.976894  0  0  -0.155095  0  3.996705  0  0  -0.092356  -0.151751  0  3.963935  0
C  C67  1  0.67652251  0.14230377  0.70111957  1  0  -0.131209  0  3.717788  0  0  -0.152421  0  3.97447  0  0  -0.154604  0  3.994243  0  0  -0.092194  -0.151158  0  3.961529  0
C  C68  1  0.90628069  0.94206591  0.18170493  1  0  -0.076968  0  3.768117  0  0  -0.093938  0  4.025969  0  0  -0.09622  0  4.048457  0  0  -0.098244  -0.092451  0  4.011137  0
C  C69  1  0.26101563  0.72513193  0.31843111  1  0  -0.077767  0  3.765991  0  0  -0.094645  0  4.024223  0  0  -0.096935  0  4.046741  0  0  -0.0987  -0.093129  0  4.009335  0
C  C70  1  0.09372900  0.05793792  0.81829603  1  0  -0.077104  0  3.768011  0  0  -0.094054  0  4.025851  0  0  -0.096337  0  4.048337  0  0  -0.098272  -0.092567  0  4.011021  0
C  C71  1  0.73898178  0.27487081  0.68156929  1  0  -0.077634  0  3.765889  0  0  -0.094499  0  4.024115  0  0  -0.096782  0  4.046626  0  0  -0.09861  -0.092984  0  4.009224  0
C  C72  1  0.80401467  0.82375480  0.09975966  1  0  -0.082187  0  3.803841  0  0  -0.0964  0  4.059771  0  0  -0.099542  0  4.083409  0  0  -0.099654  -0.094375  0  4.043882  0
C  C73  1  0.22457576  0.70468910  0.40034402  1  0  -0.081931  0  3.808236  0  0  -0.096368  0  4.064219  0  0  -0.099532  0  4.087875  0  0  -0.099442  -0.094336  0  4.048323  0
C  C74  1  0.19599295  0.17625222  0.90024487  1  0  -0.082315  0  3.803828  0  0  -0.09651  0  4.059759  0  0  -0.09965  0  4.083396  0  0  -0.099742  -0.094488  0  4.043874  0
C  C75  1  0.77541952  0.29531681  0.59965859  1  0  -0.081992  0  3.808244  0  0  -0.096418  0  4.064229  0  0  -0.099578  0  4.087883  0  0  -0.099495  -0.094386  0  4.048334  0
C  C76  1  0.84934510  0.78431739  0.03355039  1  0  -0.139636  0  3.750651  0  0  -0.160652  0  4.007872  0  0  -0.162707  0  4.027967  0  0  -0.095174  -0.159273  0  3.994374  0
C  C77  1  0.25114894  0.81614217  0.46652314  1  0  -0.139772  0  3.753079  0  0  -0.160762  0  4.010359  0  0  -0.162794  0  4.030435  0  0  -0.094983  -0.159385  0  3.996853  0
C  C78  1  0.15065481  0.21567907  0.96644984  1  0  -0.139467  0  3.750593  0  0  -0.160492  0  4.007794  0  0  -0.162552  0  4.027891  0  0  -0.095105  -0.159115  0  3.994295  0
C  C79  1  0.74885124  0.18386581  0.53347676  1  0  -0.139777  0  3.752998  0  0  -0.16077  0  4.010274  0  0  -0.162804  0  4.03035  0  0  -0.095014  -0.159391  0  3.996767  0
C  C80  1  0.00148232  0.86784215  0.05315035  1  0  0.102105  0  3.784004  0  0  0.089688  0  4.034831  0  0  0.093217  0  4.057297  0  0  0.09166  0.087658  0  4.019086  0
C  C81  1  0.31496034  0.94870096  0.44695443  1  0  0.101595  0  3.783035  0  0  0.089961  0  4.032908  0  0  0.093486  0  4.055357  0  0  0.091759  0.087934  0  4.017171  0
C  C82  1  0.99852032  0.13215954  0.94684871  1  0  0.102146  0  3.78408  0  0  0.089723  0  4.034898  0  0  0.093254  0  4.057362  0  0  0.091704  0.087692  0  4.01915  0
C  C83  1  0.68503902  0.05130178  0.55304580  1  0  0.101557  0  3.783146  0  0  0.089937  0  4.033024  0  0  0.093459  0  4.055467  0  0  0.091798  0.087914  0  4.017294  0
C  C84  1  0.02165523  0.74410652  0.91905863  1  0  -0.046723  0  3.628742  0  0  -0.110998  0  3.873486  0  0  -0.106983  0  3.883485  0  0  -0.049184  -0.113383  0  3.866355  0
C  C85  1  0.32507508  0.10285412  0.58099837  1  0  -0.048585  0  3.63026  0  0  -0.111877  0  3.87473  0  0  -0.107869  0  3.884655  0  0  -0.049579  -0.114353  0  3.867739  0
C  C86  1  0.97833661  0.25588044  0.08093858  1  0  -0.046907  0  3.628685  0  0  -0.110973  0  3.873272  0  0  -0.106951  0  3.883305  0  0  -0.049152  -0.113388  0  3.866133  0
C  C87  1  0.67493056  0.89715288  0.41900565  1  0  -0.048348  0  3.630158  0  0  -0.111816  0  3.874857  0  0  -0.107822  0  3.884802  0  0  -0.049555  -0.114229  0  3.867787  0
C  C88  1  0.01090171  0.61633955  0.95894601  1  0  0.065279  0  3.759494  0  0  0.083547  0  4.001423  0  0  0.0825  0  4.026644  0  0  -0.015346  0.084161  0  3.984276  0
C  C89  1  0.15740495  0.05211238  0.54105694  1  0  0.067421  0  3.757416  0  0  0.085201  0  3.999228  0  0  0.084208  0  4.024443  0  0  -0.015231  0.085794  0  3.982113  0
C  C90  1  0.98909118  0.38365272  0.04105632  1  0  0.065311  0  3.759436  0  0  0.083509  0  4.001389  0  0  0.082466  0  4.0266  0  0  -0.01531  0.084123  0  3.984248  0
C  C91  1  0.84260325  0.94789569  0.45894845  1  0  0.067398  0  3.75739  0  0  0.085336  0  3.999071  0  0  0.084347  0  4.024292  0  0  -0.015177  0.085912  0  3.981942  0
C  C92  1  0.14007493  0.62207214  0.03282055  1  0  -0.107781  0  3.754783  0  0  -0.12958  0  4.002174  0  0  -0.131986  0  4.024776  0  0  -0.094368  -0.127889  0  3.986488  0
C  C93  1  0.08922171  0.10742005  0.46725500  1  0  -0.111518  0  3.755527  0  0  -0.132825  0  4.003099  0  0  -0.135234  0  4.025706  0  0  -0.095469  -0.131139  0  3.987445  0
C  C94  1  0.85991785  0.37791804  0.96718238  1  0  -0.10768  0  3.754663  0  0  -0.129485  0  4.002101  0  0  -0.131882  0  4.024706  0  0  -0.094441  -0.127794  0  3.986413  0
C  C95  1  0.91078428  0.89259117  0.53275056  1  0  -0.111634  0  3.755598  0  0  -0.132961  0  4.003108  0  0  -0.135369  0  4.025712  0  0  -0.095571  -0.131289  0  3.987458  0
C  C96  1  0.87023499  0.49296255  0.92634791  1  0  -0.125228  0  3.763496  0  0  -0.141279  0  4.008831  0  0  -0.144529  0  4.030723  0  0  -0.094081  -0.138966  0  3.994093  0
C  C97  1  0.06669290  0.94388398  0.57359750  1  0  -0.123678  0  3.759415  0  0  -0.13936  0  4.004211  0  0  -0.142597  0  4.026065  0  0  -0.093314  -0.137076  0  3.989498  0
C  C98  1  0.12975737  0.50702867  0.07365493  1  0  -0.125196  0  3.763471  0  0  -0.141211  0  4.008815  0  0  -0.144461  0  4.030706  0  0  -0.094121  -0.138899  0  3.994079  0
C  C99  1  0.93331303  0.05612722  0.42640669  1  0  -0.123691  0  3.759311  0  0  -0.139417  0  4.004028  0  0  -0.142667  0  4.025891  0  0  -0.093312  -0.137128  0  3.989313  0
C  C100  1  0.71505782  0.21211275  0.24050897  1  0  0.583588  0  3.995666  0  0  0.538243  0  4.296823  0  0  0.570291  0  4.289776  0  0  0.190773  0.516715  0  4.300586  0
C  C101  1  0.47127621  0.47460137  0.25948176  1  0  0.583846  0  3.994794  0  0  0.538381  0  4.29598  0  0  0.570431  0  4.288919  0  0  0.190852  0.516857  0  4.299762  0
C  C102  1  0.28493883  0.78788888  0.75948647  1  0  0.583598  0  3.995652  0  0  0.538238  0  4.296841  0  0  0.570288  0  4.289789  0  0  0.190778  0.516707  0  4.300609  0
C  C103  1  0.52872023  0.52539403  0.74051889  1  0  0.583879  0  3.994889  0  0  0.53844  0  4.296063  0  0  0.57049  0  4.289004  0  0  0.190841  0.516917  0  4.299841  0
C  C104  1  0.73026470  0.35760907  0.24362983  1  0  0.107665  0  3.733611  0  0  0.108735  0  3.969433  0  0  0.110461  0  3.988956  0  0  0.10981  0.107313  0  3.956291  0
C  C105  1  0.61365097  0.48677792  0.25630234  1  0  0.109771  0  3.731569  0  0  0.111307  0  3.966621  0  0  0.113042  0  3.986116  0  0  0.110554  0.109873  0  3.953515  0
C  C106  1  0.26973806  0.64239471  0.75636862  1  0  0.10771  0  3.733855  0  0  0.108785  0  3.969669  0  0  0.110511  0  3.989193  0  0  0.109825  0.107364  0  3.956534  0
C  C107  1  0.38634926  0.51322274  0.74369874  1  0  0.109633  0  3.731303  0  0  0.111145  0  3.966395  0  0  0.112879  0  3.985891  0  0  0.110491  0.109712  0  3.953289  0
C  C108  1  0.85214684  0.47671540  0.24160818  1  0  -0.104077  0  3.683965  0  0  -0.127198  0  3.933116  0  0  -0.131197  0  3.95188  0  0  -0.070463  -0.124506  0  3.920498  0
C  C109  1  0.73475982  0.61069260  0.25831015  1  0  -0.107307  0  3.687181  0  0  -0.130464  0  3.936511  0  0  -0.134491  0  3.955279  0  0  -0.071173  -0.127774  0  3.923888  0
C  C110  1  0.14784911  0.52328837  0.75839050  1  0  -0.104165  0  3.683919  0  0  -0.127198  0  3.933091  0  0  -0.131198  0  3.951858  0  0  -0.07046  -0.124526  0  3.920461  0
C  C111  1  0.26523660  0.38930808  0.74169331  1  0  -0.107233  0  3.686941  0  0  -0.130409  0  3.936263  0  0  -0.134436  0  3.955033  0  0  -0.071193  -0.12772  0  3.923636  0
C  C112  1  0.85457075  0.60483379  0.24996120  1  0  0.004693  0  3.690282  0  0  -0.012461  0  3.941921  0  0  -0.009189  0  3.959083  0  0  -0.058763  -0.014378  0  3.930087  0
C  C113  1  0.14542839  0.39517212  0.75004040  1  0  0.004603  0  3.690433  0  0  -0.012521  0  3.942006  0  0  -0.009253  0  3.959174  0  0  -0.05876  -0.014434  0  3.93017  0
N  N114  1  0.24692582  0.04499319  0.13399441  1  0  -0.490048  0  3.210465  0  0  -0.418565  0  3.507265  0  0  -0.440876  0  3.516059  0  0  -0.361522  -0.403603  0  3.501061  0
N  N115  1  0.41106827  0.11333061  0.36607165  1  0  -0.488533  0  3.211009  0  0  -0.417643  0  3.50768  0  0  -0.439918  0  3.516412  0  0  -0.361336  -0.402742  0  3.501594  0
N  N116  1  0.75307461  0.95499902  0.86600181  1  0  -0.490173  0  3.210423  0  0  -0.418752  0  3.507227  0  0  -0.441044  0  3.515979  0  0  -0.361621  -0.403793  0  3.501032  0
N  N117  1  0.58893252  0.88667110  0.63392961  1  0  -0.48853  0  3.211125  0  0  -0.417605  0  3.507752  0  0  -0.43989  0  3.516486  0  0  -0.361323  -0.402694  0  3.501664  0
N  N118  1  0.08265082  0.86144646  0.00228867  1  0  -0.159697  0  3.48066  0  0  -0.07387  0  3.698151  0  0  -0.092038  0  3.723343  0  0  -0.232084  -0.061897  0  3.68063  0
N  N119  1  0.35925979  0.08068574  0.49778828  1  0  -0.158253  0  3.480371  0  0  -0.074125  0  3.699038  0  0  -0.092244  0  3.724258  0  0  -0.232  -0.062159  0  3.681526  0
N  N120  1  0.91734868  0.13854576  0.99770865  1  0  -0.159843  0  3.480827  0  0  -0.074072  0  3.698234  0  0  -0.092235  0  3.723414  0  0  -0.232158  -0.0621  0  3.680726  0
N  N121  1  0.64073986  0.91932120  0.50221213  1  0  -0.158315  0  3.48052  0  0  -0.074224  0  3.699356  0  0  -0.092342  0  3.724579  0  0  -0.23204  -0.062275  0  3.681827  0
N  N122  1  0.61554534  0.36575873  0.24995673  1  0  -0.361038  0  3.408495  0  0  -0.283163  0  3.666064  0  0  -0.299605  0  3.681673  0  0  -0.336903  -0.272044  0  3.655719  0
N  N123  1  0.38445190  0.63424190  0.75004289  1  0  -0.360927  0  3.40854  0  0  -0.283064  0  3.666123  0  0  -0.299505  0  3.681734  0  0  -0.336865  -0.271946  0  3.65578  0
O  O124  1  0.59803151  0.11824937  0.24848522  1  0  -0.640262  0  1.983613  0  0  -0.587293  0  2.244206  0  0  -0.612724  0  2.231941  0  0  -0.334941  -0.569336  0  2.25182  0
O  O125  1  0.36941045  0.34954765  0.25138328  1  0  -0.640363  0  1.984229  0  0  -0.587242  0  2.244603  0  0  -0.612627  0  2.232242  0  0  -0.334901  -0.569312  0  2.252251  0
O  O126  1  0.40196908  0.88175228  0.75151127  1  0  -0.640263  0  1.98361  0  0  -0.587259  0  2.244154  0  0  -0.612692  0  2.231892  0  0  -0.334929  -0.569301  0  2.251769  0
O  O127  1  0.63058493  0.65044978  0.74861173  1  0  -0.640383  0  1.984145  0  0  -0.587269  0  2.244497  0  0  -0.612656  0  2.232136  0  0  -0.334883  -0.569335  0  2.252135  0
O  O128  1  0.81633919  0.19658962  0.23144129  1  0  -0.599104  0  1.92193  0  0  -0.560527  0  2.13989  0  0  -0.581457  0  2.130949  0  0  -0.328779  -0.545758  0  2.145344  0
O  O129  1  0.46480684  0.58493302  0.26866835  1  0  -0.599541  0  1.922794  0  0  -0.561042  0  2.14105  0  0  -0.581961  0  2.132024  0  0  -0.328665  -0.546267  0  2.146531  0
O  O130  1  0.18366211  0.80341518  0.76855546  1  0  -0.599115  0  1.921968  0  0  -0.560558  0  2.139953  0  0  -0.581487  0  2.131004  0  0  -0.328778  -0.545792  0  2.145411  0
O  O131  1  0.53519165  0.41506976  0.73133436  1  0  -0.59955  0  1.923015  0  0  -0.56107  0  2.141281  0  0  -0.581987  0  2.132252  0  0  -0.328684  -0.546299  0  2.146765  0
