# generated using pymatgen
data_CoH13C14N2O5
_symmetry_space_group_name_H-M   'P 1'
_cell_length_a   8.13924149
_cell_length_b   13.29635380
_cell_length_c   14.51912780
_cell_angle_alpha   90.00018433
_cell_angle_beta   90.00001876
_cell_angle_gamma   106.52745513
_symmetry_Int_Tables_number   1
_chemical_formula_structural   CoH13C14N2O5
_chemical_formula_sum   'Co4 H52 C56 N8 O20'
_cell_volume   1506.37219533
_cell_formula_units_Z   4
loop_
 _symmetry_equiv_pos_site_id
 _symmetry_equiv_pos_as_xyz
  1  'x, y, z'
loop_
 _atom_site_type_symbol
 _atom_site_label
 _atom_site_symmetry_multiplicity
 _atom_site_fract_x
 _atom_site_fract_y
 _atom_site_fract_z
 _atom_site_occupancy
 _atom_site_pbe_bader_charge
 _atom_site_pbe_bader_spin_density
 _atom_site_pbe_cm5_charge
 _atom_site_pbe_ddec_charge
 _atom_site_pbe_ddec_spin_density
 _atom_site_pbe_ddec_sum_bond_order
 _atom_site_pbe_magmom
Co  Co0  1  0.67522330  0.63163649  0.91128920  1  1.300403  2.606864  0.682001  0.908145  2.836266  2.516671  2.588
Co  Co1  1  0.82479888  0.36836979  0.41128772  1  1.300344  2.606893  0.681979  0.908104  2.836195  2.515863  2.588
Co  Co2  1  0.32482143  0.36837918  0.08871664  1  1.300435  2.606867  0.68196  0.908089  2.836153  2.51601  2.588
Co  Co3  1  0.17518579  0.63162993  0.58871055  1  1.300484  2.606841  0.682038  0.908126  2.836235  2.516861  2.588
H  H4  1  0.01708515  0.68261704  0.88654393  1  0.651063  -9e-06  0.28472  0.3746  -8e-06  0.974243  0.0
H  H5  1  0.48289512  0.31738372  0.38653200  1  0.650516  -1e-05  0.284757  0.374572  -8e-06  0.974278  0.0
H  H6  1  0.98291871  0.31738434  0.11346812  1  0.65114  -8e-06  0.284779  0.374593  -7e-06  0.974237  0.0
H  H7  1  0.51703320  0.68260007  0.61345388  1  0.651041  -8e-06  0.284775  0.374572  -8e-06  0.974255  0.0
H  H8  1  0.93568046  0.75647814  0.83053594  1  0.617224  0.000339  0.307608  0.385286  8.5e-05  0.904678  0.0
H  H9  1  0.56427427  0.24350949  0.33052164  1  0.617091  0.000336  0.307481  0.385  8.3e-05  0.905108  0.0
H  H10  1  0.06432513  0.24351621  0.16946991  1  0.617102  0.000337  0.307529  0.385139  8.4e-05  0.904872  0.0
H  H11  1  0.43566357  0.75647904  0.66946423  1  0.616902  0.00034  0.307696  0.385431  8.6e-05  0.904565  0.0
H  H12  1  0.87453331  0.30749841  0.69333213  1  0.07101  -0.000288  0.108173  0.111759  -0.000427  1.002767  0.0
H  H13  1  0.62546475  0.69249829  0.19332743  1  0.070742  -0.000289  0.108202  0.1118  -0.000427  1.002839  0.0
H  H14  1  0.12542269  0.69250039  0.30667510  1  0.070592  -0.000289  0.108249  0.11187  -0.000427  1.002748  0.0
H  H15  1  0.37460972  0.30752066  0.80666602  1  0.071334  -0.000288  0.108244  0.111852  -0.000426  1.002802  0.0
H  H16  1  0.76804252  0.42051608  0.95935997  1  0.108524  0.001671  0.123093  0.111852  0.000422  1.009287  0.001
H  H17  1  0.73191216  0.57947128  0.45935221  1  0.108666  0.001672  0.123056  0.111678  0.000422  1.009359  0.001
H  H18  1  0.23197827  0.57949556  0.04065552  1  0.10885  0.001672  0.123072  0.111724  0.000422  1.009324  0.001
H  H19  1  0.26803956  0.42051263  0.54063918  1  0.108607  0.001672  0.123089  0.111845  0.000422  1.009268  0.001
H  H20  1  0.00536092  0.28584986  0.89616995  1  0.136461  0.000223  0.097467  0.112302  3.7e-05  1.011387  0.0
H  H21  1  0.49464082  0.71414947  0.39617365  1  0.136464  0.000224  0.097462  0.112303  3.7e-05  1.011475  0.0
H  H22  1  0.99464258  0.71415073  0.10383107  1  0.136535  0.000223  0.097498  0.112376  3.7e-05  1.011419  0.0
H  H23  1  0.50536687  0.28584410  0.60382600  1  0.136387  0.000223  0.097488  0.112321  3.7e-05  1.011444  0.0
H  H24  1  0.80409367  0.24745312  0.94833220  1  0.043494  -7.1e-05  0.092525  0.09382  -0.000175  1.004238  0.0
H  H25  1  0.69591663  0.75254855  0.44832218  1  0.043697  -7.1e-05  0.092532  0.093786  -0.000175  1.004293  0.0
H  H26  1  0.19591760  0.75255377  0.05168329  1  0.043793  -7.1e-05  0.092541  0.093872  -0.000175  1.004297  0.0
H  H27  1  0.30408688  0.24745205  0.55167334  1  0.043589  -7.1e-05  0.092519  0.093791  -0.000175  1.004282  0.0
H  H28  1  0.68637944  0.12853571  0.81008473  1  0.01617  -2.2e-05  0.080077  0.105415  -4.5e-05  1.01934  0.0
H  H29  1  0.81359619  0.87145742  0.31007095  1  0.015672  -2.2e-05  0.080061  0.10531  -4.5e-05  1.019375  0.0
H  H30  1  0.31360190  0.87146477  0.18993214  1  0.015649  -2.2e-05  0.08006  0.105285  -4.5e-05  1.019298  0.0
H  H31  1  0.18638266  0.12853758  0.68992113  1  0.015702  -2.2e-05  0.080048  0.105342  -4.5e-05  1.019326  0.0
H  H32  1  0.85404226  0.09449623  0.86887128  1  0.030622  7.9e-05  0.08309  0.111749  6e-06  1.013129  0.0
H  H33  1  0.64593366  0.90548931  0.36886446  1  0.030894  7.9e-05  0.083099  0.111697  6e-06  1.013108  0.0
H  H34  1  0.14594029  0.90549879  0.13113939  1  0.030834  7.9e-05  0.083084  0.111673  6e-06  1.013096  0.0
H  H35  1  0.35405081  0.09450180  0.63112899  1  0.030686  7.9e-05  0.083091  0.111691  6e-06  1.013067  0.0
H  H36  1  0.89641821  0.16261942  0.76279477  1  0.018695  -0.000103  0.079915  0.100681  -8e-05  1.033528  0.0
H  H37  1  0.60355198  0.83736176  0.26278842  1  0.018441  -0.000103  0.079829  0.100556  -8e-05  1.033593  0.0
H  H38  1  0.10355465  0.83737320  0.23721590  1  0.01859  -0.000103  0.079833  0.100533  -8e-05  1.033601  0.0
H  H39  1  0.39643282  0.16262466  0.73720916  1  0.018744  -0.000103  0.079853  0.100546  -8e-05  1.033653  0.0
H  H40  1  0.39487542  0.71965113  0.87452470  1  0.11424  0.001515  0.116933  0.088782  0.000418  1.052474  0.001
H  H41  1  0.10517079  0.28035147  0.37453463  1  0.114163  0.001515  0.116888  0.088897  0.000419  1.052191  0.001
H  H42  1  0.60516571  0.28034574  0.12546186  1  0.114235  0.001515  0.116916  0.088957  0.000419  1.052232  0.001
H  H43  1  0.89484346  0.71965388  0.62547466  1  0.114122  0.001516  0.116922  0.0889  0.000418  1.052283  0.001
H  H44  1  0.30482559  0.87772637  0.90222425  1  0.07817  0.00127  0.108748  0.115639  0.000708  1.014882  0.0
H  H45  1  0.19517435  0.12225811  0.40221926  1  0.078244  0.001269  0.108715  0.11557  0.000707  1.014961  0.0
H  H46  1  0.69516444  0.12224990  0.09778436  1  0.078206  0.001269  0.108713  0.115549  0.000707  1.014985  0.0
H  H47  1  0.80481982  0.87774088  0.59777970  1  0.07826  0.00127  0.108712  0.115596  0.000708  1.014905  0.0
H  H48  1  0.75738466  0.98963361  0.07358790  1  0.105318  0.000882  0.107838  0.113959  0.000467  1.010899  0.0
H  H49  1  0.74254598  0.01033646  0.57352972  1  0.10509  0.000882  0.107954  0.113913  0.000467  1.010942  0.0
H  H50  1  0.24256312  0.01033619  0.92645514  1  0.105111  0.000882  0.107892  0.113941  0.000467  1.010933  0.0
H  H51  1  0.25736974  0.98962222  0.42640519  1  0.105405  0.000882  0.107882  0.113973  0.000467  1.01085  0.0
H  H52  1  0.82751440  0.82481586  0.03595593  1  0.100567  0.001431  0.120634  0.095331  0.000229  1.001397  0.001
H  H53  1  0.67247747  0.17517550  0.53592852  1  0.10107  0.001431  0.120707  0.095443  0.00023  1.001395  0.001
H  H54  1  0.17248873  0.17517848  0.96405543  1  0.101035  0.001432  0.120684  0.095468  0.00023  1.001311  0.001
H  H55  1  0.32746663  0.82479428  0.46402843  1  0.100312  0.001432  0.12066  0.095439  0.000229  1.001466  0.001
C  C56  1  0.66589615  0.60095186  0.71642690  1  1.580662  0.001337  0.206025  0.531245  0.000636  4.228379  0.001
C  C57  1  0.83411169  0.39905828  0.21641794  1  1.581202  0.001333  0.205803  0.530967  0.000632  4.228517  0.001
C  C58  1  0.33415148  0.39908652  0.28358515  1  1.580886  0.001332  0.205694  0.53089  0.00063  4.228445  0.001
C  C59  1  0.16590100  0.60095175  0.78355967  1  1.58103  0.001335  0.206254  0.531496  0.000636  4.227772  0.001
C  C60  1  0.73549022  0.51550907  0.75290349  1  0.508963  -0.003238  0.105406  0.058817  -0.004364  3.970249  -0.002
C  C61  1  0.76451507  0.48449807  0.25289545  1  0.508568  -0.003229  0.105438  0.058949  -0.004355  3.970211  -0.002
C  C62  1  0.26455775  0.48452462  0.24711200  1  0.508822  -0.003231  0.105739  0.059249  -0.004358  3.970334  -0.002
C  C63  1  0.23551205  0.51551125  0.74709387  1  0.508579  -0.003235  0.10551  0.05885  -0.004361  3.970429  -0.002
C  C64  1  0.83209335  0.36181961  0.73726460  1  -0.073861  -0.008355  -0.070288  -0.121315  -0.009261  3.901779  -0.005
C  C65  1  0.66791327  0.63817965  0.23725492  1  -0.073639  -0.008347  -0.070284  -0.121309  -0.009253  3.901976  -0.005
C  C66  1  0.16792005  0.63819200  0.26274607  1  -0.073573  -0.008349  -0.070284  -0.121391  -0.009255  3.901846  -0.005
C  C67  1  0.33213779  0.36183370  0.76273853  1  -0.074424  -0.008347  -0.070311  -0.121522  -0.009253  3.90182  -0.005
C  C68  1  0.82136816  0.34810297  0.83272485  1  -0.023029  0.005299  0.004748  0.096192  0.002556  3.922244  0.004
C  C69  1  0.67862512  0.65189113  0.33271522  1  -0.02374  0.005298  0.004736  0.096181  0.002556  3.922402  0.004
C  C70  1  0.17863870  0.65190234  0.16728650  1  -0.024408  0.005296  0.004686  0.096221  0.002555  3.922319  0.004
C  C71  1  0.32139248  0.34811345  0.66727616  1  -0.022271  0.005297  0.004766  0.096333  0.002555  3.921986  0.004
C  C72  1  0.77356269  0.42454125  0.88434790  1  0.526894  -0.006802  0.055186  0.0575  -0.007302  3.860998  -0.004
C  C73  1  0.72641980  0.57545065  0.38434081  1  0.52766  -0.006794  0.055207  0.057638  -0.007293  3.861389  -0.004
C  C74  1  0.22645881  0.57547196  0.11566277  1  0.527525  -0.006794  0.055269  0.057659  -0.007292  3.860762  -0.004
C  C75  1  0.27357575  0.42454052  0.61565127  1  0.52604  -0.006793  0.055158  0.057433  -0.007292  3.861138  -0.004
C  C76  1  0.82333168  0.46531191  0.59491942  1  1.616121  0.012317  0.2299  0.609424  0.008927  4.161164  0.01
C  C77  1  0.67669168  0.53468923  0.09490944  1  1.615492  0.01231  0.229938  0.609337  0.008921  4.161294  0.01
C  C78  1  0.17668968  0.53470913  0.40509469  1  1.615207  0.012291  0.22976  0.608952  0.00891  4.161732  0.01
C  C79  1  0.32336046  0.46533196  0.90507987  1  1.616135  0.012329  0.229773  0.609104  0.008936  4.161127  0.01
C  C80  1  0.86698546  0.25937387  0.88064358  1  -0.04421  0.000804  -0.163558  -0.152523  0.000432  3.950824  0.001
C  C81  1  0.63301022  0.74062277  0.38063834  1  -0.0444  0.000805  -0.163581  -0.152547  0.000433  3.950881  0.001
C  C82  1  0.13301541  0.74062906  0.11936571  1  -0.044608  0.000805  -0.163724  -0.152867  0.000432  3.951091  0.001
C  C83  1  0.36699643  0.25937393  0.61935649  1  -0.044261  0.000805  -0.163615  -0.152653  0.000432  3.950639  0.001
C  C84  1  0.82349857  0.15590855  0.82736888  1  -0.073814  0.000332  -0.246378  -0.348048  0.000113  3.979078  0.0
C  C85  1  0.67647848  0.84407683  0.32736257  1  -0.073223  0.000331  -0.246329  -0.34777  0.000113  3.97912  0.0
C  C86  1  0.17648116  0.84408567  0.17263972  1  -0.073181  0.000331  -0.246237  -0.347589  0.000112  3.978987  0.0
C  C87  1  0.32350897  0.15591273  0.67263364  1  -0.073382  0.000332  -0.246266  -0.347698  0.000113  3.978923  0.0
C  C88  1  0.47316002  0.78255182  0.91671397  1  0.510625  -0.012061  0.045168  0.100653  -0.012773  3.937118  -0.007
C  C89  1  0.02687097  0.21744696  0.41671957  1  0.51227  -0.012044  0.045179  0.100485  -0.012754  3.936611  -0.007
C  C90  1  0.52686280  0.21744261  0.08328430  1  0.512211  -0.012047  0.045164  0.10047  -0.012757  3.936854  -0.007
C  C91  1  0.97313251  0.78254816  0.58328421  1  0.511897  -0.012068  0.045085  0.100403  -0.01278  3.936702  -0.007
C  C92  1  0.42371307  0.87233691  0.93342585  1  -0.040643  -0.000254  -0.08244  -0.172707  -0.001577  3.944584  0.002
C  C93  1  0.07628076  0.12764218  0.43341604  1  -0.041762  -0.000263  -0.082247  -0.172467  -0.001582  3.944729  0.002
C  C94  1  0.57627521  0.12764092  0.06658758  1  -0.041482  -0.000263  -0.082292  -0.172492  -0.001583  3.944978  0.002
C  C95  1  0.92370245  0.87234344  0.56657466  1  -0.042484  -0.000253  -0.082321  -0.172572  -0.001575  3.9447  0.002
C  C96  1  0.52403730  0.95161107  0.99046866  1  -0.066805  -0.021456  0.00682  0.094623  -0.023138  3.991473  -0.012
C  C97  1  0.97592494  0.04835766  0.49043734  1  -0.02716  -0.021272  0.006625  0.094343  -0.02311  3.991954  -0.012
C  C98  1  0.47592825  0.04835725  0.00956336  1  -0.02743  -0.021277  0.006573  0.094211  -0.023116  3.991938  -0.012
C  C99  1  0.02403183  0.95161297  0.50953132  1  -0.065235  -0.021462  0.006785  0.094536  -0.023145  3.991499  -0.012
C  C100  1  0.67218772  0.93286764  0.02830685  1  -0.040618  0.000931  -0.086579  -0.186136  -0.000571  3.964267  0.002
C  C101  1  0.82777414  0.06710632  0.52826401  1  -0.040589  0.000919  -0.086746  -0.186017  -0.000579  3.964569  0.002
C  C102  1  0.32777697  0.06710694  0.97172723  1  -0.040199  0.000924  -0.086713  -0.186019  -0.000576  3.964401  0.002
C  C103  1  0.17217767  0.93285880  0.47168950  1  -0.040457  0.000935  -0.086698  -0.186167  -0.000569  3.96411  0.002
C  C104  1  0.71312877  0.84076456  0.00803691  1  0.462997  -0.012211  0.044256  0.087607  -0.01322  3.965285  -0.007
C  C105  1  0.78686620  0.15922826  0.50801705  1  0.462867  -0.012197  0.044155  0.087397  -0.013204  3.965927  -0.007
C  C106  1  0.28686959  0.15922740  0.99197789  1  0.462491  -0.012197  0.044184  0.087303  -0.013204  3.965787  -0.007
C  C107  1  0.21309746  0.84074944  0.49195643  1  0.462754  -0.01221  0.044238  0.087433  -0.013222  3.96551  -0.007
C  C108  1  0.79261972  0.44725700  0.69627741  1  0.043792  0.009718  -0.000899  -0.064781  0.004711  3.948508  0.007
C  C109  1  0.70738593  0.55274288  0.19626818  1  0.043744  0.009712  -0.000943  -0.06497  0.004708  3.948566  0.007
C  C110  1  0.20741765  0.55276411  0.30373877  1  0.04355  0.009713  -0.001047  -0.065104  0.004709  3.948809  0.007
C  C111  1  0.29265210  0.44726885  0.80372183  1  0.044215  0.009717  -0.000961  -0.064627  0.004711  3.948606  0.007
N  N112  1  0.73089433  0.50515463  0.84555023  1  -1.244201  0.049786  -0.324655  -0.275436  0.025869  3.64093  0.046
N  N113  1  0.76910023  0.49484500  0.34554291  1  -1.244157  0.049786  -0.324604  -0.275308  0.025869  3.640874  0.046
N  N114  1  0.26913495  0.49487036  0.15446664  1  -1.243512  0.049792  -0.324748  -0.275435  0.025872  3.640477  0.046
N  N115  1  0.23090889  0.50515171  0.65445399  1  -1.244048  0.049789  -0.324646  -0.275411  0.025869  3.641072  0.046
N  N116  1  0.61575801  0.76588391  0.95267756  1  -1.19657  0.041143  -0.329691  -0.232125  0.021877  3.562822  0.039
N  N117  1  0.88427621  0.23411634  0.45268602  1  -1.197836  0.041134  -0.329565  -0.232026  0.021871  3.56277  0.039
N  N118  1  0.38427133  0.23411134  0.04731658  1  -1.19775  0.041142  -0.329541  -0.231956  0.021875  3.562668  0.039
N  N119  1  0.11571986  0.76587327  0.54731569  1  -1.197225  0.041155  -0.329644  -0.23197  0.021884  3.562718  0.039
O  O120  1  0.65175223  0.67080532  0.77492225  1  -1.148939  0.083749  -0.327082  -0.577456  0.043308  2.3139  0.071
O  O121  1  0.84826670  0.32921294  0.27491859  1  -1.149053  0.083754  -0.326991  -0.577325  0.043307  2.31408  0.071
O  O122  1  0.34830898  0.32923861  0.22508704  1  -1.14889  0.083747  -0.326977  -0.577274  0.043302  2.314154  0.071
O  O123  1  0.15170072  0.67078122  0.72506452  1  -1.149468  0.083745  -0.327289  -0.577524  0.043306  2.314234  0.071
O  O124  1  0.62285362  0.59908625  0.63295356  1  -1.159927  0.013775  -0.291103  -0.493387  0.006731  2.20144  0.011
O  O125  1  0.87713975  0.40091644  0.13294323  1  -1.160031  0.013766  -0.290998  -0.493285  0.006726  2.201464  0.011
O  O126  1  0.37718661  0.40094661  0.36705780  1  -1.159978  0.013756  -0.29102  -0.493371  0.006722  2.201177  0.011
O  O127  1  0.12288229  0.59910068  0.86704746  1  -1.159582  0.013784  -0.291262  -0.493665  0.006735  2.201102  0.011
O  O128  1  0.92684738  0.55102076  0.56841865  1  -1.15923  0.087054  -0.302518  -0.567202  0.044295  2.472425  0.071
O  O129  1  0.57319526  0.44897958  0.06839463  1  -1.159245  0.086976  -0.302599  -0.567194  0.044256  2.472345  0.071
O  O130  1  0.07317843  0.44901282  0.43160028  1  -1.158856  0.086931  -0.302517  -0.566898  0.044232  2.472656  0.071
O  O131  1  0.42687521  0.55104953  0.93156989  1  -1.159687  0.087053  -0.302267  -0.566898  0.044297  2.472148  0.071
O  O132  1  0.74823997  0.38972865  0.54228873  1  -1.144518  0.08419  -0.294702  -0.523492  0.043712  2.342598  0.07
O  O133  1  0.75176007  0.61028077  0.04228381  1  -1.144252  0.084216  -0.294657  -0.523408  0.043726  2.342873  0.07
O  O134  1  0.25177089  0.61030720  0.45772814  1  -1.144463  0.084227  -0.29457  -0.523286  0.043733  2.342563  0.07
O  O135  1  0.24826891  0.38975440  0.95771584  1  -1.144152  0.084175  -0.294793  -0.523464  0.043704  2.342672  0.069
O  O136  1  0.94287344  0.73229907  0.89344602  1  -1.245114  0.060112  -0.570333  -0.750605  0.031193  2.09644  0.049
O  O137  1  0.55707064  0.26767310  0.39343317  1  -1.244409  0.060073  -0.570303  -0.750412  0.031169  2.09637  0.049
O  O138  1  0.05713007  0.26770153  0.10656534  1  -1.2451  0.060085  -0.570332  -0.750509  0.031173  2.096439  0.049
O  O139  1  0.44281868  0.73228154  0.60655959  1  -1.244857  0.060141  -0.570456  -0.750735  0.031201  2.096616  0.049
