# generated using pymatgen
data_CdH7C12(NO2)2
_symmetry_space_group_name_H-M   'P 1'
_cell_length_a   7.41531661
_cell_length_b   8.07285277
_cell_length_c   18.50518307
_cell_angle_alpha   89.99611693
_cell_angle_beta   90.00879169
_cell_angle_gamma   90.10658411
_symmetry_Int_Tables_number   1
_chemical_formula_structural   CdH7C12(NO2)2
_chemical_formula_sum   'Cd4 H28 C48 N8 O16'
_cell_volume   1107.76938581
_cell_formula_units_Z   4
loop_
 _symmetry_equiv_pos_site_id
 _symmetry_equiv_pos_as_xyz
  1  'x, y, z'
loop_
 _atom_site_type_symbol
 _atom_site_label
 _atom_site_symmetry_multiplicity
 _atom_site_fract_x
 _atom_site_fract_y
 _atom_site_fract_z
 _atom_site_occupancy
 _atom_site_hle17_bader_spin_density
 _atom_site_hle17_ddec_charge
 _atom_site_hle17_ddec_spin_density
 _atom_site_hle17_ddec_sum_bond_order
 _atom_site_hle17_magmom
 _atom_site_hse06_10hf_bader_spin_density
 _atom_site_hse06_10hf_ddec_charge
 _atom_site_hse06_10hf_ddec_spin_density
 _atom_site_hse06_10hf_ddec_sum_bond_order
 _atom_site_hse06_10hf_magmom
 _atom_site_hse06_bader_spin_density
 _atom_site_hse06_ddec_charge
 _atom_site_hse06_ddec_spin_density
 _atom_site_hse06_ddec_sum_bond_order
 _atom_site_hse06_magmom
 _atom_site_pbe_bader_spin_density
 _atom_site_pbe_cm5_charge
 _atom_site_pbe_ddec_charge
 _atom_site_pbe_ddec_spin_density
 _atom_site_pbe_ddec_sum_bond_order
 _atom_site_pbe_magmom
Cd  Cd0  1  0.43875565  0.47301273  0.30268925  1  0  1.210211  0  1.570806  0  0  1.020142  0  2.017494  0  0  1.081681  0  1.959092  0  0  0.788123  0.975997  0  2.057786  0
Cd  Cd1  1  0.06123000  0.52694094  0.80270863  1  0  1.210336  0  1.570692  0  0  1.020302  0  2.01747  0  0  1.081846  0  1.959067  0  0  0.788198  0.976154  0  2.057766  0
Cd  Cd2  1  0.56125381  0.52698120  0.69731516  1  0  1.210256  0  1.570624  0  0  1.020086  0  2.017424  0  0  1.081629  0  1.959018  0  0  0.788157  0.975929  0  2.057719  0
Cd  Cd3  1  0.93876541  0.47306728  0.19730227  1  0  1.210318  0  1.570492  0  0  1.020241  0  2.017289  0  0  1.081792  0  1.958884  0  0  0.788118  0.976085  0  2.057584  0
H  H4  1  0.59931366  0.11325991  0.22719886  1  0  0.09979  0  0.924619  0  0  0.110115  0  0.985141  0  0  0.112818  0  0.981235  0  0  0.14122  0.10809  0  0.987937  0
H  H5  1  0.90080938  0.88675162  0.72714886  1  0  0.099402  0  0.925089  0  0  0.109773  0  0.985619  0  0  0.112472  0  0.981728  0  0  0.141093  0.107756  0  0.988394  0
H  H6  1  0.40071606  0.88673433  0.77279528  1  0  0.099825  0  0.924465  0  0  0.110171  0  0.984949  0  0  0.112878  0  0.981035  0  0  0.141125  0.108138  0  0.987755  0
H  H7  1  0.09918249  0.11324188  0.27283826  1  0  0.099478  0  0.92511  0  0  0.109856  0  0.985638  0  0  0.112556  0  0.981737  0  0  0.141056  0.107837  0  0.988418  0
H  H8  1  0.51690638  0.35872364  0.47483248  1  0  0.118068  0  0.962552  0  0  0.128359  0  1.025428  0  0  0.131545  0  1.022828  0  0  0.109445  0.126  0  1.02749  0
H  H9  1  0.98308564  0.64130549  0.97480621  1  0  0.118119  0  0.962433  0  0  0.128505  0  1.025245  0  0  0.131698  0  1.02262  0  0  0.109434  0.126147  0  1.027309  0
H  H10  1  0.48310958  0.64128984  0.52515897  1  0  0.118109  0  0.962489  0  0  0.128417  0  1.025346  0  0  0.131604  0  1.022738  0  0  0.109439  0.126058  0  1.027408  0
H  H11  1  0.01689333  0.35869852  0.02518307  1  0  0.117993  0  0.962459  0  0  0.128424  0  1.025219  0  0  0.131618  0  1.022602  0  0  0.109431  0.126065  0  1.027285  0
H  H12  1  0.83092076  0.96397824  0.56661506  1  0  0.095995  0  0.951651  0  0  0.105601  0  1.014702  0  0  0.108756  0  1.012591  0  0  0.1005  0.103267  0  1.016315  0
H  H13  1  0.66895439  0.03601289  0.06648968  1  0  0.095646  0  0.951887  0  0  0.105151  0  1.015145  0  0  0.108336  0  1.012981  0  0  0.100291  0.102825  0  1.016766  0
H  H14  1  0.16906424  0.03601309  0.43338179  1  0  0.095937  0  0.95165  0  0  0.105557  0  1.014681  0  0  0.1087  0  1.012585  0  0  0.100475  0.103222  0  1.016294  0
H  H15  1  0.33102805  0.96398104  0.93349474  1  0  0.095714  0  0.951838  0  0  0.105365  0  1.014909  0  0  0.108499  0  1.012805  0  0  0.100339  0.103016  0  1.016552  0
H  H16  1  0.88978129  0.84449280  0.44449855  1  0  0.108843  0  0.985779  0  0  0.120086  0  1.043477  0  0  0.122186  0  1.043988  0  0  0.104267  0.118609  0  1.04318  0
H  H17  1  0.61019269  0.15554221  0.94435608  1  0  0.10907  0  0.985714  0  0  0.12027  0  1.043427  0  0  0.122387  0  1.043945  0  0  0.104142  0.118781  0  1.043125  0
H  H18  1  0.11023000  0.15550973  0.55550208  1  0  0.108916  0  0.985656  0  0  0.120165  0  1.043343  0  0  0.122264  0  1.043858  0  0  0.104286  0.118687  0  1.043044  0
H  H19  1  0.38977501  0.84445363  0.05562779  1  0  0.109023  0  0.985758  0  0  0.120234  0  1.043461  0  0  0.122348  0  1.043984  0  0  0.104152  0.118745  0  1.043157  0
H  H20  1  0.74698454  0.36172449  0.06701601  1  0  0.085242  0  0.980099  0  0  0.09373  0  1.049779  0  0  0.096639  0  1.047499  0  0  0.100199  0.09163  0  1.051517  0
H  H21  1  0.75301899  0.63821722  0.56698956  1  0  0.085032  0  0.980037  0  0  0.093545  0  1.04973  0  0  0.096454  0  1.04745  0  0  0.100085  0.091438  0  1.051481  0
H  H22  1  0.25293478  0.63832319  0.93299975  1  0  0.084969  0  0.97998  0  0  0.093484  0  1.049709  0  0  0.096397  0  1.047422  0  0  0.100058  0.091382  0  1.051444  0
H  H23  1  0.24710078  0.36174560  0.43303053  1  0  0.085133  0  0.98027  0  0  0.093625  0  1.049995  0  0  0.096535  0  1.047714  0  0  0.100126  0.091524  0  1.051719  0
H  H24  1  0.76524127  0.39041693  0.93322412  1  0  0.113249  0  0.984418  0  0  0.117389  0  1.053247  0  0  0.121614  0  1.050154  0  0  0.104061  0.114307  0  1.055639  0
H  H25  1  0.73475708  0.60958424  0.43319518  1  0  0.113024  0  0.984389  0  0  0.117448  0  1.052952  0  0  0.121613  0  1.049928  0  0  0.104166  0.114362  0  1.055357  0
H  H26  1  0.23468328  0.60965160  0.06679002  1  0  0.113382  0  0.984066  0  0  0.117596  0  1.052748  0  0  0.121872  0  1.049584  0  0  0.104175  0.114438  0  1.055234  0
H  H27  1  0.26535733  0.39035526  0.56682005  1  0  0.113521  0  0.984142  0  0  0.117808  0  1.052835  0  0  0.122038  0  1.049729  0  0  0.104303  0.114717  0  1.055243  0
H  H28  1  0.77208997  0.89228013  0.29266042  1  0  0.332202  0  0.839151  0  0  0.319818  0  0.888896  0  0  0.326994  0  0.883528  0  0  0.340702  0.314699  0  0.892852  0
H  H29  1  0.72798526  0.10772958  0.79253821  1  0  0.332417  0  0.839288  0  0  0.319874  0  0.88908  0  0  0.32706  0  0.883691  0  0  0.340721  0.314755  0  0.893021  0
H  H30  1  0.22792118  0.10771992  0.70733643  1  0  0.332246  0  0.838982  0  0  0.319849  0  0.888754  0  0  0.327023  0  0.883388  0  0  0.340681  0.314725  0  0.892716  0
H  H31  1  0.27199981  0.89226299  0.20744783  1  0  0.332301  0  0.839238  0  0  0.319662  0  0.889151  0  0  0.32684  0  0.883782  0  0  0.340619  0.314553  0  0.893068  0
C  C32  1  0.61903101  0.11114508  0.28525506  1  0  0.282203  0  3.657761  0  0  0.214805  0  3.941389  0  0  0.233786  0  3.950868  0  0  0.165168  0.202421  0  3.934393  0
C  C33  1  0.88103711  0.88884228  0.78518987  1  0  0.282702  0  3.657635  0  0  0.214985  0  3.941362  0  0  0.233947  0  3.950859  0  0  0.165324  0.202605  0  3.934369  0
C  C34  1  0.38099260  0.88886060  0.71473855  1  0  0.281934  0  3.657371  0  0  0.214558  0  3.940945  0  0  0.233536  0  3.950428  0  0  0.165269  0.202182  0  3.933936  0
C  C35  1  0.11894831  0.11115648  0.21480049  1  0  0.28253  0  3.657638  0  0  0.214814  0  3.941393  0  0  0.233783  0  3.950884  0  0  0.165244  0.20243  0  3.9344  0
C  C36  1  0.61673450  0.17304326  0.40000661  1  0  0.135492  0  3.821842  0  0  0.137319  0  4.063889  0  0  0.138856  0  4.089628  0  0  0.082903  0.136089  0  4.046493  0
C  C37  1  0.88325493  0.82695550  0.89994537  1  0  0.134529  0  3.822854  0  0  0.136374  0  4.064909  0  0  0.137907  0  4.090657  0  0  0.082425  0.135146  0  4.047507  0
C  C38  1  0.38328607  0.82695636  0.59998808  1  0  0.135566  0  3.821414  0  0  0.137351  0  4.063483  0  0  0.138887  0  4.089225  0  0  0.082893  0.136121  0  4.046087  0
C  C39  1  0.11673871  0.17304535  0.10004824  1  0  0.134605  0  3.82294  0  0  0.136442  0  4.064933  0  0  0.137978  0  4.090687  0  0  0.082464  0.135213  0  4.04753  0
C  C40  1  0.59132551  0.24382657  0.46802087  1  0  -0.128971  0  3.694921  0  0  -0.160148  0  3.944483  0  0  -0.160188  0  3.964523  0  0  -0.08278  -0.159899  0  3.930935  0
C  C41  1  0.90864381  0.75618697  0.96796975  1  0  -0.128642  0  3.695293  0  0  -0.160046  0  3.944878  0  0  -0.160092  0  3.964947  0  0  -0.082728  -0.159782  0  3.931299  0
C  C42  1  0.40869286  0.75618184  0.53197004  1  0  -0.128987  0  3.694732  0  0  -0.16018  0  3.944273  0  0  -0.160217  0  3.964315  0  0  -0.082748  -0.159929  0  3.930724  0
C  C43  1  0.09133884  0.24381067  0.03202061  1  0  -0.128492  0  3.695468  0  0  -0.159931  0  3.945073  0  0  -0.159963  0  3.965113  0  0  -0.082672  -0.159674  0  3.931505  0
C  C44  1  0.66790499  0.16480917  0.52786901  1  0  -0.067822  0  3.74454  0  0  -0.04532  0  3.980251  0  0  -0.05483  0  4.006248  0  0  -0.022855  -0.039149  0  3.962728  0
C  C45  1  0.83202767  0.83520167  0.02780013  1  0  -0.068012  0  3.744315  0  0  -0.045336  0  3.979801  0  0  -0.054851  0  4.005793  0  0  -0.022568  -0.039168  0  3.962299  0
C  C46  1  0.33209956  0.83519367  0.47212676  1  0  -0.067829  0  3.744424  0  0  -0.045371  0  3.980136  0  0  -0.05488  0  4.00613  0  0  -0.022856  -0.039201  0  3.962614  0
C  C47  1  0.16796525  0.16481038  0.97219023  1  0  -0.068224  0  3.744645  0  0  -0.045592  0  3.980244  0  0  -0.055102  0  4.006222  0  0  -0.022727  -0.039423  0  3.962733  0
C  C48  1  0.77203786  0.02026000  0.51863677  1  0  -0.064098  0  3.751147  0  0  -0.089948  0  4.003431  0  0  -0.089864  0  4.025593  0  0  -0.085621  -0.089713  0  3.988268  0
C  C49  1  0.72790080  0.97975944  0.01853593  1  0  -0.062975  0  3.750971  0  0  -0.088785  0  4.003206  0  0  -0.088693  0  4.025316  0  0  -0.085497  -0.088575  0  3.988064  0
C  C50  1  0.22795578  0.97974086  0.48136386  1  0  -0.064086  0  3.751291  0  0  -0.089913  0  4.003546  0  0  -0.08982  0  4.025712  0  0  -0.085641  -0.089678  0  3.988383  0
C  C51  1  0.27207795  0.02024086  0.98145119  1  0  -0.063196  0  3.750937  0  0  -0.089099  0  4.00322  0  0  -0.088965  0  4.02535  0  0  -0.085512  -0.088868  0  3.98805  0
C  C52  1  0.80353033  0.95183053  0.45096668  1  0  -0.150578  0  3.758423  0  0  -0.166819  0  4.009515  0  0  -0.171535  0  4.030529  0  0  -0.093006  -0.163701  0  3.99522  0
C  C53  1  0.69643534  0.04817570  0.95084757  1  0  -0.15174  0  3.758821  0  0  -0.168049  0  4.009883  0  0  -0.172797  0  4.030927  0  0  -0.092883  -0.164909  0  3.995574  0
C  C54  1  0.19646976  0.04816507  0.54902909  1  0  -0.150629  0  3.758789  0  0  -0.166922  0  4.009844  0  0  -0.171641  0  4.030863  0  0  -0.093005  -0.163802  0  3.995546  0
C  C55  1  0.30355043  0.95182924  0.04913955  1  0  -0.151417  0  3.758745  0  0  -0.167806  0  4.009792  0  0  -0.172552  0  4.030831  0  0  -0.092864  -0.164669  0  3.995478  0
C  C56  1  0.72116639  0.02751891  0.39193892  1  0  0.166414  0  3.767831  0  0  0.155725  0  4.01355  0  0  0.160906  0  4.035023  0  0  0.098144  0.152277  0  3.999094  0
C  C57  1  0.77881075  0.97246663  0.89183597  1  0  0.167463  0  3.767259  0  0  0.15683  0  4.012502  0  0  0.162003  0  4.034006  0  0  0.098278  0.153389  0  3.998022  0
C  C58  1  0.27884192  0.97247879  0.60805523  1  0  0.166537  0  3.768114  0  0  0.155939  0  4.013723  0  0  0.161118  0  4.0352  0  0  0.098317  0.15249  0  3.999265  0
C  C59  1  0.22117808  0.02752081  0.10815440  1  0  0.167064  0  3.767779  0  0  0.156627  0  4.012775  0  0  0.161796  0  4.034281  0  0  0.09823  0.153185  0  3.998299  0
C  C60  1  0.64560491  0.23783045  0.60236478  1  0  0.643006  0  3.932419  0  0  0.593088  0  4.230382  0  0  0.627657  0  4.224608  0  0  0.193738  0.569628  0  4.233396  0
C  C61  1  0.85432546  0.76219868  0.10230856  1  0  0.642916  0  3.931487  0  0  0.593076  0  4.229347  0  0  0.627639  0  4.22355  0  0  0.193821  0.569619  0  4.232368  0
C  C62  1  0.35440092  0.76217109  0.39762612  1  0  0.642859  0  3.932524  0  0  0.593028  0  4.2304  0  0  0.627594  0  4.224606  0  0  0.19368  0.569568  0  4.233422  0
C  C63  1  0.14563544  0.23779624  0.89768288  1  0  0.643333  0  3.931475  0  0  0.593439  0  4.229436  0  0  0.627992  0  4.223639  0  0  0.193947  0.569985  0  4.232458  0
C  C64  1  0.48850267  0.48190544  0.15512877  1  0  0.657951  0  3.890995  0  0  0.607491  0  4.17301  0  0  0.643815  0  4.166297  0  0  0.202625  0.582798  0  4.17659  0
C  C65  1  0.01149492  0.51805928  0.65513018  1  0  0.657838  0  3.891531  0  0  0.607455  0  4.173415  0  0  0.643774  0  4.166714  0  0  0.202506  0.582762  0  4.176994  0
C  C66  1  0.51142039  0.51816067  0.84488483  1  0  0.657624  0  3.891388  0  0  0.607344  0  4.173173  0  0  0.643664  0  4.16647  0  0  0.202502  0.582652  0  4.176746  0
C  C67  1  0.98855958  0.48189537  0.34488180  1  0  0.657284  0  3.891262  0  0  0.607016  0  4.173066  0  0  0.64333  0  4.166366  0  0  0.202284  0.582327  0  4.17664  0
C  C68  1  0.49267527  0.48803291  0.07509564  1  0  -0.057801  0  3.753047  0  0  -0.035336  0  3.983974  0  0  -0.043363  0  4.006773  0  0  -0.015755  -0.030078  0  3.968655  0
C  C69  1  0.00734375  0.51193533  0.57510275  1  0  -0.058077  0  3.753091  0  0  -0.035482  0  3.983936  0  0  -0.043515  0  4.006732  0  0  -0.015755  -0.030225  0  3.968633  0
C  C70  1  0.50723711  0.51201136  0.92491634  1  0  -0.058152  0  3.753485  0  0  -0.035667  0  3.984371  0  0  -0.043681  0  4.007133  0  0  -0.015997  -0.030418  0  3.96909  0
C  C71  1  0.99275443  0.48800367  0.42491626  1  0  -0.057771  0  3.752913  0  0  -0.035299  0  3.983914  0  0  -0.043301  0  4.006662  0  0  -0.01595  -0.030054  0  3.968628  0
C  C72  1  0.63990607  0.42324813  0.03737421  1  0  -0.055063  0  3.723466  0  0  -0.081499  0  3.974434  0  0  -0.081767  0  3.994483  0  0  -0.08074  -0.081288  0  3.960913  0
C  C73  1  0.86011311  0.57671630  0.53735824  1  0  -0.054809  0  3.723115  0  0  -0.081296  0  3.97421  0  0  -0.081564  0  3.994258  0  0  -0.080733  -0.08108  0  3.960678  0
C  C74  1  0.36001866  0.57677573  0.96264425  1  0  -0.054544  0  3.723687  0  0  -0.081094  0  3.974713  0  0  -0.081366  0  3.994774  0  0  -0.080521  -0.080878  0  3.961168  0
C  C75  1  0.14001460  0.42324368  0.46265699  1  0  -0.055333  0  3.723518  0  0  -0.081833  0  3.97464  0  0  -0.082107  0  3.994686  0  0  -0.080843  -0.081609  0  3.961109  0
C  C76  1  0.64870844  0.43672827  0.96269847  1  0  -0.072536  0  3.720582  0  0  -0.09335  0  3.968824  0  0  -0.093813  0  3.987391  0  0  -0.081929  -0.092956  0  3.956339  0
C  C77  1  0.85129177  0.56325065  0.46268702  1  0  -0.072347  0  3.720144  0  0  -0.093455  0  3.968468  0  0  -0.093879  0  3.987074  0  0  -0.081975  -0.093058  0  3.95598  0
C  C78  1  0.35121571  0.56330926  0.03731405  1  0  -0.07277  0  3.720516  0  0  -0.093522  0  3.968632  0  0  -0.094021  0  3.987187  0  0  -0.081934  -0.093075  0  3.956174  0
C  C79  1  0.14881497  0.43669664  0.53733361  1  0  -0.07226  0  3.719902  0  0  -0.093264  0  3.968181  0  0  -0.09372  0  3.986754  0  0  -0.081791  -0.092869  0  3.955696  0
N  N80  1  0.55586461  0.22227289  0.33187638  1  0  -0.464547  0  3.184387  0  0  -0.390578  0  3.471129  0  0  -0.415749  0  3.486247  0  0  -0.357179  -0.373261  0  3.460314  0
N  N81  1  0.94415397  0.77770452  0.83182836  1  0  -0.464256  0  3.184765  0  0  -0.390436  0  3.471783  0  0  -0.415587  0  3.486874  0  0  -0.357143  -0.373129  0  3.460982  0
N  N82  1  0.44416114  0.77772278  0.66811939  1  0  -0.464483  0  3.184337  0  0  -0.390539  0  3.471112  0  0  -0.415714  0  3.486236  0  0  -0.357301  -0.37322  0  3.460289  0
N  N83  1  0.05582492  0.22229825  0.16816470  1  0  -0.464294  0  3.184916  0  0  -0.390469  0  3.47192  0  0  -0.415626  0  3.487015  0  0  -0.357085  -0.373161  0  3.46112  0
N  N84  1  0.71886075  0.99253340  0.31850514  1  0  -0.327834  0  3.351566  0  0  -0.268773  0  3.589344  0  0  -0.285517  0  3.599084  0  0  -0.365172  -0.257522  0  3.582501  0
N  N85  1  0.78117765  0.00746558  0.81840332  1  0  -0.328714  0  3.351849  0  0  -0.269063  0  3.589158  0  0  -0.285806  0  3.598898  0  0  -0.36537  -0.257803  0  3.582316  0
N  N86  1  0.28113942  0.00746344  0.68148738  1  0  -0.327833  0  3.351322  0  0  -0.26877  0  3.58903  0  0  -0.285514  0  3.598778  0  0  -0.365194  -0.257518  0  3.582179  0
N  N87  1  0.21880041  0.99252235  0.18158326  1  0  -0.328344  0  3.351855  0  0  -0.268673  0  3.589206  0  0  -0.285413  0  3.598941  0  0  -0.365217  -0.257418  0  3.582373  0
O  O88  1  0.72288319  0.17642378  0.65622489  1  0  -0.634638  0  1.85501  0  0  -0.593656  0  2.070695  0  0  -0.616201  0  2.061528  0  0  -0.347043  -0.577819  0  2.076469  0
O  O89  1  0.77704504  0.82359113  0.15615125  1  0  -0.63419  0  1.854451  0  0  -0.593285  0  2.070073  0  0  -0.615814  0  2.060902  0  0  -0.346924  -0.577449  0  2.075844  0
O  O90  1  0.27710175  0.82356631  0.34376818  1  0  -0.634527  0  1.855093  0  0  -0.593564  0  2.070702  0  0  -0.616108  0  2.061548  0  0  -0.34701  -0.577724  0  2.076471  0
O  O91  1  0.22293163  0.17644400  0.84384019  1  0  -0.634469  0  1.854611  0  0  -0.593511  0  2.070218  0  0  -0.616021  0  2.061034  0  0  -0.347088  -0.577671  0  2.075977  0
O  O92  1  0.54291489  0.36879810  0.60397163  1  0  -0.683178  0  2.069089  0  0  -0.602219  0  2.337757  0  0  -0.635628  0  2.325992  0  0  -0.341861  -0.578566  0  2.344815  0
O  O93  1  0.95703399  0.63123591  0.10394458  1  0  -0.683439  0  2.068618  0  0  -0.602542  0  2.337218  0  0  -0.636028  0  2.325619  0  0  -0.342086  -0.578875  0  2.344268  0
O  O94  1  0.45710794  0.63121754  0.39602576  1  0  -0.683231  0  2.069166  0  0  -0.602315  0  2.337751  0  0  -0.635764  0  2.326107  0  0  -0.341937  -0.578666  0  2.344821  0
O  O95  1  0.04291260  0.36874478  0.89605226  1  0  -0.683535  0  2.068426  0  0  -0.602585  0  2.336977  0  0  -0.636089  0  2.325444  0  0  -0.342112  -0.578934  0  2.344041  0
O  O96  1  0.62029537  0.41766952  0.19012113  1  0  -0.701288  0  2.065628  0  0  -0.623345  0  2.32683  0  0  -0.656087  0  2.313884  0  0  -0.33395  -0.600209  0  2.334845  0
O  O97  1  0.87973061  0.58231375  0.69010141  1  0  -0.701168  0  2.066233  0  0  -0.623222  0  2.327344  0  0  -0.655957  0  2.3144  0  0  -0.333881  -0.600092  0  2.335364  0
O  O98  1  0.37966759  0.58240965  0.80989247  1  0  -0.701012  0  2.065935  0  0  -0.623211  0  2.327156  0  0  -0.655945  0  2.314219  0  0  -0.333988  -0.600081  0  2.335165  0
O  O99  1  0.12030819  0.41760193  0.30990138  1  0  -0.701072  0  2.0657  0  0  -0.623219  0  2.326849  0  0  -0.65596  0  2.31391  0  0  -0.333909  -0.600085  0  2.334861  0
O  O100  1  0.35148384  0.54012342  0.18860627  1  0  -0.640163  0  1.972509  0  0  -0.572555  0  2.223742  0  0  -0.602559  0  2.210199  0  0  -0.322993  -0.551528  0  2.232411  0
O  O101  1  0.14852689  0.45982110  0.68863175  1  0  -0.64038  0  1.971927  0  0  -0.572775  0  2.223011  0  0  -0.602785  0  2.209471  0  0  -0.32311  -0.551744  0  2.231685  0
O  O102  1  0.64847807  0.45993719  0.81141219  1  0  -0.640073  0  1.972112  0  0  -0.572472  0  2.223195  0  0  -0.602488  0  2.209668  0  0  -0.322831  -0.551435  0  2.23186  0
O  O103  1  0.85153987  0.54013546  0.31139752  1  0  -0.639786  0  1.97216  0  0  -0.572213  0  2.223198  0  0  -0.602211  0  2.209657  0  0  -0.322679  -0.551188  0  2.231867  0
