# generated using pymatgen
data_AgH12C18(NO)3
_symmetry_space_group_name_H-M   'P 1'
_cell_length_a   8.14826563
_cell_length_b   10.85702349
_cell_length_c   17.98592332
_cell_angle_alpha   103.58021630
_cell_angle_beta   89.99942626
_cell_angle_gamma   90.00075021
_symmetry_Int_Tables_number   1
_chemical_formula_structural   AgH12C18(NO)3
_chemical_formula_sum   'Ag4 H48 C72 N12 O12'
_cell_volume   1546.65619107
_cell_formula_units_Z   4
loop_
 _symmetry_equiv_pos_site_id
 _symmetry_equiv_pos_as_xyz
  1  'x, y, z'
loop_
 _atom_site_type_symbol
 _atom_site_label
 _atom_site_symmetry_multiplicity
 _atom_site_fract_x
 _atom_site_fract_y
 _atom_site_fract_z
 _atom_site_occupancy
 _atom_site_hle17_bader_spin_density
 _atom_site_hle17_ddec_charge
 _atom_site_hle17_ddec_spin_density
 _atom_site_hle17_ddec_sum_bond_order
 _atom_site_hle17_magmom
 _atom_site_hse06_10hf_bader_spin_density
 _atom_site_hse06_10hf_ddec_charge
 _atom_site_hse06_10hf_ddec_spin_density
 _atom_site_hse06_10hf_ddec_sum_bond_order
 _atom_site_hse06_10hf_magmom
 _atom_site_hse06_bader_spin_density
 _atom_site_hse06_ddec_charge
 _atom_site_hse06_ddec_spin_density
 _atom_site_hse06_ddec_sum_bond_order
 _atom_site_hse06_magmom
 _atom_site_pbe_bader_spin_density
 _atom_site_pbe_cm5_charge
 _atom_site_pbe_ddec_charge
 _atom_site_pbe_ddec_spin_density
 _atom_site_pbe_ddec_sum_bond_order
 _atom_site_pbe_magmom
Ag  Ag0  1  0.89741844  0.49156554  0.34548837  1  0  0.538718  0  1.392352  0  0  0.397259  0  1.839999  0  0  0.428021  0  1.789956  0  0  0.453044  0.378348  0  1.873461  0
Ag  Ag1  1  0.39741860  0.50843584  0.15451155  1  0  0.53873  0  1.392348  0  0  0.397255  0  1.839977  0  0  0.428023  0  1.789937  0  0  0.45303  0.378346  0  1.87343  0
Ag  Ag2  1  0.10258713  0.50843464  0.65451091  1  0  0.538711  0  1.39235  0  0  0.397233  0  1.840007  0  0  0.428  0  1.789963  0  0  0.453025  0.378319  0  1.873459  0
Ag  Ag3  1  0.60258330  0.49156433  0.84548940  1  0  0.538723  0  1.392381  0  0  0.397234  0  1.840047  0  0  0.427999  0  1.790008  0  0  0.453037  0.378322  0  1.873501  0
H  H4  1  0.70501761  0.33724358  0.59068248  1  0  0.103794  0  0.974664  0  0  0.114844  0  1.033553  0  0  0.117542  0  1.033335  0  0  0.105733  0.11284  0  1.034041  0
H  H5  1  0.20500991  0.66274962  0.90931765  1  0  0.10381  0  0.97469  0  0  0.114881  0  1.033556  0  0  0.117582  0  1.033331  0  0  0.105735  0.112877  0  1.034048  0
H  H6  1  0.29498306  0.66275660  0.40931681  1  0  0.103812  0  0.974621  0  0  0.11485  0  1.033525  0  0  0.117547  0  1.033308  0  0  0.105728  0.112851  0  1.034011  0
H  H7  1  0.79499321  0.33724677  0.09068220  1  0  0.103839  0  0.974636  0  0  0.114911  0  1.033491  0  0  0.117612  0  1.033266  0  0  0.105753  0.11291  0  1.033982  0
H  H8  1  0.56426098  0.53081227  0.65952290  1  0  0.108084  0  0.9544  0  0  0.117496  0  1.017703  0  0  0.12065  0  1.015023  0  0  0.107396  0.114996  0  1.019901  0
H  H9  1  0.06426001  0.46917499  0.84047756  1  0  0.108091  0  0.954361  0  0  0.117467  0  1.01771  0  0  0.120622  0  1.01503  0  0  0.107397  0.114971  0  1.019913  0
H  H10  1  0.43573969  0.46918697  0.34047569  1  0  0.108037  0  0.954395  0  0  0.117458  0  1.017701  0  0  0.120605  0  1.015028  0  0  0.107381  0.11496  0  1.019899  0
H  H11  1  0.93574311  0.53082235  0.15952242  1  0  0.108069  0  0.954383  0  0  0.117448  0  1.017732  0  0  0.120602  0  1.015052  0  0  0.107378  0.114954  0  1.019933  0
H  H12  1  0.48742816  0.76056904  0.66580098  1  0  0.10173  0  0.944288  0  0  0.112683  0  1.005038  0  0  0.114914  0  1.005151  0  0  0.104563  0.110978  0  1.005177  0
H  H13  1  0.98743244  0.23941514  0.83420211  1  0  0.101714  0  0.944325  0  0  0.112673  0  1.005078  0  0  0.114902  0  1.005191  0  0  0.104578  0.110974  0  1.005213  0
H  H14  1  0.51257128  0.23943020  0.33419761  1  0  0.101751  0  0.944267  0  0  0.112695  0  1.005042  0  0  0.114926  0  1.005155  0  0  0.104566  0.110989  0  1.005187  0
H  H15  1  0.01256700  0.76058503  0.16579828  1  0  0.101726  0  0.944332  0  0  0.112682  0  1.005089  0  0  0.114909  0  1.005204  0  0  0.104569  0.110977  0  1.005227  0
H  H16  1  0.49206699  0.94320579  0.60562802  1  0  0.084932  0  0.961535  0  0  0.096312  0  1.023165  0  0  0.098713  0  1.023043  0  0  0.09844  0.094565  0  1.02348  0
H  H17  1  0.99207166  0.05678220  0.89437727  1  0  0.08503  0  0.961349  0  0  0.096289  0  1.023107  0  0  0.098685  0  1.022993  0  0  0.098473  0.09455  0  1.023413  0
H  H18  1  0.50793122  0.05679439  0.39437126  1  0  0.084938  0  0.961529  0  0  0.096303  0  1.023172  0  0  0.098702  0  1.023053  0  0  0.098444  0.094558  0  1.023481  0
H  H19  1  0.00791919  0.94321702  0.10562299  1  0  0.084998  0  0.961436  0  0  0.096279  0  1.023166  0  0  0.098675  0  1.023054  0  0  0.098455  0.09454  0  1.023472  0
H  H20  1  0.62411351  0.92349416  0.47788107  1  0  0.080419  0  0.960438  0  0  0.094698  0  1.018046  0  0  0.096796  0  1.017532  0  0  0.098224  0.09331  0  1.018132  0
H  H21  1  0.12411641  0.07649821  0.02212491  1  0  0.08035  0  0.96061  0  0  0.094665  0  1.018189  0  0  0.096767  0  1.017678  0  0  0.098222  0.093281  0  1.018268  0
H  H22  1  0.37588592  0.07650602  0.52211821  1  0  0.080448  0  0.960437  0  0  0.094718  0  1.018053  0  0  0.096816  0  1.017537  0  0  0.098222  0.093332  0  1.018136  0
H  H23  1  0.87587935  0.92350007  0.97787521  1  0  0.0804  0  0.960586  0  0  0.094705  0  1.018172  0  0  0.096806  0  1.017661  0  0  0.09825  0.093321  0  1.018253  0
H  H24  1  0.75890557  0.72083893  0.41185446  1  0  0.104971  0  0.955781  0  0  0.117952  0  1.016806  0  0  0.121649  0  1.01365  0  0  0.102163  0.114998  0  1.019471  0
H  H25  1  0.25890687  0.27915936  0.08814843  1  0  0.104954  0  0.95578  0  0  0.117924  0  1.016824  0  0  0.121626  0  1.013662  0  0  0.102126  0.114974  0  1.019486  0
H  H26  1  0.24109632  0.27916220  0.58814552  1  0  0.104927  0  0.955787  0  0  0.11792  0  1.016802  0  0  0.121607  0  1.013659  0  0  0.102138  0.114965  0  1.019465  0
H  H27  1  0.74109257  0.72083703  0.91185142  1  0  0.104931  0  0.955797  0  0  0.117896  0  1.016851  0  0  0.121604  0  1.013682  0  0  0.102115  0.114946  0  1.019501  0
H  H28  1  0.78797203  0.17908166  0.52501480  1  0  0.108279  0  0.954225  0  0  0.121879  0  1.008423  0  0  0.125138  0  1.007202  0  0  0.108512  0.119511  0  1.009351  0
H  H29  1  0.28797055  0.82091414  0.97498421  1  0  0.1082  0  0.954212  0  0  0.121818  0  1.008397  0  0  0.125079  0  1.007173  0  0  0.108481  0.119452  0  1.009322  0
H  H30  1  0.21202863  0.82092040  0.47498587  1  0  0.108234  0  0.954257  0  0  0.121836  0  1.008452  0  0  0.125095  0  1.007231  0  0  0.108495  0.119472  0  1.009376  0
H  H31  1  0.71203011  0.17908319  0.02501522  1  0  0.108249  0  0.954223  0  0  0.121853  0  1.008418  0  0  0.125112  0  1.007196  0  0  0.108514  0.11949  0  1.009346  0
H  H32  1  0.92741823  0.98905169  0.44715684  1  0  0.092439  0  0.953984  0  0  0.105951  0  1.013549  0  0  0.108165  0  1.012427  0  0  0.10619  0.104384  0  1.014208  0
H  H33  1  0.42741439  0.01094713  0.05284034  1  0  0.092447  0  0.953985  0  0  0.105981  0  1.013527  0  0  0.108194  0  1.012405  0  0  0.106218  0.104414  0  1.014186  0
H  H34  1  0.07258366  0.01094943  0.55284424  1  0  0.092424  0  0.953977  0  0  0.105913  0  1.013567  0  0  0.108128  0  1.012444  0  0  0.106181  0.104345  0  1.014223  0
H  H35  1  0.57258382  0.98905211  0.94715825  1  0  0.092414  0  0.954004  0  0  0.105952  0  1.013536  0  0  0.108168  0  1.012413  0  0  0.106201  0.104387  0  1.014193  0
H  H36  1  0.10720973  0.89233842  0.33453534  1  0  0.098617  0  0.9871  0  0  0.101582  0  1.061538  0  0  0.105804  0  1.058041  0  0  0.096232  0.098646  0  1.063802  0
H  H37  1  0.60720931  0.10766621  0.16546303  1  0  0.098678  0  0.987142  0  0  0.101645  0  1.061567  0  0  0.105865  0  1.058079  0  0  0.096261  0.098711  0  1.063835  0
H  H38  1  0.89279093  0.10766177  0.66546394  1  0  0.098613  0  0.987136  0  0  0.101576  0  1.061576  0  0  0.105799  0  1.058077  0  0  0.096244  0.098641  0  1.063844  0
H  H39  1  0.39278399  0.89233489  0.83453916  1  0  0.098684  0  0.987126  0  0  0.101645  0  1.061568  0  0  0.105869  0  1.058075  0  0  0.096266  0.098714  0  1.063832  0
H  H40  1  0.25545503  0.91651185  0.21971807  1  0  0.092494  0  0.971391  0  0  0.101495  0  1.034206  0  0  0.103439  0  1.035104  0  0  0.09881  0.099917  0  1.033924  0
H  H41  1  0.75546269  0.08349028  0.28027593  1  0  0.092469  0  0.971438  0  0  0.10148  0  1.034219  0  0  0.10343  0  1.035107  0  0  0.0988  0.099906  0  1.033934  0
H  H42  1  0.74454318  0.08348835  0.78028010  1  0  0.092514  0  0.971339  0  0  0.101496  0  1.034168  0  0  0.103458  0  1.035046  0  0  0.098814  0.099921  0  1.033883  0
H  H43  1  0.24452570  0.91651176  0.71972696  1  0  0.092505  0  0.971375  0  0  0.101506  0  1.034178  0  0  0.103455  0  1.035066  0  0  0.098792  0.099928  0  1.033894  0
H  H44  1  0.26108407  0.12577589  0.18395013  1  0  0.086432  0  0.954129  0  0  0.099893  0  1.011982  0  0  0.101979  0  1.011486  0  0  0.098968  0.098216  0  1.012586  0
H  H45  1  0.76108758  0.87422535  0.31604261  1  0  0.08651  0  0.954141  0  0  0.099903  0  1.012049  0  0  0.101982  0  1.011561  0  0  0.09896  0.098232  0  1.012645  0
H  H46  1  0.73891414  0.87422336  0.81604790  1  0  0.086463  0  0.95406  0  0  0.099924  0  1.011915  0  0  0.102009  0  1.01142  0  0  0.098986  0.098256  0  1.012507  0
H  H47  1  0.23890572  0.12577576  0.68395903  1  0  0.0865  0  0.954185  0  0  0.099902  0  1.012092  0  0  0.101982  0  1.011602  0  0  0.098959  0.098228  0  1.012678  0
H  H48  1  0.11744810  0.31209493  0.26480242  1  0  0.111463  0  0.967369  0  0  0.120067  0  1.03427  0  0  0.123791  0  1.031033  0  0  0.102068  0.117118  0  1.036981  0
H  H49  1  0.61744524  0.68790697  0.23519274  1  0  0.111415  0  0.967429  0  0  0.120026  0  1.034316  0  0  0.123747  0  1.031086  0  0  0.102109  0.117079  0  1.037014  0
H  H50  1  0.88255133  0.68790526  0.73519631  1  0  0.111463  0  0.967376  0  0  0.120069  0  1.03428  0  0  0.123793  0  1.031042  0  0  0.102082  0.117119  0  1.036984  0
H  H51  1  0.38255543  0.31209132  0.76480572  1  0  0.111409  0  0.967416  0  0  0.120018  0  1.034308  0  0  0.123739  0  1.031078  0  0  0.102088  0.11707  0  1.037012  0
C  C52  1  0.78152030  0.41742096  0.49555871  1  0  0.189926  0  3.7484  0  0  0.182925  0  3.998658  0  0  0.191806  0  4.015453  0  0  0.124877  0.177133  0  3.987232  0
C  C53  1  0.28151403  0.58257564  0.00444216  1  0  0.189838  0  3.748388  0  0  0.182806  0  3.998631  0  0  0.191687  0  4.015426  0  0  0.124915  0.177019  0  3.987201  0
C  C54  1  0.21848281  0.58258113  0.50444030  1  0  0.189925  0  3.748364  0  0  0.182929  0  3.998565  0  0  0.191811  0  4.015359  0  0  0.124924  0.177141  0  3.987142  0
C  C55  1  0.71848786  0.41742168  0.99555838  1  0  0.18987  0  3.748469  0  0  0.182842  0  3.99872  0  0  0.191723  0  4.015516  0  0  0.124985  0.177051  0  3.987296  0
C  C56  1  0.70400243  0.42012206  0.56661507  1  0  -0.148933  0  3.719175  0  0  -0.171695  0  3.979774  0  0  -0.178939  0  4.000107  0  0  -0.087014  -0.167405  0  3.96652  0
C  C57  1  0.20399889  0.57987112  0.93338506  1  0  -0.148973  0  3.719112  0  0  -0.171748  0  3.979691  0  0  -0.178993  0  4.000021  0  0  -0.08704  -0.167458  0  3.966442  0
C  C58  1  0.29599946  0.57987907  0.43338435  1  0  -0.149016  0  3.719162  0  0  -0.171777  0  3.979788  0  0  -0.179024  0  4.000122  0  0  -0.087057  -0.167496  0  3.966545  0
C  C59  1  0.79600423  0.42012620  0.06661548  1  0  -0.149054  0  3.719199  0  0  -0.171814  0  3.979755  0  0  -0.17906  0  4.000087  0  0  -0.08713  -0.167527  0  3.966512  0
C  C60  1  0.62539604  0.52846414  0.60526378  1  0  -0.026153  0  3.665268  0  0  -0.05214  0  3.917715  0  0  -0.04876  0  3.934586  0  0  -0.063142  -0.054211  0  3.906682  0
C  C61  1  0.12539391  0.47152552  0.89473730  1  0  -0.026359  0  3.665035  0  0  -0.052231  0  3.917603  0  0  -0.048852  0  3.93447  0  0  -0.063234  -0.054301  0  3.906572  0
C  C62  1  0.37460462  0.47153699  0.39473564  1  0  -0.026019  0  3.665211  0  0  -0.052038  0  3.917659  0  0  -0.04865  0  3.934531  0  0  -0.063094  -0.054107  0  3.906634  0
C  C63  1  0.87460675  0.52847275  0.10526281  1  0  -0.026375  0  3.66516  0  0  -0.052246  0  3.917775  0  0  -0.048866  0  3.934644  0  0  -0.063201  -0.054323  0  3.906751  0
C  C64  1  0.62257464  0.63656215  0.57406089  1  0  0.01919  0  3.769492  0  0  0.038447  0  3.994039  0  0  0.035279  0  4.018574  0  0  -0.003513  0.040127  0  3.977719  0
C  C65  1  0.12257730  0.36342748  0.92594132  1  0  0.019576  0  3.768999  0  0  0.038563  0  3.993974  0  0  0.035394  0  4.018508  0  0  -0.003408  0.040242  0  3.977657  0
C  C66  1  0.37742602  0.36343897  0.42593964  1  0  0.01915  0  3.769528  0  0  0.038468  0  3.994031  0  0  0.0353  0  4.018566  0  0  -0.003532  0.040144  0  3.977716  0
C  C67  1  0.87742337  0.63656984  0.07405922  1  0  0.019726  0  3.768934  0  0  0.038622  0  3.994008  0  0  0.035454  0  4.018542  0  0  -0.003402  0.040299  0  3.977685  0
C  C68  1  0.54633940  0.75241231  0.61039784  1  0  -0.091233  0  3.717044  0  0  -0.112649  0  3.966407  0  0  -0.114657  0  3.989063  0  0  -0.083051  -0.111029  0  3.951122  0
C  C69  1  0.04634329  0.24757571  0.88960559  1  0  -0.091362  0  3.7171  0  0  -0.112688  0  3.966517  0  0  -0.114693  0  3.989169  0  0  -0.083119  -0.111072  0  3.951235  0
C  C70  1  0.45366127  0.24758787  0.38960144  1  0  -0.091228  0  3.716971  0  0  -0.112661  0  3.966316  0  0  -0.11467  0  3.988972  0  0  -0.083037  -0.111036  0  3.951028  0
C  C71  1  0.95365492  0.75242350  0.11039578  1  0  -0.091359  0  3.717081  0  0  -0.112663  0  3.966518  0  0  -0.114669  0  3.989171  0  0  -0.083083  -0.111041  0  3.951241  0
C  C72  1  0.54855831  0.85389326  0.57646102  1  0  -0.069627  0  3.780614  0  0  -0.085528  0  4.035925  0  0  -0.088751  0  4.059271  0  0  -0.090159  -0.083579  0  4.020171  0
C  C73  1  0.04856090  0.14609477  0.92354351  1  0  -0.069602  0  3.780459  0  0  -0.085376  0  4.035738  0  0  -0.088595  0  4.059079  0  0  -0.090071  -0.083432  0  4.01999  0
C  C74  1  0.45144113  0.14610691  0.42353937  1  0  -0.069651  0  3.780597  0  0  -0.085526  0  4.035907  0  0  -0.088749  0  4.059253  0  0  -0.090167  -0.083576  0  4.02015  0
C  C75  1  0.95143363  0.85390445  0.07645786  1  0  -0.069567  0  3.780625  0  0  -0.085357  0  4.035885  0  0  -0.088575  0  4.059227  0  0  -0.090057  -0.083421  0  4.020139  0
C  C76  1  0.62449787  0.84281167  0.50434642  1  0  -0.05936  0  3.781391  0  0  -0.073391  0  4.030032  0  0  -0.074295  0  4.052555  0  0  -0.090423  -0.072572  0  4.014232  0
C  C77  1  0.12450274  0.15718459  0.99565896  1  0  -0.059315  0  3.781622  0  0  -0.073361  0  4.030208  0  0  -0.074277  0  4.052745  0  0  -0.090504  -0.072546  0  4.014412  0
C  C78  1  0.37550279  0.15718946  0.49565356  1  0  -0.059409  0  3.781439  0  0  -0.073433  0  4.030076  0  0  -0.074337  0  4.052593  0  0  -0.090425  -0.072625  0  4.014279  0
C  C79  1  0.87549301  0.84281462  0.00434296  1  0  -0.059424  0  3.781572  0  0  -0.073471  0  4.030183  0  0  -0.074384  0  4.052716  0  0  -0.090551  -0.072659  0  4.014386  0
C  C80  1  0.69956481  0.73138387  0.46745047  1  0  -0.143671  0  3.717908  0  0  -0.163074  0  3.964883  0  0  -0.168068  0  3.986569  0  0  -0.087574  -0.159401  0  3.950062  0
C  C81  1  0.19956593  0.26861108  0.03255164  1  0  -0.143774  0  3.718036  0  0  -0.163143  0  3.96505  0  0  -0.16814  0  3.986734  0  0  -0.087557  -0.159477  0  3.95023  0
C  C82  1  0.30043708  0.26861726  0.53254895  1  0  -0.143573  0  3.717906  0  0  -0.162983  0  3.964895  0  0  -0.167968  0  3.986582  0  0  -0.087527  -0.159306  0  3.950062  0
C  C83  1  0.80043228  0.73138625  0.96744889  1  0  -0.143721  0  3.717977  0  0  -0.163098  0  3.964959  0  0  -0.168099  0  3.986641  0  0  -0.087546  -0.15942  0  3.950126  0
C  C84  1  0.70173699  0.62631697  0.50177714  1  0  0.205395  0  3.784142  0  0  0.203497  0  4.018391  0  0  0.208851  0  4.042311  0  0  0.10956  0.199976  0  4.002105  0
C  C85  1  0.20174067  0.37367808  0.99822438  1  0  0.205448  0  3.783734  0  0  0.203534  0  4.018185  0  0  0.208889  0  4.042104  0  0  0.109646  0.20002  0  4.001892  0
C  C86  1  0.29826491  0.37368510  0.49822297  1  0  0.205349  0  3.784097  0  0  0.203405  0  4.018392  0  0  0.208758  0  4.042311  0  0  0.109546  0.199885  0  4.0021  0
C  C87  1  0.79825876  0.62631924  0.00177672  1  0  0.205274  0  3.783984  0  0  0.203449  0  4.018365  0  0  0.208803  0  4.042285  0  0  0.109578  0.199933  0  4.002067  0
C  C88  1  0.86747795  0.30194072  0.45163421  1  0  0.19378  0  3.730887  0  0  0.186713  0  3.977836  0  0  0.195084  0  3.995401  0  0  0.125663  0.180908  0  3.966201  0
C  C89  1  0.36747150  0.69805757  0.04836484  1  0  0.193949  0  3.730482  0  0  0.186982  0  3.977251  0  0  0.195352  0  3.994815  0  0  0.125694  0.181174  0  3.965622  0
C  C90  1  0.13252639  0.69806135  0.54836535  1  0  0.193895  0  3.730536  0  0  0.186875  0  3.977426  0  0  0.195245  0  3.994992  0  0  0.125702  0.181064  0  3.9658  0
C  C91  1  0.63253040  0.30194071  0.95163528  1  0  0.193931  0  3.730502  0  0  0.186972  0  3.977261  0  0  0.195343  0  3.994824  0  0  0.12569  0.181168  0  3.965635  0
C  C92  1  0.85816427  0.18553280  0.47466621  1  0  -0.148247  0  3.732218  0  0  -0.167977  0  3.986899  0  0  -0.174765  0  4.007384  0  0  -0.086017  -0.163434  0  3.973087  0
C  C93  1  0.35815790  0.81446446  0.02533385  1  0  -0.148118  0  3.731957  0  0  -0.167892  0  3.98662  0  0  -0.174679  0  4.007105  0  0  -0.085964  -0.163355  0  3.972814  0
C  C94  1  0.14184008  0.81446832  0.52533432  1  0  -0.148197  0  3.732145  0  0  -0.167934  0  3.986806  0  0  -0.174722  0  4.007294  0  0  -0.085985  -0.1634  0  3.973003  0
C  C95  1  0.64184153  0.18553289  0.97466502  1  0  -0.148236  0  3.732083  0  0  -0.168011  0  3.986764  0  0  -0.174798  0  4.007248  0  0  -0.086046  -0.16348  0  3.97297  0
C  C96  1  0.93574843  0.08020615  0.43170364  1  0  -0.061711  0  3.736244  0  0  -0.085916  0  3.987274  0  0  -0.083108  0  4.004989  0  0  -0.072279  -0.087808  0  3.975246  0
C  C97  1  0.43574296  0.91979463  0.06829490  1  0  -0.061842  0  3.736183  0  0  -0.086094  0  3.987256  0  0  -0.083285  0  4.004968  0  0  -0.072369  -0.087984  0  3.97523  0
C  C98  1  0.06425592  0.91979497  0.56829689  1  0  -0.061726  0  3.736171  0  0  -0.085904  0  3.987225  0  0  -0.083098  0  4.004941  0  0  -0.072301  -0.087794  0  3.975195  0
C  C99  1  0.56425648  0.08020461  0.93170425  1  0  -0.061751  0  3.736241  0  0  -0.086017  0  3.987286  0  0  -0.08321  0  4.004999  0  0  -0.072355  -0.08791  0  3.975263  0
C  C100  1  0.02649070  0.08848525  0.36603677  1  0  0.017094  0  3.801539  0  0  0.036559  0  4.024051  0  0  0.033792  0  4.048813  0  0  -0.00513  0.038334  0  4.007354  0
C  C101  1  0.52648785  0.91151681  0.13396049  1  0  0.017154  0  3.801421  0  0  0.03664  0  4.023903  0  0  0.033876  0  4.048661  0  0  -0.005054  0.038421  0  4.007207  0
C  C102  1  0.97351364  0.91151588  0.63396320  1  0  0.017142  0  3.801453  0  0  0.036565  0  4.024008  0  0  0.033798  0  4.048769  0  0  -0.005109  0.038343  0  4.007313  0
C  C103  1  0.47351036  0.08848147  0.86603963  1  0  0.017122  0  3.801431  0  0  0.03667  0  4.023843  0  0  0.033907  0  4.048603  0  0  -0.005055  0.038451  0  4.007147  0
C  C104  1  0.10945044  0.98390865  0.31944306  1  0  -0.108375  0  3.734289  0  0  -0.12645  0  3.981067  0  0  -0.129588  0  4.002269  0  0  -0.089249  -0.124214  0  3.966738  0
C  C105  1  0.60945054  0.01609507  0.18055406  1  0  -0.108474  0  3.734268  0  0  -0.126565  0  3.981055  0  0  -0.129707  0  4.00226  0  0  -0.089325  -0.124331  0  3.966731  0
C  C106  1  0.89055022  0.01609248  0.68055691  1  0  -0.108328  0  3.734308  0  0  -0.126388  0  3.981088  0  0  -0.129526  0  4.002293  0  0  -0.089242  -0.124155  0  3.966768  0
C  C107  1  0.39054276  0.98390605  0.81944703  1  0  -0.108498  0  3.734269  0  0  -0.126621  0  3.981071  0  0  -0.129767  0  4.002278  0  0  -0.089314  -0.124391  0  3.966744  0
C  C108  1  0.19140614  0.99760116  0.25480791  1  0  -0.058972  0  3.751136  0  0  -0.074014  0  4.003167  0  0  -0.076565  0  4.026447  0  0  -0.087589  -0.072405  0  3.987788  0
C  C109  1  0.69141316  0.00240041  0.24518797  1  0  -0.058839  0  3.750989  0  0  -0.073882  0  4.003017  0  0  -0.076431  0  4.026287  0  0  -0.087481  -0.07227  0  3.987637  0
C  C110  1  0.80859330  0.00239902  0.74519137  1  0  -0.059023  0  3.75112  0  0  -0.074051  0  4.00316  0  0  -0.076614  0  4.02643  0  0  -0.087612  -0.072444  0  3.987786  0
C  C111  1  0.30857892  0.99760070  0.75481423  1  0  -0.058832  0  3.750945  0  0  -0.073869  0  4.002987  0  0  -0.076417  0  4.02626  0  0  -0.087501  -0.072255  0  3.987598  0
C  C112  1  0.19392189  0.11602974  0.23472570  1  0  -0.05391  0  3.756571  0  0  -0.068023  0  4.004507  0  0  -0.069128  0  4.026831  0  0  -0.085277  -0.06715  0  3.989635  0
C  C113  1  0.69392547  0.88397187  0.26526851  1  0  -0.05407  0  3.756499  0  0  -0.068123  0  4.00443  0  0  -0.069225  0  4.026751  0  0  -0.085297  -0.06725  0  3.989549  0
C  C114  1  0.80608000  0.88397044  0.76527359  1  0  -0.053941  0  3.756474  0  0  -0.06805  0  4.004404  0  0  -0.069155  0  4.026731  0  0  -0.085289  -0.067182  0  3.989526  0
C  C115  1  0.30606906  0.11602925  0.73473257  1  0  -0.054149  0  3.756615  0  0  -0.068216  0  4.004556  0  0  -0.069317  0  4.026875  0  0  -0.085309  -0.067331  0  3.989682  0
C  C116  1  0.11544549  0.22005392  0.27938229  1  0  -0.132013  0  3.702723  0  0  -0.149881  0  3.947323  0  0  -0.154529  0  3.968129  0  0  -0.083712  -0.146971  0  3.933749  0
C  C117  1  0.61544700  0.77994985  0.22061425  1  0  -0.13195  0  3.702696  0  0  -0.149827  0  3.947303  0  0  -0.154473  0  3.968102  0  0  -0.083758  -0.146911  0  3.93371  0
C  C118  1  0.88455518  0.77994720  0.72061824  1  0  -0.131982  0  3.702757  0  0  -0.149863  0  3.947366  0  0  -0.154512  0  3.968171  0  0  -0.083716  -0.146951  0  3.933781  0
C  C119  1  0.38455121  0.22005033  0.77938503  1  0  -0.131876  0  3.702691  0  0  -0.149761  0  3.947307  0  0  -0.154405  0  3.968104  0  0  -0.083754  -0.146851  0  3.933722  0
C  C120  1  0.02967179  0.20864342  0.34602085  1  0  0.199361  0  3.772702  0  0  0.19902  0  4.005592  0  0  0.204545  0  4.028036  0  0  0.111462  0.195325  0  3.99055  0
C  C121  1  0.52966639  0.79135961  0.15397709  1  0  0.199415  0  3.772737  0  0  0.199049  0  4.005631  0  0  0.204575  0  4.028072  0  0  0.111463  0.195352  0  3.99059  0
C  C122  1  0.97033255  0.79135770  0.65397968  1  0  0.199311  0  3.772838  0  0  0.199002  0  4.005715  0  0  0.204528  0  4.028157  0  0  0.111493  0.195305  0  3.99067  0
C  C123  1  0.47033304  0.20864058  0.84602219  1  0  0.199414  0  3.772659  0  0  0.199045  0  4.005517  0  0  0.204568  0  4.027961  0  0  0.111523  0.195351  0  3.990476  0
N  N124  1  0.14958398  0.63301922  0.27825186  1  0  0.703328  0  4.113884  0  0  0.718539  0  4.416554  0  0  0.747571  0  4.424201  0  0  0.084955  0.698914  0  4.41072  0
N  N125  1  0.64958684  0.36698389  0.22174443  1  0  0.703177  0  4.113962  0  0  0.718381  0  4.416659  0  0  0.747411  0  4.42431  0  0  0.084901  0.698746  0  4.410836  0
N  N126  1  0.85041423  0.36698383  0.72174561  1  0  0.703257  0  4.114063  0  0  0.718462  0  4.41675  0  0  0.747491  0  4.424396  0  0  0.084904  0.69883  0  4.410926  0
N  N127  1  0.35041505  0.63301722  0.77825721  1  0  0.703246  0  4.113853  0  0  0.718448  0  4.416548  0  0  0.747476  0  4.424196  0  0  0.084909  0.69882  0  4.41072  0
N  N128  1  0.77789253  0.51759221  0.46477104  1  0  -0.365062  0  3.241442  0  0  -0.305387  0  3.521781  0  0  -0.322578  0  3.535715  0  0  -0.326148  -0.293795  0  3.512182  0
N  N129  1  0.27789241  0.48240437  0.03522872  1  0  -0.365056  0  3.241347  0  0  -0.305342  0  3.521716  0  0  -0.322535  0  3.53565  0  0  -0.326201  -0.293751  0  3.51211  0
N  N130  1  0.22211182  0.48240987  0.53522796  1  0  -0.365062  0  3.241421  0  0  -0.305369  0  3.521748  0  0  -0.32256  0  3.535682  0  0  -0.326162  -0.293772  0  3.512137  0
N  N131  1  0.72210825  0.51759296  0.96477181  1  0  -0.364903  0  3.241526  0  0  -0.305237  0  3.52189  0  0  -0.322428  0  3.535824  0  0  -0.326137  -0.293646  0  3.512283  0
N  N132  1  0.95016994  0.31145028  0.38923569  1  0  -0.356173  0  3.222924  0  0  -0.295724  0  3.500484  0  0  -0.312154  0  3.514277  0  0  -0.321493  -0.285241  0  3.491456  0
N  N133  1  0.45016439  0.68855157  0.11076294  1  0  -0.35639  0  3.222936  0  0  -0.295904  0  3.500389  0  0  -0.312334  0  3.514181  0  0  -0.321564  -0.285416  0  3.49136  0
N  N134  1  0.04983563  0.68855085  0.61076484  1  0  -0.35629  0  3.222864  0  0  -0.295853  0  3.500391  0  0  -0.312283  0  3.514182  0  0  -0.321579  -0.28536  0  3.491351  0
N  N135  1  0.54983750  0.31144862  0.88923578  1  0  -0.356364  0  3.222878  0  0  -0.295877  0  3.500324  0  0  -0.312307  0  3.514115  0  0  -0.32156  -0.285389  0  3.491294  0
O  O136  1  0.02618334  0.67109444  0.32191079  1  0  -0.484859  0  1.814196  0  0  -0.454995  0  2.07091  0  0  -0.474668  0  2.06059  0  0  -0.208473  -0.440976  0  2.077209  0
O  O137  1  0.52619141  0.32890858  0.17808438  1  0  -0.484813  0  1.814293  0  0  -0.454942  0  2.070994  0  0  -0.474633  0  2.060718  0  0  -0.208437  -0.440922  0  2.077299  0
O  O138  1  0.97381242  0.32890957  0.67808515  1  0  -0.484884  0  1.814305  0  0  -0.455007  0  2.070996  0  0  -0.474703  0  2.060727  0  0  -0.208476  -0.440988  0  2.077298  0
O  O139  1  0.47381294  0.67109157  0.82191767  1  0  -0.484887  0  1.814217  0  0  -0.455  0  2.070913  0  0  -0.474695  0  2.060647  0  0  -0.208505  -0.440983  0  2.077214  0
O  O140  1  0.15451817  0.51740385  0.24097273  1  0  -0.48973  0  1.821935  0  0  -0.45802  0  2.075561  0  0  -0.476213  0  2.06321  0  0  -0.19462  -0.445337  0  2.083739  0
O  O141  1  0.65452223  0.48259641  0.25902868  1  0  -0.489635  0  1.821908  0  0  -0.457921  0  2.075525  0  0  -0.476111  0  2.063178  0  0  -0.194586  -0.445227  0  2.083692  0
O  O142  1  0.84548372  0.48259535  0.75902974  1  0  -0.489665  0  1.822078  0  0  -0.45795  0  2.075713  0  0  -0.476141  0  2.063365  0  0  -0.194592  -0.445264  0  2.083886  0
O  O143  1  0.34548211  0.51740470  0.74097296  1  0  -0.489664  0  1.821954  0  0  -0.45795  0  2.075578  0  0  -0.476139  0  2.06323  0  0  -0.194569  -0.445264  0  2.083751  0
O  O144  1  0.26335614  0.70816223  0.27300452  1  0  -0.442408  0  1.760634  0  0  -0.422937  0  1.980965  0  0  -0.436743  0  1.974887  0  0  -0.172003  -0.413027  0  1.984782  0
O  O145  1  0.76336003  0.29183996  0.22699001  1  0  -0.442403  0  1.760568  0  0  -0.422935  0  1.980917  0  0  -0.436735  0  1.974836  0  0  -0.172034  -0.41302  0  1.984743  0
O  O146  1  0.73664207  0.29183893  0.72699102  1  0  -0.442379  0  1.760594  0  0  -0.422898  0  1.98091  0  0  -0.436698  0  1.974829  0  0  -0.171985  -0.412986  0  1.984731  0
O  O147  1  0.23664431  0.70816020  0.77301149  1  0  -0.442353  0  1.760546  0  0  -0.422883  0  1.98088  0  0  -0.436682  0  1.974797  0  0  -0.171974  -0.412974  0  1.984703  0
