# generated using pymatgen
data_ZnH10(C7N3)2
_symmetry_space_group_name_H-M   'P 1'
_cell_length_a   14.82949053
_cell_length_b   14.78129925
_cell_length_c   15.49882118
_cell_angle_alpha   107.51308312
_cell_angle_beta   110.22175932
_cell_angle_gamma   110.11754383
_symmetry_Int_Tables_number   1
_chemical_formula_structural   ZnH10(C7N3)2
_chemical_formula_sum   'Zn4 H40 C56 N24'
_cell_volume   2631.81450602
_cell_formula_units_Z   4
loop_
 _symmetry_equiv_pos_site_id
 _symmetry_equiv_pos_as_xyz
  1  'x, y, z'
loop_
 _atom_site_type_symbol
 _atom_site_label
 _atom_site_symmetry_multiplicity
 _atom_site_fract_x
 _atom_site_fract_y
 _atom_site_fract_z
 _atom_site_occupancy
 _atom_site_pbe_bader_charge
 _atom_site_pbe_bader_spin_density
 _atom_site_pbe_cm5_charge
 _atom_site_pbe_ddec_charge
 _atom_site_pbe_ddec_spin_density
 _atom_site_pbe_ddec_sum_bond_order
 _atom_site_pbe_magmom
Zn  Zn0  1  0.14503185  0.64051163  0.50978981  1  1.206142  0  0.758114  0.654851  0  2.374018  0
Zn  Zn1  1  0.14261014  0.48952259  0.63047066  1  1.197937  0  0.760253  0.647892  0  2.392032  0
Zn  Zn2  1  0.87198609  0.37303248  0.49595477  1  1.206742  0  0.758032  0.653632  0  2.383746  0
Zn  Zn3  1  0.86723317  0.49837084  0.35365819  1  1.201314  0  0.760224  0.64449  0  2.400572  0
H  H4  1  0.80105637  0.15446402  0.53052286  1  0.11943  0  0.124503  0.116969  0  1.018715  0
H  H5  1  0.85999320  0.33742730  0.15864200  1  0.107875  0  0.121403  0.111582  0  1.025982  0
H  H6  1  0.21043014  0.68362912  0.33871547  1  0.136099  0  0.124945  0.125793  0  1.004403  0
H  H7  1  0.14022267  0.28776666  0.47720343  1  0.120377  0  0.126345  0.120484  0  0.996528  0
H  H8  1  0.38091977  0.86385876  0.69118251  1  0.144959  0  0.124214  0.118065  0  1.027514  0
H  H9  1  0.79637208  0.63824208  0.48459765  1  0.095653  0  0.127285  0.123045  0  0.988312  0
H  H10  1  0.63511093  0.30830360  0.47639970  1  0.135615  0  0.121679  0.116301  0  1.04609  0
H  H11  1  0.19967253  0.63595534  0.84860386  1  0.104895  0  0.126295  0.121349  0  0.99871  0
H  H12  1  0.95295537  0.52369029  0.91169260  1  0.061444  0  0.101099  0.107696  0  1.020037  0
H  H13  1  0.40959883  0.35404548  0.28871663  1  0.067937  0  0.101753  0.107966  0  1.014845  0
H  H14  1  0.01446209  0.95007873  0.59706721  1  0.058268  0  0.101602  0.107088  0  1.02138  0
H  H15  1  0.58006153  0.87789970  0.95789921  1  0.068404  0  0.102669  0.109518  0  1.013729  0
H  H16  1  0.37223011  0.42598714  0.40452710  1  0.064687  0  0.0995  0.103861  0  1.02849  0
H  H17  1  0.01950897  0.62891755  0.07111643  1  0.056498  0  0.101614  0.108787  0  1.01507  0
H  H18  1  0.64405562  0.03565989  0.08128445  1  0.085766  0  0.102536  0.109694  0  1.015835  0
H  H19  1  0.04612603  0.09992164  0.68615120  1  0.047608  0  0.102259  0.107844  0  1.019125  0
H  H20  1  0.22737981  0.47929120  0.00597831  1  0.059573  0  0.101941  0.144817  0  0.987854  0
H  H21  1  0.19354862  0.50452760  0.89787194  1  0.036832  0  0.086531  0.119142  0  1.03954  0
H  H22  1  0.28299887  0.61479538  0.02725558  1  0.091086  0  0.100859  0.144084  0  0.972309  0
H  H23  1  0.35550287  0.11095714  0.38403453  1  0.043138  0  0.095755  0.131149  0  1.006586  0
H  H24  1  0.47211782  0.15659535  0.36685554  1  0.034457  0  0.09282  0.129148  0  1.005893  0
H  H25  1  0.48140063  0.22895462  0.48740542  1  0.066875  0  0.100643  0.145062  0  0.981751  0
H  H26  1  0.78015051  0.86945002  0.69322124  1  0.055822  0  0.09643  0.131944  0  0.987778  0
H  H27  1  0.70955782  0.77749449  0.55807426  1  0.038216  0  0.098667  0.13633  0  0.983418  0
H  H28  1  0.81595343  0.76892738  0.64755138  1  0.03478  0  0.092659  0.128784  0  1.006915  0
H  H29  1  0.66601412  0.05549078  0.80227313  1  0.022898  0  0.094058  0.129188  0  1.017144  0
H  H30  1  0.55019665  0.92089349  0.72546071  1  0.049493  0  0.090769  0.123922  0  1.015414  0
H  H31  1  0.53584163  0.03358423  0.78737460  1  0.06039  0  0.104104  0.149136  0  0.968792  0
H  H32  1  0.18985145  0.08647011  0.29847502  1  0.046892  0  0.096706  0.131478  0  0.992197  0
H  H33  1  0.22808659  0.15964337  0.43079813  1  0.070946  0  0.100886  0.139193  0  0.976307  0
H  H34  1  0.12894530  0.16608682  0.33170258  1  0.066163  0  0.093108  0.128455  0  1.007632  0
H  H35  1  0.12059598  0.39624954  0.06473504  1  0.04021  0  0.095414  0.131971  0  0.987155  0
H  H36  1  0.23688622  0.52243421  0.17009617  1  0.099012  0  0.099108  0.144362  0  0.986355  0
H  H37  1  0.11628962  0.46398907  0.17853867  1  0.034286  0  0.085085  0.118854  0  1.02921  0
H  H38  1  0.82450797  0.11000676  0.92984709  1  0.037683  0  0.095148  0.129459  0  0.994154  0
H  H39  1  0.78989112  0.21328716  0.96569190  1  0.047136  0  0.099783  0.139174  0  0.980193  0
H  H40  1  0.88512426  0.20246473  0.06397102  1  0.03077  0  0.091275  0.126973  0  1.012364  0
H  H41  1  0.70354660  0.93659480  0.59115646  1  0.050495  0  0.094837  0.130944  0  1.013298  0
H  H42  1  0.76874085  0.07706576  0.62477998  1  0.050971  0  0.092692  0.127957  0  1.001622  0
H  H43  1  0.72236897  0.97476098  0.49850787  1  0.077099  0  0.101506  0.146192  0  0.976584  0
C  C44  1  0.22728586  0.48907223  0.42407716  1  0.512781  0  0.09811  0.077893  0  4.081715  0
C  C45  1  0.07295933  0.27866288  0.66003799  1  0.481789  0  0.098875  0.084067  0  4.100805  0
C  C46  1  0.59115660  0.99860398  0.79694307  1  -0.069062  0  -0.23586  -0.407022  0  3.948589  0
C  C47  1  0.20635494  0.16331287  0.35683232  1  -0.128651  0  -0.23439  -0.405841  0  3.973136  0
C  C48  1  0.14557658  0.47663370  0.12489133  1  -0.099001  0  -0.238074  -0.409029  0  3.97016  0
C  C49  1  0.80836492  0.15492267  0.98794328  1  -0.05601  0  -0.236716  -0.407438  0  3.972394  0
C  C50  1  0.76141079  0.99814742  0.58241874  1  -0.097837  0  -0.235292  -0.40687  0  3.94407  0
C  C51  1  0.20748291  0.53346030  0.97771242  1  -0.101261  0  -0.235815  -0.406515  0  3.945968  0
C  C52  1  0.42717132  0.18400357  0.40167816  1  -0.0751  0  -0.235557  -0.406348  0  3.948918  0
C  C53  1  0.79137145  0.82604085  0.62990055  1  -0.065793  0  -0.235411  -0.405179  0  3.977161  0
C  C54  1  0.80452725  0.20113927  0.28282971  1  0.532385  0  0.097254  0.080279  0  4.073307  0
C  C55  1  0.93963955  0.56021520  0.20743221  1  0.548205  0  0.097315  0.079355  0  4.110034  0
C  C56  1  0.92829404  0.49029505  0.71571732  1  0.522531  0  0.094563  0.073628  0  4.081458  0
C  C57  1  0.38360423  0.69408489  0.78618148  1  0.483329  0  0.100038  0.086135  0  4.096001  0
C  C58  1  0.06643663  0.79008056  0.59784722  1  0.563333  0  0.09966  0.084879  0  4.075906  0
C  C59  1  0.61383097  0.39068232  0.29979225  1  0.522508  0  0.102358  0.090249  0  4.088282  0
C  C60  1  0.89056992  0.20476449  0.57227439  1  0.436172  0  0.020881  -0.040867  0  3.936375  0
C  C61  1  0.85112713  0.30319615  0.20994763  1  0.354483  0  0.013568  -0.051073  0  3.922497  0
C  C62  1  0.12120764  0.64400090  0.30632666  1  0.373598  0  0.017154  -0.050647  0  3.954006  0
C  C63  1  0.15991203  0.35589647  0.46033267  1  0.403975  0  0.016464  -0.048298  0  3.905157  0
C  C64  1  0.37307390  0.79873216  0.71153956  1  0.418146  0  0.021723  -0.039025  0  3.94186  0
C  C65  1  0.88601477  0.67794714  0.51986736  1  0.401775  0  0.017301  -0.047676  0  3.913426  0
C  C66  1  0.63838507  0.33512110  0.41921896  1  0.419244  0  0.018624  -0.043219  0  3.943749  0
C  C67  1  0.11079569  0.58639474  0.79480427  1  0.380195  0  0.012269  -0.056669  0  3.922946  0
C  C68  1  0.22927343  0.39264129  0.42081916  1  0.001786  0  -0.013435  0.027068  0  4.049612  0
C  C69  1  0.97317650  0.18743567  0.63155281  1  0.031991  0  -0.016658  0.018482  0  4.05244  0
C  C70  1  0.79049321  0.19309255  0.18475841  1  0.062441  0  -0.014773  0.023631  0  4.040817  0
C  C71  1  0.03821432  0.59674592  0.20245715  1  0.028901  0  -0.015363  0.022976  0  4.052813  0
C  C72  1  0.02486360  0.54009946  0.81429966  1  0.020774  0  -0.011526  0.037992  0  4.043711  0
C  C73  1  0.44522920  0.80053439  0.80054335  1  0.023913  0  -0.015015  0.01991  0  4.045938  0
C  C74  1  0.96589504  0.79009961  0.58049952  1  0.000333  0  -0.013622  0.022745  0  4.043516  0
C  C75  1  0.55662272  0.34053754  0.34417279  1  0.027774  0  -0.016943  0.016007  0  4.058148  0
C  C76  1  0.10899321  0.53599456  0.98314019  1  0.001872  0  -0.002182  0.129304  0  3.931485  0
C  C77  1  0.39148977  0.25399845  0.36172049  1  -0.03365  0  -0.006276  0.119446  0  3.934862  0
C  C78  1  0.87719196  0.90586017  0.61937888  1  -0.01097  0  -0.005613  0.121205  0  3.949265  0
C  C79  1  0.61752351  0.98305095  0.89275377  1  -0.02317  0  -0.004568  0.122221  0  3.926901  0
C  C80  1  0.29756790  0.26106617  0.36925748  1  0.076708  0  -0.004712  0.126678  0  3.944648  0
C  C81  1  0.09982041  0.53586135  0.07533155  1  -0.02699  0  -0.004816  0.122145  0  3.950373  0
C  C82  1  0.71448200  0.07728437  0.99228194  1  -0.016254  0  -0.005138  0.123218  0  3.933801  0
C  C83  1  0.87305664  0.00494577  0.62130186  1  -0.007088  0  -0.006899  0.119178  0  3.92897  0
C  C84  1  0.02752625  0.53533795  0.90682237  1  -0.008331  0  -0.104466  -0.217271  0  3.999279  0
C  C85  1  0.44696027  0.31496385  0.32710032  1  0.016993  0  -0.101291  -0.207437  0  4.000368  0
C  C86  1  0.95457804  0.88690568  0.60238728  1  -0.011388  0  -0.099771  -0.202964  0  3.985609  0
C  C87  1  0.55189674  0.88875999  0.88856849  1  0.008481  0  -0.100781  -0.208281  0  3.994094  0
C  C88  1  0.30164490  0.35944599  0.39570664  1  -0.077147  0  -0.101905  -0.208408  0  4.001666  0
C  C89  1  0.05120489  0.58832171  0.11168513  1  -0.023664  0  -0.100928  -0.207488  0  3.976735  0
C  C90  1  0.71423690  0.09603405  0.08376508  1  -0.029105  0  -0.098606  -0.202607  0  3.981208  0
C  C91  1  0.96638626  0.09622364  0.65018861  1  -0.005094  0  -0.101997  -0.208329  0  4.005736  0
C  C92  1  0.29538788  0.56757778  0.40739428  1  0.810498  0  0.181475  0.219415  0  4.062783  0
C  C93  1  0.18320162  0.30101219  0.71303423  1  0.83166  0  0.165306  0.188799  0  4.072591  0
C  C94  1  0.75537378  0.11673916  0.30438721  1  0.827893  0  0.174982  0.218957  0  4.051516  0
C  C95  1  0.82900887  0.49989729  0.12355663  1  0.811919  0  0.166643  0.191987  0  4.06893  0
C  C96  1  0.81676170  0.42513789  0.68633405  1  0.832525  0  0.179889  0.222377  0  4.047288  0
C  C97  1  0.40980027  0.65139942  0.85553452  1  0.801262  0  0.167992  0.189992  0  4.067579  0
C  C98  1  0.17447887  0.88077884  0.64993618  1  0.803913  0  0.177765  0.215505  0  4.050141  0
C  C99  1  0.57305358  0.42073976  0.22268984  1  0.828694  0  0.166213  0.193983  0  4.061042  0
N  N100  1  0.15972168  0.50500293  0.46021816  1  -0.720991  0  -0.260568  -0.213805  0  3.573511  0
N  N101  1  0.04981107  0.34378165  0.62071049  1  -0.748452  0  -0.255655  -0.218635  0  3.507431  0
N  N102  1  0.86858927  0.30802515  0.35839536  1  -0.727912  0  -0.261244  -0.217939  0  3.574568  0
N  N103  1  0.96359775  0.58316583  0.30746557  1  -0.733492  0  -0.255901  -0.211545  0  3.48572  0
N  N104  1  0.95650170  0.50270231  0.64331066  1  -0.729649  0  -0.261213  -0.216581  0  3.515317  0
N  N105  1  0.28479412  0.63449125  0.69462462  1  -0.737158  0  -0.253393  -0.212271  0  3.489257  0
N  N106  1  0.04570826  0.68575289  0.54981048  1  -0.717194  0  -0.260573  -0.210387  0  3.568231  0
N  N107  1  0.72071470  0.41167936  0.34539574  1  -0.751326  0  -0.253372  -0.213121  0  3.480439  0
N  N108  1  0.93728132  0.29656128  0.56639137  1  -0.778627  0  -0.261077  -0.16233  0  3.587968  0
N  N109  1  0.89481398  0.36997905  0.31287209  1  -0.754015  0  -0.274504  -0.184193  0  3.590877  0
N  N110  1  0.07625725  0.63491398  0.36763437  1  -0.764583  0  -0.261807  -0.166884  0  3.564677  0
N  N111  1  0.12120266  0.42524310  0.48479489  1  -0.764312  0  -0.272798  -0.183917  0  3.604016  0
N  N112  1  0.27964764  0.70090696  0.65046636  1  -0.784295  0  -0.262568  -0.164737  0  3.600252  0
N  N113  1  0.93513078  0.61782491  0.50087876  1  -0.769976  0  -0.2722  -0.186402  0  3.614996  0
N  N114  1  0.73385983  0.37732976  0.41896588  1  -0.791195  0  -0.268562  -0.167433  0  3.616513  0
N  N115  1  0.06867800  0.56148033  0.69245164  1  -0.745823  0  -0.276713  -0.189512  0  3.55426  0
N  N116  1  0.35669467  0.63410362  0.39828364  1  -1.116519  0  -0.309727  -0.361471  0  2.702993  0
N  N117  1  0.27416420  0.31756212  0.75361683  1  -1.059953  0  -0.292996  -0.315679  0  2.674557  0
N  N118  1  0.71150485  0.04736917  0.32152571  1  -1.124935  0  -0.308843  -0.357646  0  2.706602  0
N  N119  1  0.73855535  0.44591306  0.05202222  1  -1.087421  0  -0.291525  -0.31655  0  2.674095  0
N  N120  1  0.72436824  0.36737790  0.65981289  1  -1.127542  0  -0.302858  -0.3528  0  2.717939  0
N  N121  1  0.43001998  0.61843675  0.91542818  1  -1.052635  0  -0.286107  -0.313702  0  2.693775  0
N  N122  1  0.26398195  0.95505731  0.69018770  1  -1.105847  0  -0.301541  -0.346085  0  2.706942  0
N  N123  1  0.53652355  0.44583897  0.15993167  1  -1.078239  0  -0.293384  -0.316208  0  2.669772  0
