# generated using pymatgen
data_ZnH24C20(NO)4
_symmetry_space_group_name_H-M   'P 1'
_cell_length_a   9.59027217
_cell_length_b   10.95327692
_cell_length_c   15.74809162
_cell_angle_alpha   91.01559081
_cell_angle_beta   95.67229489
_cell_angle_gamma   90.65305345
_symmetry_Int_Tables_number   1
_chemical_formula_structural   ZnH24C20(NO)4
_chemical_formula_sum   'Zn2 H48 C40 N8 O8'
_cell_volume   1645.75436562
_cell_formula_units_Z   2
loop_
 _symmetry_equiv_pos_site_id
 _symmetry_equiv_pos_as_xyz
  1  'x, y, z'
loop_
 _atom_site_type_symbol
 _atom_site_label
 _atom_site_symmetry_multiplicity
 _atom_site_fract_x
 _atom_site_fract_y
 _atom_site_fract_z
 _atom_site_occupancy
 _atom_site_pbe_bader_charge
 _atom_site_pbe_bader_spin_density
 _atom_site_pbe_cm5_charge
 _atom_site_pbe_ddec_charge
 _atom_site_pbe_ddec_spin_density
 _atom_site_pbe_ddec_sum_bond_order
 _atom_site_pbe_magmom
Zn  Zn0  1  0.36189802  0.45843517  0.48966088  1  1.277341  0  0.67457  0.812668  0  2.445873  0
Zn  Zn1  1  0.65330991  0.45415261  0.51163909  1  1.286116  0  0.67379  0.820152  0  2.393262  0
H  H2  1  0.60550932  0.87483423  0.93056602  1  0.057547  0  0.098451  0.095321  0  0.992939  0
H  H3  1  0.61691287  0.87764968  0.07334056  1  0.024647  0  0.092102  0.08309  0  1.016393  0
H  H4  1  0.46040935  0.84657902  0.16935190  1  0.03931  0  0.095319  0.102687  0  1.020127  0
H  H5  1  0.77357324  0.67098863  0.88502975  1  0.06893  0  0.097584  0.103251  0  1.021772  0
H  H6  1  0.69519260  0.06846615  0.43109596  1  0.067248  0  0.099077  0.110335  0  1.016633  0
H  H7  1  0.34134498  0.85012377  0.58145362  1  0.037952  0  0.1009  0.112177  0  0.997614  0
H  H8  1  0.17600340  0.59997207  0.57816769  1  0.137649  0  0.13099  0.121768  0  0.992371  0
H  H9  1  0.84029356  0.33083666  0.41368578  1  0.144753  0  0.128321  0.120829  0  0.997616  0
H  H10  1  0.62259185  0.12301871  0.17317181  1  0.018553  0  0.080814  0.105049  0  1.011076  0
H  H11  1  0.61151914  0.15178391  0.28393560  1  0.017148  0  0.078711  0.105146  0  1.027664  0
H  H12  1  0.46547989  0.08889812  0.21938062  1  0.019473  0  0.081592  0.106174  0  1.012029  0
H  H13  1  0.42656937  0.30990379  0.24715387  1  0.038573  0  0.084124  0.080983  0  1.006794  0
H  H14  1  0.44012656  0.28450277  0.13775632  1  0.018724  0  0.085466  0.07276  0  0.994099  0
H  H15  1  0.69296056  0.35111313  0.15804534  1  0.042702  0  0.090342  0.087546  0  1.02097  0
H  H16  1  0.67964014  0.37534730  0.26779854  1  0.022037  0  0.085849  0.085403  0  1.008053  0
H  H17  1  0.00808187  0.37329264  0.75338333  1  0.026785  0  0.079721  0.108935  0  1.027583  0
H  H18  1  0.14480458  0.26504425  0.75818107  1  0.009036  0  0.080387  0.105696  0  1.011206  0
H  H19  1  0.04022422  0.28285075  0.84493359  1  0.01784  0  0.085521  0.113667  0  1.005076  0
H  H20  1  0.28142061  0.38433118  0.87490407  1  0.0256  0  0.088937  0.08076  0  0.979654  0
H  H21  1  0.14377897  0.48790882  0.87990762  1  0.015361  0  0.085181  0.072566  0  1.014894  0
H  H22  1  0.18149030  0.57526986  0.74447170  1  0.003493  0  0.079963  0.068101  0  1.014118  0
H  H23  1  0.26519966  0.44449845  0.71140061  1  0.08191  0  0.092241  0.103116  0  1.038232  0
H  H24  1  0.76462048  0.46011052  0.70820094  1  0.495036  0  0.293741  0.301878  0  1.009744  0
H  H25  1  0.86667439  0.55836419  0.77721641  1  0.427575  0  0.301133  0.290313  0  0.957954  0
H  H26  1  0.36759389  0.70130529  0.36132132  1  0.478268  0  0.285957  0.293305  0  1.010857  0
H  H27  1  0.37910353  0.83328437  0.30743596  1  0.445834  0  0.301375  0.295593  0  0.949497  0
H  H28  1  0.12257670  0.83286826  0.00000422  1  -0.016787  0  0.080189  0.102917  0  1.008933  0
H  H29  1  0.02436895  0.70358832  0.95785956  1  0.025823  0  0.075094  0.09345  0  1.031137  0
H  H30  1  0.08764162  0.71063472  0.06774526  1  0.018157  0  0.085455  0.115043  0  0.99915  0
H  H31  1  0.23913909  0.57230310  0.98609510  1  -0.011258  0  0.084773  0.071693  0  1.005364  0
H  H32  1  0.33411675  0.69836154  0.03172430  1  0.026621  0  0.081816  0.078441  0  1.048564  0
H  H33  1  0.31149568  0.80805987  0.89762867  1  0.006217  0  0.086735  0.079766  0  0.989998  0
H  H34  1  0.19816206  0.69548550  0.84763354  1  0.00529  0  0.082538  0.069505  0  1.022718  0
H  H35  1  0.76446684  0.38236172  0.90732670  1  0.036506  0  0.079608  0.113515  0  1.036411  0
H  H36  1  0.77423282  0.28153879  0.99486539  1  0.001488  0  0.073537  0.090842  0  1.022699  0
H  H37  1  0.64088340  0.26151171  0.90879724  1  0.013954  0  0.082253  0.109899  0  1.002376  0
H  H38  1  0.54346874  0.35722582  0.03594992  1  -0.003462  0  0.08151  0.066531  0  1.022423  0
H  H39  1  0.52902110  0.45666627  0.94955994  1  0.009932  0  0.081974  0.067843  0  1.042516  0
H  H40  1  0.72600302  0.58169182  0.00971674  1  0.04196  0  0.086164  0.084495  0  1.041135  0
H  H41  1  0.78032717  0.47157145  0.08464371  1  0.008426  0  0.084862  0.076281  0  0.997697  0
H  H42  1  0.70712831  0.73639898  0.41907762  1  0.446032  0  0.29247  0.295915  0  0.972262  0
H  H43  1  0.76175962  0.86723121  0.37900640  1  0.415649  0  0.300115  0.294057  0  0.945016  0
H  H44  1  0.29570877  0.17560001  0.56773427  1  0.483694  0  0.293906  0.306043  0  0.992537  0
H  H45  1  0.23557274  0.04025900  0.60679216  1  0.431847  0  0.302004  0.292341  0  0.955483  0
H  H46  1  0.96833136  0.70685723  0.62079819  1  0.428117  0  0.318558  0.312498  0  0.92303  0
H  H47  1  0.79987645  0.65796646  0.59001311  1  0.534086  0  0.302361  0.324969  0  0.982495  0
H  H48  1  0.04085198  0.28500384  0.32585353  1  0.450866  0  0.322404  0.319248  0  0.919071  0
H  H49  1  0.20405687  0.34936095  0.35188200  1  0.510401  0  0.308868  0.32612  0  0.959968  0
C  C50  1  0.51628165  0.22127588  0.49043851  1  1.530429  0  0.217347  0.614918  0  4.13505  0
C  C51  1  0.51145121  0.69764199  0.51435572  1  1.515632  0  0.221717  0.609815  0  4.147419  0
C  C52  1  0.61839876  0.01869663  0.46429167  1  0.055181  0  -0.104779  -0.208108  0  3.996658  0
C  C53  1  0.41914602  0.89978525  0.54888320  1  -0.002151  0  -0.1068  -0.216815  0  3.988145  0
C  C54  1  0.62445475  0.89155097  0.46829941  1  0.330193  0  0.075285  0.241852  0  4.114982  0
C  C55  1  0.41354461  0.02750139  0.54564359  1  0.44997  0  0.092543  0.280186  0  4.099133  0
C  C56  1  0.52053258  0.83299344  0.51168748  1  0.035927  0  -0.029499  -0.124611  0  4.00643  0
C  C57  1  0.51549177  0.08700345  0.50039439  1  -0.040783  0  -0.033316  -0.1415  0  3.966062  0
C  C58  1  0.95468753  0.55229456  0.54853188  1  1.011352  0  0.221878  0.373728  0  4.097799  0
C  C59  1  0.05784764  0.39462497  0.43227775  1  0.953232  0  0.221079  0.373792  0  4.103681  0
C  C60  1  0.09846755  0.54438723  0.53908815  1  0.509326  0  0.055091  -0.034346  0  3.877659  0
C  C61  1  0.91607037  0.39414048  0.44736444  1  0.521023  0  0.048582  -0.045661  0  3.878623  0
C  C62  1  0.49450920  0.50668067  0.33779225  1  1.555908  0  0.223097  0.633643  0  4.135732  0
C  C63  1  0.50707735  0.46890236  0.66509191  1  1.471824  0  0.209228  0.600814  0  4.129433  0
C  C64  1  0.50100983  0.56473305  0.25272292  1  -0.060281  0  -0.03586  -0.210355  0  3.933019  0
C  C65  1  0.52008031  0.52140207  0.75331978  1  -0.035126  0  -0.037771  -0.22765  0  3.87419  0
C  C66  1  0.57274598  0.50891065  0.18913244  1  0.046251  0  -0.008675  0.064357  0  3.923999  0
C  C67  1  0.40051353  0.56137161  0.79366048  1  -0.014194  0  -0.000395  0.081058  0  3.889573  0
C  C68  1  0.60286060  0.57394438  0.11592676  1  -0.015467  0  -0.021084  -0.005527  0  3.889964  0
C  C69  1  0.41558407  0.64791035  0.86144840  1  0.005673  0  -0.023975  -0.025918  0  3.891293  0
C  C70  1  0.56274594  0.69803896  0.11033749  1  0.003976  0  -0.015961  0.074323  0  4.027467  0
C  C71  1  0.55261557  0.68807871  0.89306761  1  -0.025087  0  -0.00408  0.106051  0  4.008081  0
C  C72  1  0.49036956  0.75082807  0.17480277  1  -0.04623  0  -0.115457  -0.274196  0  3.990914  0
C  C73  1  0.66884134  0.64097833  0.85879201  1  -0.027737  0  -0.111006  -0.272814  0  3.990851  0
C  C74  1  0.45315775  0.68600232  0.24500079  1  0.408011  0  0.088098  0.284145  0  4.142484  0
C  C75  1  0.65712973  0.55548913  0.79090563  1  0.491314  0  0.106257  0.310802  0  4.089448  0
C  C76  1  0.59172441  0.78735608  0.04437503  1  -0.004886  0  -0.090193  -0.123613  0  4.006378  0
C  C77  1  0.58170214  0.78680030  0.95841239  1  -0.111229  0  -0.090414  -0.129212  0  3.996179  0
C  C78  1  0.62024044  0.37863296  0.20423967  1  -0.033898  0  -0.165399  -0.198776  0  3.949286  0
C  C79  1  0.50019484  0.28342951  0.20108088  1  -0.020638  0  -0.168749  -0.092087  0  3.948713  0
C  C80  1  0.55299376  0.15480740  0.22028344  1  -0.083999  0  -0.247913  -0.349954  0  3.984539  0
C  C81  1  0.25733859  0.50471379  0.76658740  1  -0.045196  0  -0.171966  -0.205714  0  3.953768  0
C  C82  1  0.19557465  0.42880074  0.83585609  1  -0.015108  0  -0.166105  -0.088448  0  3.938631  0
C  C83  1  0.09152689  0.33212865  0.79610914  1  -0.056917  0  -0.248019  -0.355314  0  3.984503  0
C  C84  1  0.29010011  0.70870380  0.89472194  1  -0.019314  0  -0.163152  -0.172192  0  3.976141  0
C  C85  1  0.24939026  0.67214209  0.98280173  1  0.016598  0  -0.173902  -0.103422  0  3.955583  0
C  C86  1  0.11377448  0.73276622  0.00334849  1  -0.034112  0  -0.246499  -0.345788  0  3.990788  0
C  C87  1  0.68627722  0.51275747  0.05112213  1  -0.038647  0  -0.167818  -0.185083  0  3.970795  0
C  C88  1  0.60550756  0.41293553  0.99562283  1  0.020381  0  -0.172411  -0.098298  0  3.953674  0
C  C89  1  0.70148723  0.33029512  0.94910036  1  -0.060075  0  -0.251315  -0.352236  0  3.984159  0
N  N90  1  0.14759529  0.46691151  0.48333105  1  -1.263671  0  -0.320226  -0.249555  0  3.504716  0
N  N91  1  0.86672219  0.47022923  0.50461319  1  -1.224404  0  -0.318024  -0.256957  0  3.488251  0
N  N92  1  0.77750014  0.50826382  0.76451677  1  -1.263776  0  -0.597478  -0.616433  0  3.384917  0
N  N93  1  0.37459627  0.74085506  0.30385631  1  -1.276454  0  -0.609323  -0.628867  0  3.323531  0
N  N94  1  0.72864946  0.82664607  0.43105679  1  -1.196174  0  -0.612815  -0.635866  0  3.286871  0
N  N95  1  0.31682906  0.08980613  0.58855273  1  -1.251705  0  -0.605547  -0.626846  0  3.331539  0
N  N96  1  0.90357710  0.63522822  0.60298575  1  -1.248271  0  -0.580921  -0.637015  0  3.31208  0
N  N97  1  0.11059558  0.32218830  0.37179473  1  -1.223831  0  -0.58031  -0.630817  0  3.279902  0
O  O98  1  0.40097029  0.27717870  0.49774413  1  -1.174227  0  -0.314685  -0.554817  0  2.375842  0
O  O99  1  0.62137949  0.63956686  0.54120900  1  -1.183171  0  -0.303899  -0.545899  0  2.36315  0
O  O100  1  0.63009905  0.27476763  0.47516094  1  -1.17355  0  -0.325221  -0.559521  0  2.317078  0
O  O101  1  0.39444697  0.64782592  0.48746008  1  -1.173221  0  -0.30508  -0.542896  0  2.341104  0
O  O102  1  0.37843913  0.46427917  0.35905491  1  -1.178068  0  -0.317356  -0.561809  0  2.299908  0
O  O103  1  0.61486809  0.42016623  0.63501280  1  -1.163446  0  -0.323968  -0.551191  0  2.314512  0
O  O104  1  0.60846231  0.51158284  0.38676182  1  -1.173507  0  -0.31226  -0.561725  0  2.336183  0
O  O105  1  0.39215769  0.48329147  0.61809001  1  -1.182654  0  -0.319931  -0.552315  0  2.419174  0
