# generated using pymatgen
data_ZnH14C8N2O7
_symmetry_space_group_name_H-M   'P 1'
_cell_length_a   8.40138219
_cell_length_b   9.45717080
_cell_length_c   17.61989369
_cell_angle_alpha   90.00083656
_cell_angle_beta   89.99969821
_cell_angle_gamma   103.96254355
_symmetry_Int_Tables_number   1
_chemical_formula_structural   ZnH14C8N2O7
_chemical_formula_sum   'Zn4 H56 C32 N8 O28'
_cell_volume   1358.59516792
_cell_formula_units_Z   4
loop_
 _symmetry_equiv_pos_site_id
 _symmetry_equiv_pos_as_xyz
  1  'x, y, z'
loop_
 _atom_site_type_symbol
 _atom_site_label
 _atom_site_symmetry_multiplicity
 _atom_site_fract_x
 _atom_site_fract_y
 _atom_site_fract_z
 _atom_site_occupancy
 _atom_site_hle17_bader_spin_density
 _atom_site_hle17_ddec_charge
 _atom_site_hle17_ddec_spin_density
 _atom_site_hle17_ddec_sum_bond_order
 _atom_site_hle17_magmom
 _atom_site_hse06_10hf_bader_spin_density
 _atom_site_hse06_10hf_ddec_charge
 _atom_site_hse06_10hf_ddec_spin_density
 _atom_site_hse06_10hf_ddec_sum_bond_order
 _atom_site_hse06_10hf_magmom
 _atom_site_hse06_bader_spin_density
 _atom_site_hse06_ddec_charge
 _atom_site_hse06_ddec_spin_density
 _atom_site_hse06_ddec_sum_bond_order
 _atom_site_hse06_magmom
 _atom_site_pbe_bader_spin_density
 _atom_site_pbe_cm5_charge
 _atom_site_pbe_ddec_charge
 _atom_site_pbe_ddec_spin_density
 _atom_site_pbe_ddec_sum_bond_order
 _atom_site_pbe_magmom
Zn  Zn0  1  0.30954054  0.20241434  0.15935948  1  0  1.087939  0  1.724697  0  0  0.91466  0  2.158964  0  0  0.964249  0  2.103848  0  0  0.676607  0.879691  0  2.196907  0
Zn  Zn1  1  0.19045260  0.79757927  0.65936103  1  0  1.087975  0  1.724651  0  0  0.914699  0  2.158899  0  0  0.964286  0  2.103791  0  0  0.676643  0.879721  0  2.196842  0
Zn  Zn2  1  0.69045804  0.79758074  0.84064299  1  0  1.087952  0  1.724723  0  0  0.914664  0  2.158995  0  0  0.964257  0  2.10388  0  0  0.676629  0.879688  0  2.196937  0
Zn  Zn3  1  0.80952807  0.20240727  0.34064599  1  0  1.087897  0  1.724648  0  0  0.914629  0  2.158885  0  0  0.96422  0  2.103775  0  0  0.676606  0.879657  0  2.196824  0
H  H4  1  0.06796085  0.50990387  0.14850736  1  0  0.131643  0  0.929274  0  0  0.142991  0  0.989871  0  0  0.146138  0  0.987256  0  0  0.119419  0.140581  0  0.992148  0
H  H5  1  0.43203306  0.49010037  0.64849849  1  0  0.131706  0  0.929284  0  0  0.143028  0  0.989895  0  0  0.146159  0  0.987276  0  0  0.119428  0.14062  0  0.992165  0
H  H6  1  0.93204315  0.49009771  0.85149738  1  0  0.131657  0  0.92933  0  0  0.143008  0  0.989935  0  0  0.146144  0  0.98732  0  0  0.119389  0.140601  0  0.992209  0
H  H7  1  0.56796650  0.50990235  0.35149660  1  0  0.131687  0  0.929252  0  0  0.143019  0  0.989888  0  0  0.146154  0  0.987273  0  0  0.119432  0.140611  0  0.992157  0
H  H8  1  0.20937550  0.50061052  0.22317729  1  0  0.122187  0  0.901126  0  0  0.139579  0  0.953078  0  0  0.14195  0  0.951572  0  0  0.127415  0.137797  0  0.954461  0
H  H9  1  0.29061775  0.49939022  0.72316715  1  0  0.122244  0  0.901231  0  0  0.139587  0  0.95321  0  0  0.141947  0  0.951699  0  0  0.127431  0.137806  0  0.954592  0
H  H10  1  0.79062875  0.49938778  0.77683029  1  0  0.122182  0  0.901251  0  0  0.139596  0  0.953174  0  0  0.141959  0  0.951663  0  0  0.127421  0.137816  0  0.954557  0
H  H11  1  0.70938175  0.50060813  0.27682852  1  0  0.122125  0  0.901231  0  0  0.139551  0  0.953154  0  0  0.14191  0  0.951643  0  0  0.127437  0.13777  0  0.954537  0
H  H12  1  0.08211824  0.33180138  0.03977159  1  0  0.098561  0  0.951309  0  0  0.111613  0  1.015895  0  0  0.113702  0  1.014349  0  0  0.114929  0.110283  0  1.016554  0
H  H13  1  0.41787784  0.66819781  0.53976643  1  0  0.09853  0  0.951316  0  0  0.111642  0  1.015915  0  0  0.113733  0  1.014376  0  0  0.114941  0.110303  0  1.016568  0
H  H14  1  0.91788488  0.66820130  0.96023315  1  0  0.098555  0  0.951308  0  0  0.11161  0  1.015935  0  0  0.113698  0  1.014399  0  0  0.114913  0.11027  0  1.016591  0
H  H15  1  0.58212135  0.33179945  0.46023150  1  0  0.098564  0  0.951284  0  0  0.111679  0  1.015869  0  0  0.113768  0  1.014329  0  0  0.114949  0.110338  0  1.016521  0
H  H16  1  0.28592293  0.33597752  0.00995108  1  0  0.107202  0  0.929651  0  0  0.119658  0  0.992035  0  0  0.122518  0  0.989807  0  0  0.116309  0.11756  0  0.993846  0
H  H17  1  0.21406558  0.66402315  0.50994640  1  0  0.107123  0  0.92958  0  0  0.119684  0  0.991922  0  0  0.12255  0  0.989688  0  0  0.116317  0.117576  0  0.993736  0
H  H18  1  0.71407524  0.66403287  0.99005196  1  0  0.107177  0  0.929656  0  0  0.119718  0  0.99198  0  0  0.122583  0  0.989747  0  0  0.116327  0.117608  0  0.993787  0
H  H19  1  0.78593036  0.33597524  0.49005096  1  0  0.10714  0  0.929676  0  0  0.11973  0  0.99197  0  0  0.122595  0  0.989743  0  0  0.116336  0.117619  0  0.993774  0
H  H20  1  0.50698820  0.49792741  0.08245131  1  0  0.08871  0  0.928495  0  0  0.101402  0  0.994313  0  0  0.102275  0  0.994408  0  0  0.110418  0.100683  0  0.994411  0
H  H21  1  0.99300893  0.50207230  0.58244408  1  0  0.088699  0  0.928488  0  0  0.101349  0  0.994316  0  0  0.102231  0  0.994419  0  0  0.110397  0.100618  0  0.994424  0
H  H22  1  0.49301404  0.50207638  0.91755230  1  0  0.088704  0  0.928461  0  0  0.101373  0  0.994277  0  0  0.102249  0  0.994375  0  0  0.110421  0.10065  0  0.994376  0
H  H23  1  0.00698877  0.49792388  0.41755158  1  0  0.088686  0  0.9285  0  0  0.101363  0  0.994319  0  0  0.10224  0  0.994416  0  0  0.110405  0.10064  0  0.994417  0
H  H24  1  0.47338201  0.53796034  0.17854233  1  0  0.090975  0  0.924474  0  0  0.108291  0  0.97949  0  0  0.109512  0  0.978997  0  0  0.114737  0.10725  0  0.980211  0
H  H25  1  0.02660724  0.46203709  0.67853256  1  0  0.091038  0  0.924278  0  0  0.108311  0  0.979303  0  0  0.109543  0  0.978815  0  0  0.114692  0.107268  0  0.980021  0
H  H26  1  0.52662168  0.46204015  0.82146355  1  0  0.091014  0  0.924408  0  0  0.108299  0  0.979427  0  0  0.109523  0  0.97894  0  0  0.114715  0.107255  0  0.980146  0
H  H27  1  0.97338690  0.53795914  0.32146197  1  0  0.091043  0  0.924371  0  0  0.108326  0  0.97941  0  0  0.109553  0  0.978916  0  0  0.1147  0.107281  0  0.980131  0
H  H28  1  0.32595921  0.72153057  0.14460376  1  0  0.074842  0  0.913441  0  0  0.09193  0  0.972077  0  0  0.092691  0  0.971358  0  0  0.107407  0.091171  0  0.972934  0
H  H29  1  0.17403971  0.27847024  0.64459387  1  0  0.074965  0  0.913453  0  0  0.092062  0  0.972098  0  0  0.092824  0  0.971382  0  0  0.10744  0.091292  0  0.972962  0
H  H30  1  0.67404684  0.27846990  0.85540268  1  0  0.074874  0  0.91345  0  0  0.091944  0  0.97213  0  0  0.092743  0  0.971366  0  0  0.107415  0.091174  0  0.973002  0
H  H31  1  0.82595830  0.72152703  0.35540293  1  0  0.074941  0  0.913421  0  0  0.091982  0  0.972089  0  0  0.092789  0  0.971316  0  0  0.107432  0.091212  0  0.97296  0
H  H32  1  0.50475602  0.75612716  0.08817995  1  0  0.094837  0  0.91555  0  0  0.112186  0  0.972844  0  0  0.113402  0  0.971867  0  0  0.114769  0.111072  0  0.973908  0
H  H33  1  0.99524438  0.24387595  0.58816954  1  0  0.095035  0  0.91545  0  0  0.11239  0  0.972712  0  0  0.113629  0  0.971709  0  0  0.11485  0.11124  0  0.973815  0
H  H34  1  0.49524859  0.24387661  0.91182366  1  0  0.094851  0  0.91551  0  0  0.112211  0  0.972812  0  0  0.113427  0  0.971841  0  0  0.114785  0.111098  0  0.973874  0
H  H35  1  0.00475368  0.75612569  0.41182442  1  0  0.094838  0  0.915558  0  0  0.112177  0  0.972837  0  0  0.113392  0  0.971871  0  0  0.114778  0.111065  0  0.973898  0
H  H36  1  0.27937192  0.88211056  0.03403171  1  0  0.123391  0  0.932068  0  0  0.138607  0  0.988735  0  0  0.140194  0  0.988592  0  0  0.119625  0.13756  0  0.98872  0
H  H37  1  0.22064503  0.11789482  0.53402441  1  0  0.123279  0  0.932139  0  0  0.138569  0  0.988716  0  0  0.14015  0  0.98858  0  0  0.119606  0.137523  0  0.9887  0
H  H38  1  0.72064105  0.11789749  0.96597133  1  0  0.123318  0  0.932085  0  0  0.138559  0  0.988736  0  0  0.140122  0  0.98862  0  0  0.11961  0.137514  0  0.988719  0
H  H39  1  0.77936247  0.88210236  0.46597182  1  0  0.123403  0  0.932052  0  0  0.138591  0  0.988747  0  0  0.140173  0  0.988607  0  0  0.119612  0.137545  0  0.988729  0
H  H40  1  0.16801594  0.77888766  0.95877709  1  0  0.095845  0  0.945686  0  0  0.108167  0  1.011329  0  0  0.110587  0  1.008772  0  0  0.113003  0.106512  0  1.013052  0
H  H41  1  0.33199270  0.22111799  0.45876713  1  0  0.095832  0  0.945554  0  0  0.108111  0  1.011273  0  0  0.110495  0  1.008751  0  0  0.11298  0.106441  0  1.013011  0
H  H42  1  0.83199259  0.22112153  0.04122879  1  0  0.095875  0  0.94561  0  0  0.108188  0  1.01128  0  0  0.110575  0  1.008751  0  0  0.113001  0.106519  0  1.013017  0
H  H43  1  0.66801460  0.77888684  0.54122910  1  0  0.095885  0  0.945646  0  0  0.108216  0  1.011285  0  0  0.110611  0  1.008749  0  0  0.113008  0.106545  0  1.013023  0
H  H44  1  0.44319751  0.00182041  0.16185457  1  0  0.408115  0  0.90794  0  0  0.376234  0  0.973534  0  0  0.388321  0  0.956448  0  0  0.281559  0.367825  0  0.985342  0
H  H45  1  0.05680589  0.99818845  0.66185405  1  0  0.408162  0  0.907894  0  0  0.376269  0  0.973509  0  0  0.388356  0  0.956421  0  0  0.281562  0.367859  0  0.985316  0
H  H46  1  0.55680618  0.99818008  0.83814734  1  0  0.408097  0  0.907971  0  0  0.376216  0  0.973565  0  0  0.388302  0  0.95648  0  0  0.281549  0.367806  0  0.985373  0
H  H47  1  0.94319991  0.00181530  0.33814217  1  0  0.408053  0  0.908031  0  0  0.376143  0  0.973675  0  0  0.38823  0  0.956592  0  0  0.281488  0.367733  0  0.985483  0
H  H48  1  0.42185225  0.04764058  0.24705336  1  0  0.416261  0  0.874365  0  0  0.387723  0  0.937103  0  0  0.39903  0  0.920648  0  0  0.291862  0.379672  0  0.948851  0
H  H49  1  0.07814179  0.95235968  0.74705300  1  0  0.416254  0  0.874268  0  0  0.387717  0  0.93708  0  0  0.399025  0  0.920623  0  0  0.291847  0.379664  0  0.948831  0
H  H50  1  0.57814819  0.95236104  0.75294741  1  0  0.4163  0  0.874272  0  0  0.38774  0  0.937062  0  0  0.399047  0  0.920608  0  0  0.291882  0.379688  0  0.948812  0
H  H51  1  0.92184765  0.04764097  0.25294380  1  0  0.416268  0  0.874286  0  0  0.387696  0  0.93713  0  0  0.399005  0  0.920671  0  0  0.291814  0.379645  0  0.94888  0
H  H52  1  0.03386367  0.06822668  0.10132377  1  0  0.416642  0  0.867518  0  0  0.39066  0  0.930163  0  0  0.400101  0  0.916156  0  0  0.299837  0.383956  0  0.940079  0
H  H53  1  0.46613294  0.93176428  0.60132056  1  0  0.416649  0  0.86753  0  0  0.390675  0  0.930142  0  0  0.400116  0  0.916136  0  0  0.299826  0.383969  0  0.940062  0
H  H54  1  0.96613965  0.93176835  0.89867644  1  0  0.41664  0  0.867498  0  0  0.390658  0  0.930154  0  0  0.4001  0  0.916146  0  0  0.299823  0.383951  0  0.940075  0
H  H55  1  0.53385541  0.06821999  0.39867680  1  0  0.416753  0  0.867344  0  0  0.390806  0  0.929926  0  0  0.400246  0  0.915923  0  0  0.299902  0.384102  0  0.939844  0
H  H56  1  0.09659542  0.08134959  0.01759622  1  0  0.410348  0  0.849423  0  0  0.388804  0  0.916207  0  0  0.397487  0  0.905787  0  0  0.308047  0.382514  0  0.923771  0
H  H57  1  0.40337721  0.91861649  0.51759534  1  0  0.41028  0  0.849517  0  0  0.388802  0  0.916239  0  0  0.397483  0  0.905821  0  0  0.308024  0.382512  0  0.923801  0
H  H58  1  0.90339573  0.91864449  0.98240342  1  0  0.410265  0  0.849422  0  0  0.388733  0  0.916204  0  0  0.397417  0  0.905782  0  0  0.307995  0.382443  0  0.923767  0
H  H59  1  0.59659075  0.08132537  0.48240486  1  0  0.410435  0  0.849193  0  0  0.388926  0  0.915951  0  0  0.397613  0  0.90552  0  0  0.308075  0.382635  0  0.923518  0
C  C60  1  0.03064220  0.30568261  0.20541955  1  0  0.720145  0  3.79703  0  0  0.664825  0  4.101618  0  0  0.699694  0  4.09328  0  0  0.228978  0.641042  0  4.106622  0
C  C61  1  0.46934400  0.69431774  0.70541503  1  0  0.720193  0  3.796912  0  0  0.664765  0  4.10163  0  0  0.699624  0  4.093293  0  0  0.22896  0.640971  0  4.106631  0
C  C62  1  0.96936055  0.69431461  0.79458293  1  0  0.720179  0  3.797183  0  0  0.665006  0  4.101573  0  0  0.699866  0  4.093224  0  0  0.22906  0.641216  0  4.106579  0
C  C63  1  0.53064251  0.30568512  0.29457836  1  0  0.720331  0  3.796564  0  0  0.664978  0  4.101221  0  0  0.699835  0  4.092878  0  0  0.229038  0.641192  0  4.106226  0
C  C64  1  0.14460267  0.44292429  0.17369387  1  0  -0.202341  0  3.63968  0  0  -0.259788  0  3.893158  0  0  -0.262238  0  3.900605  0  0  -0.07289  -0.258153  0  3.888272  0
C  C65  1  0.35538927  0.55707408  0.67368629  1  0  -0.202518  0  3.640272  0  0  -0.259863  0  3.893722  0  0  -0.262228  0  3.901029  0  0  -0.072933  -0.258233  0  3.888845  0
C  C66  1  0.85539977  0.55707185  0.82631314  1  0  -0.202443  0  3.639997  0  0  -0.260004  0  3.893522  0  0  -0.262398  0  3.900892  0  0  -0.072895  -0.258375  0  3.888644  0
C  C67  1  0.64460729  0.44292649  0.32631051  1  0  -0.202359  0  3.639747  0  0  -0.259853  0  3.8933  0  0  -0.26224  0  3.900659  0  0  -0.072929  -0.258221  0  3.888427  0
C  C68  1  0.20951343  0.39578719  0.04127226  1  0  -0.166065  0  3.667191  0  0  -0.222774  0  3.921345  0  0  -0.22335  0  3.928515  0  0  -0.070677  -0.222425  0  3.916087  0
C  C69  1  0.29047471  0.60421759  0.54126805  1  0  -0.165841  0  3.666785  0  0  -0.222815  0  3.921287  0  0  -0.223414  0  3.928492  0  0  -0.070674  -0.22243  0  3.915977  0
C  C70  1  0.79048500  0.60421992  0.95873021  1  0  -0.166167  0  3.667053  0  0  -0.223005  0  3.921434  0  0  -0.223593  0  3.928625  0  0  -0.070736  -0.222607  0  3.91611  0
C  C71  1  0.70952423  0.39578296  0.45872988  1  0  -0.166034  0  3.666884  0  0  -0.223026  0  3.921386  0  0  -0.223622  0  3.928589  0  0  -0.070726  -0.222621  0  3.916057  0
C  C72  1  0.21136835  0.53508791  0.99777744  1  0  0.509633  0  3.813163  0  0  0.462852  0  4.113464  0  0  0.491489  0  4.113464  0  0  0.230028  0.443634  0  4.112806  0
C  C73  1  0.28862022  0.46491569  0.49777008  1  0  0.509756  0  3.813012  0  0  0.462903  0  4.113514  0  0  0.491543  0  4.113523  0  0  0.230068  0.443688  0  4.112825  0
C  C74  1  0.78862502  0.46491816  0.00222843  1  0  0.509941  0  3.812915  0  0  0.463001  0  4.113482  0  0  0.491641  0  4.113486  0  0  0.230085  0.443785  0  4.112791  0
C  C75  1  0.71137422  0.53508162  0.50222728  1  0  0.509856  0  3.813014  0  0  0.463001  0  4.113528  0  0  0.491639  0  4.113537  0  0  0.230043  0.443783  0  4.112838  0
C  C76  1  0.42058029  0.53097716  0.12139106  1  0  -0.035794  0  3.623961  0  0  -0.094565  0  3.888265  0  0  -0.09175  0  3.899695  0  0  -0.068532  -0.096489  0  3.880645  0
C  C77  1  0.07941336  0.46902092  0.62138348  1  0  -0.035772  0  3.623914  0  0  -0.09435  0  3.887982  0  0  -0.091591  0  3.899496  0  0  -0.068464  -0.09625  0  3.880337  0
C  C78  1  0.57942071  0.46902227  0.87861312  1  0  -0.035843  0  3.623826  0  0  -0.094479  0  3.887974  0  0  -0.091697  0  3.899463  0  0  -0.068516  -0.096389  0  3.880342  0
C  C79  1  0.92058403  0.53097418  0.37861162  1  0  -0.035864  0  3.623906  0  0  -0.094566  0  3.88809  0  0  -0.091773  0  3.899565  0  0  -0.068507  -0.096474  0  3.88046  0
C  C80  1  0.38794120  0.67620112  0.09868836  1  0  -0.012966  0  3.641009  0  0  -0.07602  0  3.90629  0  0  -0.071925  0  3.918215  0  0  -0.057523  -0.078578  0  3.898084  0
C  C81  1  0.11205496  0.32380070  0.59868068  1  0  -0.013133  0  3.64116  0  0  -0.076298  0  3.906498  0  0  -0.072201  0  3.918421  0  0  -0.057549  -0.078829  0  3.898297  0
C  C82  1  0.61206279  0.32380046  0.90131639  1  0  -0.012763  0  3.640921  0  0  -0.0759  0  3.906274  0  0  -0.071816  0  3.918202  0  0  -0.057461  -0.078458  0  3.898067  0
C  C83  1  0.88794217  0.67619768  0.40131555  1  0  -0.012917  0  3.641015  0  0  -0.075921  0  3.906212  0  0  -0.071848  0  3.918151  0  0  -0.057485  -0.078478  0  3.898004  0
C  C84  1  0.28196503  0.79764340  0.99173863  1  0  -0.153881  0  3.664107  0  0  -0.21611  0  3.918213  0  0  -0.216234  0  3.925189  0  0  -0.062244  -0.216336  0  3.913559  0
C  C85  1  0.21804375  0.20235983  0.49173050  1  0  -0.153646  0  3.663981  0  0  -0.215852  0  3.918046  0  0  -0.21595  0  3.925058  0  0  -0.062191  -0.216068  0  3.913392  0
C  C86  1  0.71804651  0.20236794  0.00826385  1  0  -0.153793  0  3.664054  0  0  -0.216009  0  3.91813  0  0  -0.21609  0  3.925139  0  0  -0.06225  -0.216227  0  3.913473  0
C  C87  1  0.78196143  0.79764174  0.50826516  1  0  -0.15393  0  3.664206  0  0  -0.216131  0  3.918304  0  0  -0.216231  0  3.925297  0  0  -0.062274  -0.216346  0  3.913654  0
C  C88  1  0.42105983  0.85449652  0.93547897  1  0  0.697252  0  3.842401  0  0  0.647701  0  4.147626  0  0  0.681345  0  4.140513  0  0  0.215573  0.625008  0  4.151601  0
C  C89  1  0.07894462  0.14549763  0.43547018  1  0  0.697284  0  3.842462  0  0  0.647643  0  4.147808  0  0  0.68129  0  4.140691  0  0  0.215586  0.624951  0  4.151776  0
C  C90  1  0.57894261  0.14549962  0.06452691  1  0  0.697272  0  3.842257  0  0  0.647617  0  4.147638  0  0  0.681262  0  4.140518  0  0  0.215588  0.624923  0  4.151607  0
C  C91  1  0.92105757  0.85450178  0.56452434  1  0  0.697407  0  3.842059  0  0  0.647809  0  4.147355  0  0  0.681453  0  4.14024  0  0  0.215625  0.625116  0  4.151327  0
N  N92  1  0.26806318  0.41261970  0.12059112  1  0  -0.189588  0  3.276836  0  0  -0.09898  0  3.523752  0  0  -0.115654  0  3.543686  0  0  -0.337976  -0.087333  0  3.50976  0
N  N93  1  0.23192846  0.58738384  0.62058749  1  0  -0.18977  0  3.277127  0  0  -0.099142  0  3.524068  0  0  -0.115814  0  3.544008  0  0  -0.337999  -0.087512  0  3.510068  0
N  N94  1  0.73194200  0.58738187  0.87941022  1  0  -0.18954  0  3.276881  0  0  -0.098876  0  3.523734  0  0  -0.115555  0  3.543664  0  0  -0.338016  -0.087251  0  3.509739  0
N  N95  1  0.76806186  0.41261571  0.37940987  1  0  -0.189573  0  3.2769  0  0  -0.098864  0  3.523737  0  0  -0.11555  0  3.543675  0  0  -0.337999  -0.087246  0  3.509745  0
N  N96  1  0.28828443  0.66350210  0.02975839  1  0  -0.181746  0  3.428183  0  0  -0.098519  0  3.666846  0  0  -0.118361  0  3.688421  0  0  -0.278946  -0.08509  0  3.651851  0
N  N97  1  0.21171680  0.33650224  0.52975227  1  0  -0.18209  0  3.428373  0  0  -0.098786  0  3.667103  0  0  -0.118627  0  3.68867  0  0  -0.279032  -0.085356  0  3.652088  0
N  N98  1  0.71171843  0.33650387  0.97024692  1  0  -0.1821  0  3.428433  0  0  -0.098775  0  3.667168  0  0  -0.118622  0  3.68874  0  0  -0.278983  -0.085346  0  3.652165  0
N  N99  1  0.78828539  0.66349718  0.47024793  1  0  -0.182031  0  3.42835  0  0  -0.098746  0  3.667012  0  0  -0.118594  0  3.688596  0  0  -0.278976  -0.085318  0  3.652012  0
O  O100  1  0.06272104  0.18122989  0.19303301  1  0  -0.670986  0  2.063285  0  0  -0.586243  0  2.296823  0  0  -0.616086  0  2.282467  0  0  -0.306589  -0.565617  0  2.306423  0
O  O101  1  0.43728007  0.81877216  0.69303013  1  0  -0.67096  0  2.063548  0  0  -0.586175  0  2.297087  0  0  -0.616027  0  2.282752  0  0  -0.306514  -0.565508  0  2.306655  0
O  O102  1  0.93727609  0.81876848  0.80696548  1  0  -0.671022  0  2.063398  0  0  -0.586319  0  2.29685  0  0  -0.616171  0  2.282504  0  0  -0.306595  -0.565662  0  2.306428  0
O  O103  1  0.56271324  0.18122954  0.30696099  1  0  -0.67101  0  2.063311  0  0  -0.586291  0  2.296859  0  0  -0.616135  0  2.282508  0  0  -0.306553  -0.565648  0  2.306443  0
O  O104  1  0.91230053  0.32368979  0.24492158  1  0  -0.615539  0  2.046383  0  0  -0.552268  0  2.303924  0  0  -0.580192  0  2.291374  0  0  -0.304162  -0.532783  0  2.312006  0
O  O105  1  0.58768181  0.67629795  0.74492753  1  0  -0.615546  0  2.045949  0  0  -0.552203  0  2.303506  0  0  -0.580138  0  2.290965  0  0  -0.304134  -0.53272  0  2.311595  0
O  O106  1  0.08770253  0.67630853  0.75508316  1  0  -0.615505  0  2.046512  0  0  -0.552239  0  2.303945  0  0  -0.580167  0  2.291397  0  0  -0.304151  -0.532758  0  2.312035  0
O  O107  1  0.41229932  0.32370279  0.25507494  1  0  -0.615631  0  2.046106  0  0  -0.55228  0  2.303599  0  0  -0.580209  0  2.291054  0  0  -0.304128  -0.532795  0  2.311685  0
O  O108  1  0.14220764  0.52613859  0.93483500  1  0  -0.563126  0  1.90816  0  0  -0.529882  0  2.133893  0  0  -0.5507  0  2.12723  0  0  -0.32316  -0.5153  0  2.138038  0
O  O109  1  0.35777953  0.47387431  0.43482640  1  0  -0.563187  0  1.908059  0  0  -0.529891  0  2.133837  0  0  -0.550708  0  2.127174  0  0  -0.323223  -0.515312  0  2.137975  0
O  O110  1  0.85778284  0.47387407  0.06517201  1  0  -0.563247  0  1.908048  0  0  -0.529942  0  2.133866  0  0  -0.55076  0  2.127205  0  0  -0.323223  -0.515362  0  2.138004  0
O  O111  1  0.64221352  0.52613067  0.56516926  1  0  -0.563228  0  1.908155  0  0  -0.529953  0  2.133955  0  0  -0.550765  0  2.127282  0  0  -0.323205  -0.515375  0  2.138095  0
O  O112  1  0.52303137  0.77517265  0.92503635  1  0  -0.665654  0  2.090814  0  0  -0.595836  0  2.360785  0  0  -0.62586  0  2.348626  0  0  -0.325828  -0.575012  0  2.368512  0
O  O113  1  0.97697288  0.22482393  0.42503514  1  0  -0.665676  0  2.090787  0  0  -0.595859  0  2.360822  0  0  -0.625887  0  2.348676  0  0  -0.325858  -0.575028  0  2.368533  0
O  O114  1  0.47696814  0.22482570  0.07496555  1  0  -0.665747  0  2.090845  0  0  -0.595877  0  2.360849  0  0  -0.625902  0  2.348694  0  0  -0.325875  -0.575053  0  2.368578  0
O  O115  1  0.02303204  0.77518092  0.57496450  1  0  -0.665751  0  2.090771  0  0  -0.595914  0  2.360758  0  0  -0.625938  0  2.348602  0  0  -0.325837  -0.575085  0  2.368473  0
O  O116  1  0.42202249  0.97359879  0.90298435  1  0  -0.624951  0  1.927051  0  0  -0.575265  0  2.138465  0  0  -0.599923  0  2.128118  0  0  -0.326147  -0.557845  0  2.145013  0
O  O117  1  0.07798744  0.02639663  0.40297747  1  0  -0.624936  0  1.927099  0  0  -0.575198  0  2.138541  0  0  -0.599857  0  2.128196  0  0  -0.326121  -0.557781  0  2.145089  0
O  O118  1  0.57799244  0.02639939  0.09702039  1  0  -0.624853  0  1.926968  0  0  -0.57513  0  2.138427  0  0  -0.599787  0  2.128081  0  0  -0.326071  -0.55771  0  2.144974  0
O  O119  1  0.92201629  0.97360823  0.59701933  1  0  -0.62498  0  1.926781  0  0  -0.575271  0  2.138211  0  0  -0.599931  0  2.127869  0  0  -0.326132  -0.55785  0  2.144754  0
O  O120  1  0.35646401  0.01139444  0.20116710  1  0  -0.812196  0  1.865534  0  0  -0.747848  0  2.049681  0  0  -0.770844  0  2.013433  0  0  -0.581199  -0.731589  0  2.074936  0
O  O121  1  0.14353583  0.98860346  0.70116516  1  0  -0.812223  0  1.865437  0  0  -0.747883  0  2.049682  0  0  -0.77088  0  2.013431  0  0  -0.581186  -0.731621  0  2.074941  0
O  O122  1  0.64353575  0.98860063  0.79883424  1  0  -0.81221  0  1.865508  0  0  -0.747845  0  2.049713  0  0  -0.770842  0  2.013468  0  0  -0.581208  -0.731586  0  2.07497  0
O  O123  1  0.85646011  0.01139493  0.29883221  1  0  -0.812116  0  1.865524  0  0  -0.747712  0  2.04974  0  0  -0.770714  0  2.013497  0  0  -0.581052  -0.731448  0  2.074994  0
O  O124  1  0.10618644  0.03358849  0.06590789  1  0  -0.799738  0  1.804456  0  0  -0.753845  0  1.974077  0  0  -0.771624  0  1.947807  0  0  -0.574737  -0.741325  0  1.992316  0
O  O125  1  0.39382776  0.96642103  0.56590003  1  0  -0.799664  0  1.804515  0  0  -0.753868  0  1.973988  0  0  -0.771643  0  1.94772  0  0  -0.574682  -0.741351  0  1.992225  0
O  O126  1  0.89381038  0.96640880  0.93408948  1  0  -0.799615  0  1.804398  0  0  -0.753743  0  1.974026  0  0  -0.771519  0  1.947756  0  0  -0.574649  -0.741225  0  1.992269  0
O  O127  1  0.60622949  0.03361714  0.43408031  1  0  -0.79989  0  1.804205  0  0  -0.754055  0  1.973794  0  0  -0.771833  0  1.947518  0  0  -0.574804  -0.74154  0  1.992045  0
