# generated using pymatgen
data_DyPH11C9SNO9
_symmetry_space_group_name_H-M   'P 1'
_cell_length_a   6.75003474
_cell_length_b   7.52037475
_cell_length_c   13.33570429
_cell_angle_alpha   90.65268228
_cell_angle_beta   93.26241160
_cell_angle_gamma   101.85504108
_symmetry_Int_Tables_number   1
_chemical_formula_structural   DyPH11C9SNO9
_chemical_formula_sum   'Dy2 P2 H22 C18 S2 N2 O18'
_cell_volume   661.26009730
_cell_formula_units_Z   2
loop_
 _symmetry_equiv_pos_site_id
 _symmetry_equiv_pos_as_xyz
  1  'x, y, z'
loop_
 _atom_site_type_symbol
 _atom_site_label
 _atom_site_symmetry_multiplicity
 _atom_site_fract_x
 _atom_site_fract_y
 _atom_site_fract_z
 _atom_site_occupancy
 _atom_site_hle17_bader_spin_density
 _atom_site_hle17_ddec_charge
 _atom_site_hle17_ddec_spin_density
 _atom_site_hle17_ddec_sum_bond_order
 _atom_site_hle17_magmom
 _atom_site_hse06_10hf_bader_spin_density
 _atom_site_hse06_10hf_ddec_charge
 _atom_site_hse06_10hf_ddec_spin_density
 _atom_site_hse06_10hf_ddec_sum_bond_order
 _atom_site_hse06_10hf_magmom
 _atom_site_hse06_bader_spin_density
 _atom_site_hse06_ddec_charge
 _atom_site_hse06_ddec_spin_density
 _atom_site_hse06_ddec_sum_bond_order
 _atom_site_hse06_magmom
 _atom_site_pbe_bader_spin_density
 _atom_site_pbe_cm5_charge
 _atom_site_pbe_ddec_charge
 _atom_site_pbe_ddec_spin_density
 _atom_site_pbe_ddec_sum_bond_order
 _atom_site_pbe_magmom
Dy  Dy0  1  0.28519761  0.76877482  0.45492053  1  0  2.368231  0  1.584152  0  0  2.305579  0  1.901723  0  0  2.346287  0  1.863459  0  0  1.550245  2.205676  0  2.057434  0
Dy  Dy1  1  0.71480106  0.23122385  0.54507935  1  0  2.368214  0  1.584129  0  0  2.305562  0  1.901704  0  0  2.346267  0  1.863441  0  0  1.550216  2.205673  0  2.057398  0
P  P2  1  0.25079243  0.38644289  0.62070762  1  0  1.536915  0  4.922213  0  0  1.373  0  5.432507  0  0  1.42586  0  5.386969  0  0  0.379322  1.334494  0  5.456766  0
P  P3  1  0.74920656  0.61355713  0.37929152  1  0  1.536893  0  4.922256  0  0  1.372994  0  5.432526  0  0  1.425852  0  5.386996  0  0  0.379305  1.334492  0  5.456789  0
H  H4  1  0.16778599  0.10668411  0.77429102  1  0  0.132428  0  0.932525  0  0  0.143407  0  0.986115  0  0  0.147202  0  0.984511  0  0  0.12359  0.140376  0  0.98809  0
H  H5  1  0.83221152  0.89331593  0.22570958  1  0  0.132479  0  0.932453  0  0  0.143444  0  0.986047  0  0  0.147247  0  0.984433  0  0  0.123611  0.140414  0  0.988024  0
H  H6  1  0.16659795  0.12571639  0.96134393  1  0  0.096318  0  0.930454  0  0  0.111379  0  0.9857  0  0  0.11374  0  0.983971  0  0  0.11347  0.109661  0  0.986913  0
H  H7  1  0.83340040  0.87428092  0.03865667  1  0  0.096321  0  0.930469  0  0  0.111389  0  0.985701  0  0  0.113749  0  0.983973  0  0  0.113457  0.109654  0  0.986932  0
H  H8  1  0.21449968  0.31975540  0.12026636  1  0  0.11523  0  0.959536  0  0  0.124014  0  1.02097  0  0  0.127609  0  1.018417  0  0  0.105389  0.121308  0  1.022954  0
H  H9  1  0.78550260  0.68024598  0.87973513  1  0  0.1152  0  0.959587  0  0  0.124014  0  1.02098  0  0  0.127593  0  1.018448  0  0  0.105404  0.121308  0  1.022958  0
H  H10  1  0.27361490  0.62769023  0.19927846  1  0  0.122149  0  0.95148  0  0  0.130114  0  1.01338  0  0  0.133577  0  1.011692  0  0  0.114234  0.127687  0  1.014309  0
H  H11  1  0.72638441  0.37231117  0.80072295  1  0  0.122193  0  0.951518  0  0  0.130166  0  1.013391  0  0  0.133637  0  1.011682  0  0  0.114265  0.12773  0  1.014326  0
H  H12  1  0.32949654  0.89983718  0.09602653  1  0  0.096897  0  0.950333  0  0  0.107296  0  1.010995  0  0  0.110161  0  1.009158  0  0  0.104376  0.104992  0  1.012725  0
H  H13  1  0.67050097  0.10016286  0.90397406  1  0  0.096877  0  0.950341  0  0  0.107284  0  1.010999  0  0  0.110149  0  1.009164  0  0  0.10437  0.104984  0  1.012723  0
H  H14  1  0.33489130  0.87167826  0.90777838  1  0  0.120201  0  0.968219  0  0  0.127819  0  1.031636  0  0  0.131088  0  1.030505  0  0  0.108123  0.12549  0  1.032435  0
H  H15  1  0.66510738  0.12832042  0.09222225  1  0  0.120224  0  0.968181  0  0  0.127837  0  1.031606  0  0  0.131108  0  1.030474  0  0  0.108111  0.125501  0  1.032416  0
H  H16  1  0.31053658  0.67856059  0.76634819  1  0  0.316219  0  0.90055  0  0  0.291672  0  0.967453  0  0  0.301258  0  0.959735  0  0  0.31747  0.284699  0  0.973461  0
H  H17  1  0.68946273  0.32144080  0.23365321  1  0  0.316219  0  0.900573  0  0  0.291697  0  0.967442  0  0  0.301267  0  0.959748  0  0  0.317482  0.284723  0  0.973452  0
H  H18  1  0.23139228  0.39115799  0.34445204  1  0  0.461526  0  0.825175  0  0  0.433739  0  0.881432  0  0  0.44406  0  0.866352  0  0  0.307926  0.425918  0  0.892842  0
H  H19  1  0.76860736  0.60884474  0.65554488  1  0  0.461516  0  0.825187  0  0  0.433737  0  0.881432  0  0  0.444058  0  0.866354  0  0  0.307913  0.425916  0  0.89284  0
H  H20  1  0.02420998  0.41748465  0.38626100  1  0  0.433355  0  0.864096  0  0  0.40397  0  0.927597  0  0  0.414107  0  0.912453  0  0  0.310336  0.396973  0  0.937526  0
H  H21  1  0.97578933  0.58251672  0.61373515  1  0  0.433345  0  0.864088  0  0  0.403956  0  0.927602  0  0  0.414099  0  0.912453  0  0  0.310333  0.39696  0  0.937526  0
H  H22  1  0.22997520  0.92168945  0.64492517  1  0  0.419689  0  0.891549  0  0  0.390117  0  0.954383  0  0  0.400339  0  0.939247  0  0  0.296416  0.382921  0  0.964812  0
H  H23  1  0.77002347  0.07830922  0.35507546  1  0  0.419698  0  0.891535  0  0  0.390123  0  0.954374  0  0  0.400345  0  0.939239  0  0  0.296418  0.382929  0  0.9648  0
H  H24  1  0.10956910  0.03952183  0.57611205  1  0  0.445699  0  0.852029  0  0  0.418908  0  0.908731  0  0  0.429345  0  0.893483  0  0  0.306996  0.411382  0  0.919347  0
H  H25  1  0.89043285  0.96047819  0.42388793  1  0  0.445656  0  0.852086  0  0  0.41887  0  0.908781  0  0  0.429306  0  0.893534  0  0  0.306987  0.411344  0  0.919397  0
C  C26  1  0.23915663  0.39686930  0.75821164  1  0  0.017263  0  3.551382  0  0  0.024012  0  3.804964  0  0  0.030859  0  3.816024  0  0  0.149615  0.018918  0  3.799634  0
C  C27  1  0.76084268  0.60313209  0.24179052  1  0  0.017353  0  3.551283  0  0  0.024088  0  3.804863  0  0  0.030939  0  3.815917  0  0  0.149602  0.018986  0  3.799554  0
C  C28  1  0.19726033  0.23705392  0.81405386  1  0  -0.070516  0  3.672936  0  0  -0.093453  0  3.929379  0  0  -0.100798  0  3.947939  0  0  -0.060357  -0.089259  0  3.918414  0
C  C29  1  0.80273899  0.76294747  0.18594679  1  0  -0.070569  0  3.672927  0  0  -0.093474  0  3.92935  0  0  -0.100825  0  3.947904  0  0  -0.060351  -0.089285  0  3.918394  0
C  C30  1  0.19674330  0.24859064  0.91718876  1  0  -0.019599  0  3.669621  0  0  -0.047265  0  3.922016  0  0  -0.041285  0  3.937642  0  0  -0.048378  -0.050964  0  3.911552  0
C  C31  1  0.80325685  0.75140803  0.08281341  1  0  -0.019691  0  3.669739  0  0  -0.047371  0  3.922124  0  0  -0.04139  0  3.937752  0  0  -0.048397  -0.051048  0  3.911657  0
C  C32  1  0.23429499  0.41933121  0.96796397  1  0  0.004221  0  3.813086  0  0  0.023091  0  4.041461  0  0  0.018441  0  4.067301  0  0  -0.000276  0.025872  0  4.024266  0
C  C33  1  0.76570845  0.58066881  0.03203829  1  0  0.004227  0  3.813123  0  0  0.023079  0  4.041481  0  0  0.018429  0  4.067317  0  0  -0.000312  0.025854  0  4.024289  0
C  C34  1  0.23714018  0.43983199  0.07379684  1  0  -0.099674  0  3.711756  0  0  -0.123973  0  3.967217  0  0  -0.125427  0  3.988397  0  0  -0.082746  -0.122644  0  3.953086  0
C  C35  1  0.76286622  0.56016800  0.92620401  1  0  -0.099614  0  3.711783  0  0  -0.123919  0  3.967225  0  0  -0.125361  0  3.988415  0  0  -0.082738  -0.122586  0  3.953079  0
C  C36  1  0.27190932  0.61072054  0.11808090  1  0  -0.048059  0  3.695367  0  0  -0.067519  0  3.954316  0  0  -0.071543  0  3.976986  0  0  -0.08195  -0.065198  0  3.939874  0
C  C37  1  0.72809444  0.38928083  0.88191913  1  0  -0.048111  0  3.695404  0  0  -0.067599  0  3.95439  0  0  -0.07162  0  3.977058  0  0  -0.081979  -0.065267  0  3.939924  0
C  C38  1  0.30462098  0.76707346  0.05832317  1  0  -0.032098  0  3.744264  0  0  -0.049731  0  4.000627  0  0  -0.049096  0  4.021973  0  0  -0.078205  -0.049946  0  3.986597  0
C  C39  1  0.69538098  0.23292657  0.94167906  1  0  -0.032036  0  3.744279  0  0  -0.04967  0  4.000647  0  0  -0.049036  0  4.021995  0  0  -0.078182  -0.049888  0  3.986606  0
C  C40  1  0.30594591  0.75305286  0.95498306  1  0  -0.177129  0  3.719176  0  0  -0.196354  0  3.973388  0  0  -0.203023  0  3.994644  0  0  -0.091193  -0.191939  0  3.958908  0
C  C41  1  0.69405637  0.24694852  0.04501693  1  0  -0.177176  0  3.719328  0  0  -0.19642  0  3.973516  0  0  -0.20309  0  3.994773  0  0  -0.091196  -0.192003  0  3.959052  0
C  C42  1  0.27116369  0.57840866  0.90900983  1  0  0.216728  0  3.718964  0  0  0.207614  0  3.955258  0  0  0.214711  0  3.977028  0  0  0.124927  0.202986  0  3.940685  0
C  C43  1  0.72883975  0.42159135  0.09099169  1  0  0.216618  0  3.719167  0  0  0.207575  0  3.955362  0  0  0.214674  0  3.977128  0  0  0.124888  0.202941  0  3.940804  0
S  S44  1  0.39621996  0.08002481  0.30921764  1  0  1.586468  0  5.844098  0  0  1.460901  0  6.403132  0  0  1.51711  0  6.363868  0  0  0.559655  1.422481  0  6.419288  0
S  S45  1  0.60377903  0.91997522  0.69078225  1  0  1.586421  0  5.844137  0  0  1.460849  0  6.403179  0  0  1.517054  0  6.363926  0  0  0.559665  1.422436  0  6.419313  0
N  N46  1  0.27257941  0.55809339  0.80658878  1  0  -0.231953  0  3.438585  0  0  -0.167723  0  3.649095  0  0  -0.18291  0  3.664978  0  0  -0.325047  -0.158104  0  3.639633  0
N  N47  1  0.72741926  0.44190528  0.19341184  1  0  -0.231943  0  3.438604  0  0  -0.167752  0  3.649084  0  0  -0.182929  0  3.664977  0  0  -0.325048  -0.158124  0  3.639626  0
O  O48  1  0.24783078  0.58012883  0.58779076  1  0  -0.965632  0  2.053263  0  0  -0.897771  0  2.324456  0  0  -0.922673  0  2.301341  0  0  -0.462592  -0.869084  0  2.341365  0
O  O49  1  0.75217022  0.41986709  0.41220541  1  0  -0.965644  0  2.053235  0  0  -0.897797  0  2.324436  0  0  -0.922696  0  2.301316  0  0  -0.462599  -0.869118  0  2.341343  0
O  O50  1  0.44332857  0.32006245  0.60359403  1  0  -0.937592  0  1.994807  0  0  -0.876982  0  2.27582  0  0  -0.903524  0  2.253723  0  0  -0.462718  -0.846373  0  2.294175  0
O  O51  1  0.55667339  0.67993756  0.39640520  1  0  -0.937563  0  1.994901  0  0  -0.87694  0  2.275884  0  0  -0.903482  0  2.25379  0  0  -0.462654  -0.84633  0  2.294234  0
O  O52  1  0.05835124  0.24991156  0.58479308  1  0  -0.941532  0  2.051012  0  0  -0.866248  0  2.307999  0  0  -0.894198  0  2.288376  0  0  -0.440479  -0.836546  0  2.323293  0
O  O53  1  0.94164975  0.75008437  0.41520610  1  0  -0.941503  0  2.050988  0  0  -0.866228  0  2.307974  0  0  -0.89418  0  2.288355  0  0  -0.440472  -0.836523  0  2.323258  0
O  O54  1  0.26702675  0.89686436  0.28749092  1  0  -0.789357  0  1.982928  0  0  -0.751817  0  2.256395  0  0  -0.773138  0  2.240402  0  0  -0.401785  -0.728463  0  2.266028  0
O  O55  1  0.73297405  0.10313702  0.71250828  1  0  -0.789348  0  1.982924  0  0  -0.751797  0  2.256374  0  0  -0.773119  0  2.240382  0  0  -0.401786  -0.728445  0  2.265996  0
O  O56  1  0.43330907  0.08593390  0.42291411  1  0  -0.921539  0  2.105375  0  0  -0.878313  0  2.385124  0  0  -0.899634  0  2.366326  0  0  -0.458245  -0.846166  0  2.395224  0
O  O57  1  0.56668897  0.91406204  0.57708498  1  0  -0.921504  0  2.105355  0  0  -0.878276  0  2.385097  0  0  -0.899597  0  2.366302  0  0  -0.458254  -0.846137  0  2.395189  0
O  O58  1  0.29838772  0.22715816  0.27477526  1  0  -0.687911  0  1.943116  0  0  -0.627869  0  2.176909  0  0  -0.648835  0  2.158802  0  0  -0.337234  -0.614273  0  2.190178  0
O  O59  1  0.70161095  0.77284050  0.72522461  1  0  -0.687879  0  1.943109  0  0  -0.627851  0  2.176909  0  0  -0.648812  0  2.1588  0  0  -0.337237  -0.614263  0  2.190175  0
O  O60  1  0.59509381  0.09657303  0.26172554  1  0  -0.73119  0  1.979826  0  0  -0.667842  0  2.219023  0  0  -0.690501  0  2.202671  0  0  -0.344339  -0.652503  0  2.230057  0
O  O61  1  0.40490518  0.90342700  0.73827435  1  0  -0.731196  0  1.97985  0  0  -0.667837  0  2.219042  0  0  -0.6905  0  2.202692  0  0  -0.344353  -0.652508  0  2.230082  0
O  O62  1  0.16017751  0.48362435  0.37064971  1  0  -0.930942  0  1.872836  0  0  -0.893816  0  2.068079  0  0  -0.911586  0  2.036035  0  0  -0.643878  -0.871524  0  2.094797  0
O  O63  1  0.83981588  0.51637705  0.62934628  1  0  -0.930943  0  1.872904  0  0  -0.893804  0  2.068139  0  0  -0.911576  0  2.036069  0  0  -0.643867  -0.871518  0  2.094849  0
O  O64  1  0.14101121  0.91603009  0.58252712  1  0  -0.904789  0  1.871136  0  0  -0.869957  0  2.062339  0  0  -0.887586  0  2.031013  0  0  -0.652643  -0.84884  0  2.088043  0
O  O65  1  0.85899126  0.08396584  0.41747135  1  0  -0.904758  0  1.871139  0  0  -0.869927  0  2.062342  0  0  -0.887555  0  2.031018  0  0  -0.652628  -0.84881  0  2.088046  0
