# generated using pymatgen
data_KZnH7(C3O4)2
_symmetry_space_group_name_H-M   'P 1'
_cell_length_a   7.33562029
_cell_length_b   7.49132799
_cell_length_c   9.73499985
_cell_angle_alpha   77.46842099
_cell_angle_beta   68.69570588
_cell_angle_gamma   65.06479216
_symmetry_Int_Tables_number   1
_chemical_formula_structural   KZnH7(C3O4)2
_chemical_formula_sum   'K2 Zn2 H14 C12 O16'
_cell_volume   450.66432550
_cell_formula_units_Z   2
loop_
 _symmetry_equiv_pos_site_id
 _symmetry_equiv_pos_as_xyz
  1  'x, y, z'
loop_
 _atom_site_type_symbol
 _atom_site_label
 _atom_site_symmetry_multiplicity
 _atom_site_fract_x
 _atom_site_fract_y
 _atom_site_fract_z
 _atom_site_occupancy
 _atom_site_hle17_bader_spin_density
 _atom_site_hle17_ddec_charge
 _atom_site_hle17_ddec_spin_density
 _atom_site_hle17_ddec_sum_bond_order
 _atom_site_hle17_magmom
 _atom_site_hse06_10hf_bader_spin_density
 _atom_site_hse06_10hf_ddec_charge
 _atom_site_hse06_10hf_ddec_spin_density
 _atom_site_hse06_10hf_ddec_sum_bond_order
 _atom_site_hse06_10hf_magmom
 _atom_site_hse06_bader_spin_density
 _atom_site_hse06_ddec_charge
 _atom_site_hse06_ddec_spin_density
 _atom_site_hse06_ddec_sum_bond_order
 _atom_site_hse06_magmom
 _atom_site_pbe_bader_spin_density
 _atom_site_pbe_cm5_charge
 _atom_site_pbe_ddec_charge
 _atom_site_pbe_ddec_spin_density
 _atom_site_pbe_ddec_sum_bond_order
 _atom_site_pbe_magmom
K  K0  1  0.76409658  0.25602469  0.96457916  1  0  0.938593  0  0.468036  0  0  0.895599  0  0.65029  0  0  0.908765  0  0.629828  0  0  0.796749  0.885597  0  0.665268  0
K  K1  1  0.23589874  0.74398789  0.03542309  1  0  0.938593  0  0.468032  0  0  0.895613  0  0.650253  0  0  0.908765  0  0.629804  0  0  0.796745  0.885614  0  0.66523  0
Zn  Zn2  1  0.60227022  0.86673103  0.26642823  1  0  1.199618  0  1.65963  0  0  1.027538  0  2.126694  0  0  1.078929  0  2.060181  0  0  0.694727  0.989398  0  2.174419  0
Zn  Zn3  1  0.39773042  0.13326825  0.73357277  1  0  1.199618  0  1.659585  0  0  1.027547  0  2.126641  0  0  1.078939  0  2.060129  0  0  0.694732  0.989404  0  2.174361  0
H  H4  1  0.61856497  0.50388430  0.40189543  1  0  0.42423  0  0.837825  0  0  0.401148  0  0.902963  0  0  0.409678  0  0.893185  0  0  0.315089  0.394757  0  0.910559  0
H  H5  1  0.38143098  0.49611943  0.59810919  1  0  0.424209  0  0.837849  0  0  0.401126  0  0.902988  0  0  0.409656  0  0.893209  0  0  0.315075  0.394737  0  0.910578  0
H  H6  1  0.45956134  0.55084691  0.30904751  1  0  0.433857  0  0.867851  0  0  0.400022  0  0.935635  0  0  0.412653  0  0.917368  0  0  0.294323  0.390994  0  0.948701  0
H  H7  1  0.54043931  0.44915236  0.69095349  1  0  0.433837  0  0.867878  0  0  0.4  0  0.935666  0  0  0.41263  0  0.9174  0  0  0.294314  0.39097  0  0.948738  0
H  H8  1  0.17090809  0.94783733  0.30474085  1  0  0.393903  0  0.913832  0  0  0.365591  0  0.98469  0  0  0.377531  0  0.972751  0  0  0.299024  0.357214  0  0.992728  0
H  H9  1  0.82909195  0.05216341  0.69525904  1  0  0.393897  0  0.913823  0  0  0.36559  0  0.98468  0  0  0.377529  0  0.972749  0  0  0.29903  0.357212  0  0.992726  0
H  H10  1  0.93654036  0.42431868  0.45350848  1  0  0.136491  0  0.950059  0  0  0.146518  0  1.015738  0  0  0.149416  0  1.015001  0  0  0.111741  0.144431  0  1.016645  0
H  H11  1  0.06346321  0.57568059  0.54649170  1  0  0.136468  0  0.95004  0  0  0.146489  0  1.01574  0  0  0.149386  0  1.015003  0  0  0.111729  0.144404  0  1.016643  0
H  H12  1  0.89582470  0.20513315  0.46178610  1  0  0.121371  0  0.936163  0  0  0.134511  0  0.995774  0  0  0.137394  0  0.994204  0  0  0.105705  0.132446  0  0.997051  0
H  H13  1  0.10417475  0.79486906  0.53821267  1  0  0.121431  0  0.936104  0  0  0.134544  0  0.995742  0  0  0.137427  0  0.994175  0  0  0.105727  0.13248  0  0.997014  0
H  H14  1  0.95138879  0.24494338  0.20081359  1  0  0.121151  0  0.941821  0  0  0.131516  0  1.006447  0  0  0.135655  0  1.003302  0  0  0.108791  0.128555  0  1.008829  0
H  H15  1  0.04861126  0.75505737  0.79918733  1  0  0.121164  0  0.941823  0  0  0.13153  0  1.006439  0  0  0.135672  0  1.003294  0  0  0.108795  0.128566  0  1.008827  0
H  H16  1  0.99315358  0.46596047  0.18803169  1  0  0.118211  0  0.947555  0  0  0.128769  0  1.015583  0  0  0.131393  0  1.014614  0  0  0.109408  0.12688  0  1.0168  0
H  H17  1  0.00684706  0.53403879  0.81196829  1  0  0.118211  0  0.947582  0  0  0.128795  0  1.015563  0  0  0.13142  0  1.014597  0  0  0.109409  0.126906  0  1.016776  0
C  C18  1  0.09834647  0.18743527  0.58214423  1  0  0.754952  0  3.783651  0  0  0.699861  0  4.089905  0  0  0.73537  0  4.079404  0  0  0.226153  0.675882  0  4.095695  0
C  C19  1  0.90165330  0.81256252  0.41785624  1  0  0.754938  0  3.783686  0  0  0.699857  0  4.089914  0  0  0.735365  0  4.079413  0  0  0.226151  0.67589  0  4.095687  0
C  C20  1  0.01606589  0.26305272  0.44975542  1  0  -0.366775  0  3.617294  0  0  -0.406861  0  3.853125  0  0  -0.414342  0  3.859274  0  0  -0.168771  -0.401681  0  3.848992  0
C  C21  1  0.98393475  0.73694654  0.55024456  1  0  -0.366805  0  3.61735  0  0  -0.4069  0  3.853172  0  0  -0.414382  0  3.859322  0  0  -0.168782  -0.401728  0  3.849039  0
C  C22  1  0.18481272  0.21436733  0.29827828  1  0  0.272656  0  3.562069  0  0  0.271049  0  3.801164  0  0  0.27519  0  3.813041  0  0  0.075296  0.267962  0  3.793329  0
C  C23  1  0.81518937  0.78563193  0.70172026  1  0  0.272658  0  3.562101  0  0  0.2711  0  3.801103  0  0  0.275242  0  3.812984  0  0  0.075282  0.26801  0  3.793272  0
C  C24  1  0.36054319  0.29197534  0.27302533  1  0  0.625382  0  3.876824  0  0  0.573606  0  4.17796  0  0  0.606856  0  4.170596  0  0  0.200376  0.551134  0  4.181952  0
C  C25  1  0.63946010  0.70802096  0.72697340  1  0  0.625445  0  3.876782  0  0  0.573673  0  4.177879  0  0  0.606923  0  4.170514  0  0  0.200394  0.551204  0  4.181879  0
C  C26  1  0.07271524  0.30584699  0.17812589  1  0  -0.359875  0  3.622681  0  0  -0.400743  0  3.858768  0  0  -0.407838  0  3.864478  0  0  -0.165122  -0.396152  0  3.855381  0
C  C27  1  0.92728480  0.69415375  0.82187399  1  0  -0.359951  0  3.622762  0  0  -0.400845  0  3.858778  0  0  -0.407952  0  3.864498  0  0  -0.165161  -0.396247  0  3.855389  0
C  C28  1  0.22396577  0.27062516  0.02173260  1  0  0.732348  0  3.842588  0  0  0.689093  0  4.138957  0  0  0.722395  0  4.130593  0  0  0.207375  0.666773  0  4.143215  0
C  C29  1  0.77603135  0.72937559  0.97826810  1  0  0.73231  0  3.842705  0  0  0.689127  0  4.138964  0  0  0.722431  0  4.130602  0  0  0.207407  0.666795  0  4.143231  0
O  O30  1  0.00587389  0.09979884  0.69422077  1  0  -0.655812  0  2.01777  0  0  -0.605126  0  2.259537  0  0  -0.629834  0  2.24821  0  0  -0.36815  -0.587389  0  2.266925  0
O  O31  1  0.99412762  0.90020190  0.30577871  1  0  -0.655827  0  2.017702  0  0  -0.605137  0  2.259462  0  0  -0.629844  0  2.248133  0  0  -0.368162  -0.587398  0  2.266835  0
O  O32  1  0.52530884  0.61083972  0.35295998  1  0  -0.838949  0  1.909145  0  0  -0.776801  0  2.1284  0  0  -0.798078  0  2.0941  0  0  -0.569328  -0.761881  0  2.153258  0
O  O33  1  0.47469121  0.38916102  0.64703991  1  0  -0.838909  0  1.90917  0  0  -0.776759  0  2.128427  0  0  -0.798037  0  2.094128  0  0  -0.569312  -0.761839  0  2.153283  0
O  O34  1  0.25695465  0.22367134  0.57474802  1  0  -0.650709  0  2.047187  0  0  -0.568344  0  2.309475  0  0  -0.598512  0  2.294391  0  0  -0.31086  -0.54677  0  2.319279  0
O  O35  1  0.74304805  0.77632644  0.42525164  1  0  -0.650679  0  2.04729  0  0  -0.56831  0  2.309567  0  0  -0.598476  0  2.29448  0  0  -0.310834  -0.54675  0  2.319382  0
O  O36  1  0.28427500  0.00464127  0.29043961  1  0  -0.636638  0  2.178311  0  0  -0.563351  0  2.435129  0  0  -0.584539  0  2.417563  0  0  -0.388398  -0.54807  0  2.446729  0
O  O37  1  0.71572650  0.99535946  0.70955782  1  0  -0.636619  0  2.178268  0  0  -0.563359  0  2.435081  0  0  -0.584543  0  2.41752  0  0  -0.388405  -0.54808  0  2.446688  0
O  O38  1  0.30478985  0.47590566  0.27382865  1  0  -0.648096  0  2.035646  0  0  -0.597468  0  2.274286  0  0  -0.623064  0  2.265757  0  0  -0.372126  -0.579564  0  2.279642  0
O  O39  1  0.69521284  0.52409211  0.72616896  1  0  -0.648144  0  2.035651  0  0  -0.597536  0  2.274324  0  0  -0.623134  0  2.265795  0  0  -0.372166  -0.579632  0  2.279678  0
O  O40  1  0.55011338  0.16720523  0.25025514  1  0  -0.676841  0  2.066588  0  0  -0.617726  0  2.337436  0  0  -0.645272  0  2.323046  0  0  -0.380104  -0.598667  0  2.347424  0
O  O41  1  0.44988786  0.83279256  0.74974595  1  0  -0.676841  0  2.066567  0  0  -0.617734  0  2.337411  0  0  -0.645277  0  2.32302  0  0  -0.380071  -0.598665  0  2.347384  0
O  O42  1  0.36972754  0.33443618  0.97682420  1  0  -0.693329  0  1.967067  0  0  -0.648931  0  2.206984  0  0  -0.672121  0  2.197909  0  0  -0.430376  -0.632183  0  2.212319  0
O  O43  1  0.63027310  0.66556309  0.02317577  1  0  -0.693281  0  1.967124  0  0  -0.64891  0  2.206999  0  0  -0.672096  0  2.197922  0  0  -0.430387  -0.632155  0  2.212331  0
O  O44  1  0.18991587  0.17685989  0.94151916  1  0  -0.745739  0  2.018829  0  0  -0.679483  0  2.29885  0  0  -0.707632  0  2.280655  0  0  -0.391517  -0.659679  0  2.311331  0
O  O45  1  0.81008243  0.82313790  0.05848172  1  0  -0.745721  0  2.018895  0  0  -0.679491  0  2.298881  0  0  -0.707638  0  2.280688  0  0  -0.391513  -0.659685  0  2.311367  0
