# generated using pymatgen
data_SrH14C6N10O7
_symmetry_space_group_name_H-M   'P 1'
_cell_length_a   7.70163914
_cell_length_b   9.72777986
_cell_length_c   11.23401081
_cell_angle_alpha   90.19308877
_cell_angle_beta   102.89665134
_cell_angle_gamma   92.28209782
_symmetry_Int_Tables_number   1
_chemical_formula_structural   SrH14C6N10O7
_chemical_formula_sum   'Sr2 H28 C12 N20 O14'
_cell_volume   819.70353148
_cell_formula_units_Z   2
loop_
 _symmetry_equiv_pos_site_id
 _symmetry_equiv_pos_as_xyz
  1  'x, y, z'
loop_
 _atom_site_type_symbol
 _atom_site_label
 _atom_site_symmetry_multiplicity
 _atom_site_fract_x
 _atom_site_fract_y
 _atom_site_fract_z
 _atom_site_occupancy
 _atom_site_hle17_bader_spin_density
 _atom_site_hle17_ddec_charge
 _atom_site_hle17_ddec_spin_density
 _atom_site_hle17_ddec_sum_bond_order
 _atom_site_hle17_magmom
 _atom_site_hse06_10hf_bader_spin_density
 _atom_site_hse06_10hf_ddec_charge
 _atom_site_hse06_10hf_ddec_spin_density
 _atom_site_hse06_10hf_ddec_sum_bond_order
 _atom_site_hse06_10hf_magmom
 _atom_site_hse06_bader_spin_density
 _atom_site_hse06_ddec_charge
 _atom_site_hse06_ddec_spin_density
 _atom_site_hse06_ddec_sum_bond_order
 _atom_site_hse06_magmom
 _atom_site_pbe_bader_spin_density
 _atom_site_pbe_cm5_charge
 _atom_site_pbe_ddec_charge
 _atom_site_pbe_ddec_spin_density
 _atom_site_pbe_ddec_sum_bond_order
 _atom_site_pbe_magmom
Sr  Sr0  1  0.25994872  0.00768331  0.02971611  1  0  1.612511  0  1.121962  0  0  1.474439  0  1.484377  0  0  1.512679  0  1.440576  0  0  0.954779  1.446209  0  1.515641  0
Sr  Sr1  1  0.74004908  0.99230798  0.97029181  1  0  1.61247  0  1.122011  0  0  1.474417  0  1.484406  0  0  1.512663  0  1.440597  0  0  0.954742  1.446186  0  1.515667  0
H  H2  1  0.67992417  0.27689324  0.39338316  1  0  0.356384  0  0.853388  0  0  0.34387  0  0.90448  0  0  0.350169  0  0.899978  0  0  0.325419  0.339463  0  0.907597  0
H  H3  1  0.32009318  0.72310475  0.60660610  1  0  0.356396  0  0.853379  0  0  0.34388  0  0.904475  0  0  0.350178  0  0.899975  0  0  0.325469  0.339474  0  0.90759  0
H  H4  1  0.58199586  0.36566239  0.49848355  1  0  0.336961  0  0.929413  0  0  0.308075  0  1.013204  0  0  0.31709  0  1.004884  0  0  0.295841  0.301659  0  1.019076  0
H  H5  1  0.41800264  0.63433314  0.50150135  1  0  0.336946  0  0.929403  0  0  0.308004  0  1.01328  0  0  0.317026  0  1.004957  0  0  0.295798  0.301585  0  1.019152  0
H  H6  1  0.96928854  0.48829607  0.62076021  1  0  0.3295  0  0.948285  0  0  0.29978  0  1.034139  0  0  0.309093  0  1.025533  0  0  0.290224  0.293164  0  1.040213  0
H  H7  1  0.03069072  0.51171344  0.37923281  1  0  0.329597  0  0.948314  0  0  0.299926  0  1.03409  0  0  0.309237  0  1.025482  0  0  0.290273  0.293311  0  1.040163  0
H  H8  1  0.86682019  0.59652285  0.70906208  1  0  0.344102  0  0.86142  0  0  0.336069  0  0.906944  0  0  0.342004  0  0.902802  0  0  0.323876  0.331852  0  0.909923  0
H  H9  1  0.13317776  0.40348707  0.29093437  1  0  0.344032  0  0.86148  0  0  0.336019  0  0.906988  0  0  0.341951  0  0.902854  0  0  0.323867  0.331804  0  0.909965  0
H  H10  1  0.03684086  0.75054713  0.10123449  1  0  0.426846  0  0.872884  0  0  0.398845  0  0.930679  0  0  0.410151  0  0.913914  0  0  0.293274  0.390794  0  0.942617  0
H  H11  1  0.96315939  0.24943996  0.89877030  1  0  0.426811  0  0.872918  0  0  0.398812  0  0.930732  0  0  0.410123  0  0.913959  0  0  0.293268  0.39076  0  0.942672  0
H  H12  1  0.24147860  0.71514948  0.14686183  1  0  0.391491  0  0.908026  0  0  0.358446  0  0.977654  0  0  0.367528  0  0.964192  0  0  0.295542  0.352145  0  0.986986  0
H  H13  1  0.75852988  0.28484873  0.85313917  1  0  0.391607  0  0.90793  0  0  0.358553  0  0.977514  0  0  0.367634  0  0.964052  0  0  0.295596  0.352257  0  0.986838  0
H  H14  1  0.61649370  0.99620851  0.25723857  1  0  0.432115  0  0.85251  0  0  0.401096  0  0.919066  0  0  0.41137  0  0.903731  0  0  0.305714  0.393821  0  0.929913  0
H  H15  1  0.38349337  0.00379040  0.74276118  1  0  0.432106  0  0.852525  0  0  0.401048  0  0.919109  0  0  0.411313  0  0.903789  0  0  0.305748  0.393774  0  0.929953  0
H  H16  1  0.50323110  0.85720124  0.25380673  1  0  0.389141  0  0.923552  0  0  0.348132  0  1.005143  0  0  0.357886  0  0.990726  0  0  0.292209  0.341109  0  1.015519  0
H  H17  1  0.49676957  0.14279303  0.74620352  1  0  0.389104  0  0.923574  0  0  0.348101  0  1.005167  0  0  0.357853  0  0.990751  0  0  0.292242  0.341078  0  1.015542  0
H  H18  1  0.14105756  0.20580197  0.77969484  1  0  0.380634  0  0.942649  0  0  0.335628  0  1.03022  0  0  0.346134  0  1.015097  0  0  0.290263  0.328245  0  1.040831  0
H  H19  1  0.85893999  0.79419759  0.22031040  1  0  0.380607  0  0.942684  0  0  0.335603  0  1.030267  0  0  0.346107  0  1.015145  0  0  0.290277  0.328218  0  1.04088  0
H  H20  1  0.26947187  0.28776979  0.88632860  1  0  0.398809  0  0.894509  0  0  0.362174  0  0.979423  0  0  0.371493  0  0.965721  0  0  0.300673  0.355627  0  0.989049  0
H  H21  1  0.73053303  0.71222334  0.11367707  1  0  0.398827  0  0.894489  0  0  0.362193  0  0.97938  0  0  0.371509  0  0.965682  0  0  0.300688  0.355646  0  0.989005  0
H  H22  1  0.77259775  0.30971019  0.20559744  1  0  0.122998  0  0.964391  0  0  0.130604  0  1.033562  0  0  0.133751  0  1.031511  0  0  0.122314  0.128549  0  1.035015  0
H  H23  1  0.22740261  0.69028622  0.79440117  1  0  0.123006  0  0.964471  0  0  0.130622  0  1.033638  0  0  0.133769  0  1.031587  0  0  0.122305  0.128568  0  1.035093  0
H  H24  1  0.70352858  0.40988762  0.07297229  1  0  0.135053  0  0.900796  0  0  0.144546  0  0.963818  0  0  0.147863  0  0.960219  0  0  0.131957  0.142039  0  0.966771  0
H  H25  1  0.29646745  0.59009142  0.92702189  1  0  0.135046  0  0.900671  0  0  0.14457  0  0.963684  0  0  0.147888  0  0.960084  0  0  0.132053  0.142067  0  0.966638  0
H  H26  1  0.73356503  0.81181433  0.71068663  1  0  0.121403  0  0.963976  0  0  0.12918  0  1.034603  0  0  0.132679  0  1.031876  0  0  0.123224  0.126656  0  1.036775  0
H  H27  1  0.26641774  0.18819399  0.28931237  1  0  0.121323  0  0.964158  0  0  0.129167  0  1.034721  0  0  0.132661  0  1.031982  0  0  0.123159  0.126664  0  1.036903  0
H  H28  1  0.75184145  0.97003292  0.63705020  1  0  0.135431  0  0.896899  0  0  0.150507  0  0.951201  0  0  0.153583  0  0.948066  0  0  0.136181  0.148238  0  0.953616  0
H  H29  1  0.24817814  0.02998665  0.36294134  1  0  0.135496  0  0.896867  0  0  0.150555  0  0.9512  0  0  0.153622  0  0.948062  0  0  0.136204  0.148305  0  0.953626  0
C  C30  1  0.57033636  0.45994894  0.33603276  1  0  0.530992  0  3.827372  0  0  0.468603  0  4.131365  0  0  0.491834  0  4.13986  0  0  0.347411  0.452937  0  4.12553  0
C  C31  1  0.42964803  0.54005924  0.66398168  1  0  0.530523  0  3.827845  0  0  0.468309  0  4.131749  0  0  0.49154  0  4.140247  0  0  0.347222  0.452641  0  4.125912  0
C  C32  1  0.65972274  0.36293247  0.15044815  1  0  -0.17513  0  3.62263  0  0  -0.237307  0  3.872977  0  0  -0.237677  0  3.877699  0  0  -0.047945  -0.237221  0  3.870349  0
C  C33  1  0.34027805  0.63706295  0.84954251  1  0  -0.175152  0  3.622593  0  0  -0.237337  0  3.87314  0  0  -0.237709  0  3.877863  0  0  -0.048071  -0.23727  0  3.870533  0
C  C34  1  0.50759819  0.25594803  0.10410146  1  0  0.695558  0  3.897942  0  0  0.649381  0  4.19886  0  0  0.681704  0  4.192433  0  0  0.209498  0.627154  0  4.202922  0
C  C35  1  0.49239612  0.74405682  0.89590053  1  0  0.695613  0  3.897641  0  0  0.649503  0  4.198451  0  0  0.681829  0  4.192018  0  0  0.209581  0.627279  0  4.202511  0
C  C36  1  0.90526341  0.67697885  0.54965990  1  0  0.5194  0  3.845459  0  0  0.461231  0  4.141769  0  0  0.48405  0  4.150547  0  0  0.342559  0.445898  0  4.135536  0
C  C37  1  0.09473815  0.32302581  0.45033452  1  0  0.519309  0  3.845648  0  0  0.461199  0  4.141886  0  0  0.484015  0  4.150665  0  0  0.342553  0.445869  0  4.135649  0
C  C38  1  0.82011520  0.87464259  0.66461083  1  0  -0.184244  0  3.639191  0  0  -0.248407  0  3.890892  0  0  -0.248919  0  3.89582  0  0  -0.046739  -0.248108  0  3.887944  0
C  C39  1  0.17988246  0.12536731  0.33539002  1  0  -0.184211  0  3.639234  0  0  -0.248452  0  3.890999  0  0  -0.248896  0  3.89581  0  0  -0.046644  -0.248256  0  3.888178  0
C  C40  1  0.00006594  0.90833394  0.75463646  1  0  0.704317  0  3.872379  0  0  0.657782  0  4.176912  0  0  0.690404  0  4.169714  0  0  0.22313  0.635585  0  4.181236  0
C  C41  1  0.99994517  0.09166724  0.24537038  1  0  0.704412  0  3.872152  0  0  0.657884  0  4.17668  0  0  0.690493  0  4.16948  0  0  0.223169  0.635712  0  4.18101  0
N  N42  1  0.60644722  0.46949986  0.22309676  1  0  -0.050075  0  3.517491  0  0  0.030244  0  3.754185  0  0  0.015714  0  3.77678  0  0  -0.13109  0.039691  0  3.739201  0
N  N43  1  0.39355071  0.53049041  0.77690762  1  0  -0.049624  0  3.517508  0  0  0.030345  0  3.754533  0  0  0.015811  0  3.777136  0  0  -0.130863  0.039804  0  3.739534  0
N  N44  1  0.54916872  0.59160633  0.17432741  1  0  -0.116253  0  2.925677  0  0  -0.114838  0  3.206849  0  0  -0.114078  0  3.215959  0  0  -0.074258  -0.115114  0  3.201109  0
N  N45  1  0.45084407  0.40838143  0.82567255  1  0  -0.116465  0  2.925551  0  0  -0.11496  0  3.206858  0  0  -0.114203  0  3.215967  0  0  -0.074367  -0.115235  0  3.201117  0
N  N46  1  0.48384425  0.65384712  0.25597352  1  0  -0.077118  0  3.110312  0  0  -0.048855  0  3.399573  0  0  -0.046335  0  3.406434  0  0  -0.071951  -0.050398  0  3.395162  0
N  N47  1  0.51615790  0.34615133  0.74402187  1  0  -0.076994  0  3.110307  0  0  -0.048734  0  3.399554  0  0  -0.046208  0  3.40641  0  0  -0.071922  -0.050281  0  3.395149  0
N  N48  1  0.49298213  0.57694815  0.35732367  1  0  -0.385386  0  2.918488  0  0  -0.357391  0  3.202057  0  0  -0.372557  0  3.210748  0  0  -0.226722  -0.347298  0  3.19629  0
N  N49  1  0.50700187  0.42305706  0.64267198  1  0  -0.38539  0  2.918285  0  0  -0.357413  0  3.201809  0  0  -0.37258  0  3.210497  0  0  -0.226702  -0.347319  0  3.196042  0
N  N50  1  0.60321925  0.35322712  0.41150025  1  0  -0.673336  0  3.070889  0  0  -0.637348  0  3.313861  0  0  -0.657554  0  3.30859  0  0  -0.565549  -0.623165  0  3.317326  0
N  N51  1  0.39678845  0.64676389  0.58850058  1  0  -0.673224  0  3.071188  0  0  -0.637195  0  3.314112  0  0  -0.657403  0  3.308843  0  0  -0.565564  -0.623011  0  3.31757  0
N  N52  1  0.84245951  0.80452848  0.55642255  1  0  -0.055635  0  3.547868  0  0  0.026397  0  3.785674  0  0  0.011521  0  3.808281  0  0  -0.133816  0.036036  0  3.770541  0
N  N53  1  0.15754419  0.19548742  0.44357854  1  0  -0.05556  0  3.548056  0  0  0.026458  0  3.78583  0  0  0.011575  0  3.808423  0  0  -0.133857  0.036122  0  3.770726  0
N  N54  1  0.83820624  0.86957212  0.44925833  1  0  -0.078485  0  2.880441  0  0  -0.097322  0  3.176044  0  0  -0.093131  0  3.184262  0  0  -0.076483  -0.100065  0  3.17084  0
N  N55  1  0.16179651  0.13043453  0.55074165  1  0  -0.078448  0  2.880468  0  0  -0.097279  0  3.176067  0  0  -0.093096  0  3.184285  0  0  -0.076468  -0.100018  0  3.170855  0
N  N56  1  0.89566643  0.78337720  0.38058415  1  0  -0.0672  0  3.100335  0  0  -0.042403  0  3.400153  0  0  -0.041599  0  3.408662  0  0  -0.076296  -0.042708  0  3.394546  0
N  N57  1  0.10433091  0.21662656  0.61941126  1  0  -0.067248  0  3.100378  0  0  -0.042473  0  3.400199  0  0  -0.041669  0  3.408705  0  0  -0.07629  -0.042779  0  3.39459  0
N  N58  1  0.93911557  0.66228147  0.43817405  1  0  -0.394848  0  2.938608  0  0  -0.363141  0  3.219632  0  0  -0.378324  0  3.229058  0  0  -0.235306  -0.352834  0  3.21316  0
N  N59  1  0.06087716  0.33772556  0.56181519  1  0  -0.394772  0  2.938525  0  0  -0.36306  0  3.219518  0  0  -0.378248  0  3.228948  0  0  -0.235281  -0.352752  0  3.213044  0
N  N60  1  0.93284848  0.58586285  0.64114417  1  0  -0.684787  0  3.088421  0  0  -0.65116  0  3.334116  0  0  -0.670844  0  3.328479  0  0  -0.573641  -0.637266  0  3.337781  0
N  N61  1  0.06714191  0.41415145  0.35885180  1  0  -0.684853  0  3.088389  0  0  -0.651314  0  3.334051  0  0  -0.670999  0  3.328408  0  0  -0.573695  -0.63742  0  3.337721  0
O  O62  1  0.35987466  0.26704787  0.13299155  1  0  -0.656827  0  1.897704  0  0  -0.608298  0  2.117264  0  0  -0.631586  0  2.109176  0  0  -0.345308  -0.591846  0  2.122608  0
O  O63  1  0.64013935  0.73295936  0.86702209  1  0  -0.656832  0  1.897577  0  0  -0.608314  0  2.117146  0  0  -0.631604  0  2.109055  0  0  -0.345315  -0.591861  0  2.122488  0
O  O64  1  0.14371034  0.89251585  0.72250043  1  0  -0.640405  0  1.938213  0  0  -0.597292  0  2.170258  0  0  -0.619853  0  2.160332  0  0  -0.313867  -0.581517  0  2.176647  0
O  O65  1  0.85630552  0.10749443  0.27751088  1  0  -0.640339  0  1.938302  0  0  -0.597224  0  2.170361  0  0  -0.619793  0  2.160441  0  0  -0.313825  -0.581447  0  2.176736  0
O  O66  1  0.15614728  0.75737968  0.08096074  1  0  -0.861399  0  1.805611  0  0  -0.807716  0  1.969623  0  0  -0.825845  0  1.939334  0  0  -0.619301  -0.794718  0  1.990716  0
O  O67  1  0.84384862  0.24260038  0.91903699  1  0  -0.861498  0  1.805601  0  0  -0.807816  0  1.969567  0  0  -0.825948  0  1.939274  0  0  -0.619356  -0.794822  0  1.99065  0
O  O68  1  0.49417735  0.95604033  0.23598868  1  0  -0.871059  0  1.82483  0  0  -0.818434  0  2.003013  0  0  -0.83656  0  1.972698  0  0  -0.61021  -0.805507  0  2.024463  0
O  O69  1  0.50581237  0.04395121  0.76401955  1  0  -0.871012  0  1.82484  0  0  -0.818331  0  2.003185  0  0  -0.83645  0  1.972877  0  0  -0.610301  -0.805411  0  2.024643  0
O  O70  1  0.98308099  0.95150556  0.85909976  1  0  -0.766463  0  1.997321  0  0  -0.691293  0  2.241612  0  0  -0.721043  0  2.232478  0  0  -0.431205  -0.670127  0  2.24723  0
O  O71  1  0.01693776  0.04847581  0.14090127  1  0  -0.76668  0  1.997018  0  0  -0.691511  0  2.241336  0  0  -0.721267  0  2.232204  0  0  -0.431384  -0.670336  0  2.246939  0
O  O72  1  0.17087659  0.21816115  0.87085224  1  0  -0.8535  0  1.953051  0  0  -0.789349  0  2.146186  0  0  -0.809013  0  2.115899  0  0  -0.586446  -0.775258  0  2.167181  0
O  O73  1  0.82912466  0.78183520  0.12915278  1  0  -0.853503  0  1.953066  0  0  -0.789383  0  2.146275  0  0  -0.809046  0  2.115998  0  0  -0.586483  -0.775293  0  2.167269  0
O  O74  1  0.54410859  0.15870678  0.03854097  1  0  -0.771421  0  2.048476  0  0  -0.704354  0  2.303687  0  0  -0.733659  0  2.294594  0  0  -0.437852  -0.683598  0  2.309624  0
O  O75  1  0.45588321  0.84128885  0.96146320  1  0  -0.7715  0  2.048394  0  0  -0.704492  0  2.303686  0  0  -0.733797  0  2.294592  0  0  -0.437929  -0.683738  0  2.309621  0
