# generated using pymatgen
data_CdH25C32N7O5
_symmetry_space_group_name_H-M   'P 1'
_cell_length_a   10.21224336
_cell_length_b   17.28673554
_cell_length_c   21.72705011
_cell_angle_alpha   98.15830082
_cell_angle_beta   90.00734249
_cell_angle_gamma   107.17824478
_symmetry_Int_Tables_number   1
_chemical_formula_structural   CdH25C32N7O5
_chemical_formula_sum   'Cd4 H100 C128 N28 O20'
_cell_volume   3623.83811899
_cell_formula_units_Z   4
loop_
 _symmetry_equiv_pos_site_id
 _symmetry_equiv_pos_as_xyz
  1  'x, y, z'
loop_
 _atom_site_type_symbol
 _atom_site_label
 _atom_site_symmetry_multiplicity
 _atom_site_fract_x
 _atom_site_fract_y
 _atom_site_fract_z
 _atom_site_occupancy
 _atom_site_pbe_bader_charge
 _atom_site_pbe_bader_spin_density
 _atom_site_pbe_cm5_charge
 _atom_site_pbe_ddec_charge
 _atom_site_pbe_ddec_spin_density
 _atom_site_pbe_ddec_sum_bond_order
 _atom_site_pbe_magmom
Cd  Cd0  1  0.52169363  0.48333368  0.64708663  1  1.253224  0  0.756286  0.810878  0  2.245459  0
Cd  Cd1  1  0.03840673  0.51667011  0.85290719  1  1.251434  0  0.755974  0.811053  0  2.245434  0
Cd  Cd2  1  0.47830695  0.51666723  0.35291315  1  1.253235  0  0.756296  0.810911  0  2.245463  0
Cd  Cd3  1  0.96159257  0.48333019  0.14709298  1  1.251371  0  0.755968  0.811052  0  2.245435  0
H  H4  1  0.74383434  0.69410106  0.67341065  1  0.137551  0  0.129496  0.095223  0  1.001836  0
H  H5  1  0.04979560  0.30603606  0.82668799  1  0.129888  0  0.129061  0.094079  0  1.002262  0
H  H6  1  0.25616434  0.30589801  0.32658846  1  0.137506  0  0.129525  0.095333  0  1.001795  0
H  H7  1  0.95020370  0.69396423  0.17331264  1  0.129875  0  0.129064  0.094085  0  1.002259  0
H  H8  1  0.47496746  0.58030972  0.51776620  1  0.211487  0  0.143625  0.135317  0  1.013118  0
H  H9  1  0.89431584  0.41962806  0.98228920  1  0.212684  0  0.143369  0.133799  0  1.015166  0
H  H10  1  0.52503178  0.41969242  0.48223325  1  0.21143  0  0.143629  0.135361  0  1.013046  0
H  H11  1  0.10568315  0.58037162  0.01770998  1  0.212681  0  0.143311  0.133696  0  1.015218  0
H  H12  1  0.54931836  0.68682391  0.45193747  1  0.160949  0  0.122754  0.12639  0  1.013586  0
H  H13  1  0.86242680  0.31305614  0.04811448  1  0.158264  0  0.122412  0.125726  0  1.014318  0
H  H14  1  0.45068192  0.31317639  0.54806224  1  0.160956  0  0.122753  0.126397  0  1.013553  0
H  H15  1  0.13757152  0.68694416  0.95188569  1  0.15828  0  0.122421  0.125743  0  1.014327  0
H  H16  1  0.72637358  0.74176368  0.46559852  1  0.073386  0  0.117291  0.105081  0  0.972287  0
H  H17  1  0.98469382  0.25823030  0.03442411  1  0.08654  0  0.117333  0.10492  0  0.973045  0
H  H18  1  0.27362767  0.25823662  0.53440072  1  0.073408  0  0.117284  0.105056  0  0.972323  0
H  H19  1  0.01530646  0.74177000  0.96557652  1  0.086532  0  0.117333  0.10493  0  0.973037  0
H  H20  1  0.40555996  0.77048719  0.54188545  1  0.066151  0  0.098357  0.094959  0  1.026501  0
H  H21  1  0.63522405  0.22945361  0.95813694  1  0.061155  0  0.097947  0.095113  0  1.025726  0
H  H22  1  0.59444258  0.22951371  0.45811341  1  0.066114  0  0.098357  0.094969  0  1.026459  0
H  H23  1  0.36477524  0.77054669  0.04186277  1  0.061182  0  0.097952  0.095117  0  1.025755  0
H  H24  1  0.34539581  0.89808093  0.54877615  1  0.051145  0  0.100682  0.098002  0  1.017853  0
H  H25  1  0.44736303  0.10193362  0.95122174  1  0.078912  0  0.101141  0.098036  0  1.017736  0
H  H26  1  0.65460802  0.10192059  0.45122416  1  0.051108  0  0.100727  0.098038  0  1.017778  0
H  H27  1  0.55263694  0.89806606  0.04877744  1  0.07892  0  0.101122  0.098012  0  1.017776  0
H  H28  1  0.76357295  0.87434422  0.44251058  1  0.042112  0  0.102158  0.101276  0  0.996473  0
H  H29  1  0.88927619  0.12549324  0.05750702  1  0.044549  0  0.102634  0.101986  0  0.995741  0
H  H30  1  0.23642868  0.12565485  0.55748853  1  0.042047  0  0.102169  0.101296  0  0.99649  0
H  H31  1  0.11072280  0.87450644  0.94249308  1  0.044527  0  0.10263  0.101998  0  0.995773  0
H  H32  1  0.70323678  0.00159063  0.44731475  1  0.063909  0  0.10209  0.099148  0  1.013463  0
H  H33  1  0.70155224  0.99832122  0.05269545  1  0.054844  0  0.10151  0.098912  0  1.013738  0
H  H34  1  0.29676545  0.99840967  0.55268404  1  0.063945  0  0.102112  0.099158  0  1.01347  0
H  H35  1  0.29844608  0.00167907  0.94730426  1  0.054826  0  0.101511  0.098957  0  1.013765  0
H  H36  1  0.51230603  0.88269737  0.67311663  1  0.070213  0  0.095898  0.092837  0  1.035834  0
H  H37  1  0.62941977  0.11714986  0.82680302  1  0.076855  0  0.095923  0.092843  0  1.035959  0
H  H38  1  0.48769333  0.11730109  0.32688379  1  0.070214  0  0.095902  0.092856  0  1.035815  0
H  H39  1  0.37057892  0.88284921  0.17319655  1  0.076875  0  0.095924  0.092883  0  1.035917  0
H  H40  1  0.61487657  0.01519652  0.85958033  1  0.062004  0  0.09711  0.096142  0  1.036961  0
H  H41  1  0.59967528  0.98469327  0.64033109  1  0.058466  0  0.097033  0.096074  0  1.037335  0
H  H42  1  0.38512499  0.98480439  0.14041944  1  0.061952  0  0.097099  0.096129  0  1.036993  0
H  H43  1  0.40032604  0.01530519  0.35966933  1  0.058487  0  0.097024  0.096079  0  1.03734  0
H  H44  1  0.55572437  0.88531622  0.90063308  1  0.089282  0  0.096197  0.095394  0  1.033524  0
H  H45  1  0.67039214  0.11457967  0.59928628  1  0.020913  0  0.095887  0.094989  0  1.03306  0
H  H46  1  0.44427689  0.11468408  0.09936801  1  0.089211  0  0.096208  0.09541  0  1.03351  0
H  H47  1  0.32961046  0.88541940  0.40071375  1  0.020911  0  0.095865  0.09497  0  1.033048  0
H  H48  1  0.45754056  0.75353147  0.71487015  1  0.049354  0  0.097175  0.097301  0  1.014359  0
H  H49  1  0.70365320  0.24631017  0.78505269  1  0.056034  0  0.096534  0.096496  0  1.015121  0
H  H50  1  0.54245911  0.24646760  0.28513081  1  0.049456  0  0.097157  0.097271  0  1.01432  0
H  H51  1  0.29634518  0.75368829  0.21494727  1  0.056017  0  0.09653  0.096465  0  1.015147  0
H  H52  1  0.50391547  0.74149663  0.88659857  1  0.086035  0  0.121351  0.113329  0  0.961089  0
H  H53  1  0.76249323  0.25846654  0.61339076  1  0.084227  0  0.121049  0.113896  0  0.960426  0
H  H54  1  0.49608579  0.25850367  0.11340252  1  0.086065  0  0.121379  0.113392  0  0.961073  0
H  H55  1  0.23750576  0.74153314  0.38660934  1  0.084219  0  0.121043  0.113901  0  0.960437  0
H  H56  1  0.35804304  0.69948910  0.83478215  1  0.090517  0  0.11971  0.109177  0  0.978346  0
H  H57  1  0.65856091  0.30045902  0.66515840  1  0.105165  0  0.119174  0.108824  0  0.977996  0
H  H58  1  0.64195791  0.30051059  0.16521841  1  0.090509  0  0.119723  0.109202  0  0.978321  0
H  H59  1  0.34143747  0.69953944  0.33484202  1  0.105168  0  0.119213  0.108873  0  0.977941  0
H  H60  1  0.78276082  0.60936472  0.76260892  1  0.163949  0  0.135629  0.109891  0  0.985436  0
H  H61  1  0.17335837  0.39064311  0.73739726  1  0.120072  0  0.135156  0.109311  0  0.986326  0
H  H62  1  0.21724043  0.39063558  0.23739079  1  0.163964  0  0.135639  0.109906  0  0.985422  0
H  H63  1  0.82663959  0.60935841  0.26260350  1  0.120037  0  0.13513  0.10928  0  0.986331  0
H  H64  1  0.36134972  0.58271907  0.75176614  1  0.190306  0  0.143606  0.126486  0  1.010364  0
H  H65  1  0.77852184  0.41720726  0.74823965  1  0.185327  0  0.142808  0.125827  0  1.01004  0
H  H66  1  0.63865154  0.41728123  0.24823403  1  0.190298  0  0.143604  0.126491  0  1.01035  0
H  H67  1  0.22147648  0.58279304  0.25175960  1  0.184923  0  0.142828  0.125857  0  1.010033  0
H  H68  1  0.57052780  0.43387347  0.78396829  1  0.156833  0  0.116452  0.097958  0  1.050432  0
H  H69  1  0.13656528  0.56628220  0.71602166  1  0.152465  0  0.116701  0.098918  0  1.050629  0
H  H70  1  0.42947211  0.56612806  0.21603293  1  0.156873  0  0.116457  0.098021  0  1.05038  0
H  H71  1  0.86343500  0.43371810  0.28397851  1  0.15246  0  0.116736  0.09899  0  1.050603  0
H  H72  1  0.30460205  0.29839381  0.63687370  1  0.107604  0  0.116697  0.084734  0  1.022591  0
H  H73  1  0.00613882  0.70165504  0.86315864  1  0.10708  0  0.11654  0.0849  0  1.022711  0
H  H74  1  0.69539976  0.70160955  0.36312727  1  0.107594  0  0.116705  0.084735  0  1.022517  0
H  H75  1  0.99386177  0.29834587  0.13684114  1  0.107205  0  0.116543  0.084908  0  1.022695  0
H  H76  1  0.20234769  0.18556283  0.69940250  1  0.074358  0  0.113433  0.118268  0  0.98084  0
H  H77  1  0.01669418  0.81455995  0.80070993  1  0.071474  0  0.113562  0.11858  0  0.981906  0
H  H78  1  0.79765516  0.81443869  0.30059642  1  0.074307  0  0.11342  0.118278  0  0.980843  0
H  H79  1  0.98330610  0.18544035  0.19928978  1  0.071483  0  0.113561  0.118583  0  0.981916  0
H  H80  1  0.28903422  0.20151900  0.81036518  1  0.096833  0  0.116911  0.117901  0  0.965752  0
H  H81  1  0.08755436  0.79873603  0.68975025  1  0.101798  0  0.116464  0.117866  0  0.965609  0
H  H82  1  0.71096802  0.79848129  0.18963407  1  0.096801  0  0.116922  0.117866  0  0.965801  0
H  H83  1  0.91244494  0.20126427  0.31024899  1  0.101814  0  0.116468  0.117875  0  0.965627  0
H  H84  1  0.51903743  0.28211857  0.88402148  1  0.053749  0  0.098267  0.065788  0  0.980005  0
H  H85  1  0.23694636  0.71812398  0.61606806  1  0.017932  0  0.097883  0.065278  0  0.980471  0
H  H86  1  0.48096285  0.71788173  0.11597915  1  0.053752  0  0.098298  0.06585  0  0.979918  0
H  H87  1  0.76305490  0.28187631  0.38393210  1  0.017942  0  0.097896  0.065291  0  0.98047  0
H  H88  1  0.57799702  0.38987331  0.88001398  1  0.10125  0  0.105852  0.085093  0  1.026133  0
H  H89  1  0.18816116  0.61036796  0.62005869  1  0.12694  0  0.105815  0.08485  0  1.025969  0
H  H90  1  0.42200228  0.61012699  0.11998665  1  0.101254  0  0.105854  0.085118  0  1.026127  0
H  H91  1  0.81183783  0.38963173  0.37994141  1  0.126929  0  0.105818  0.084853  0  1.025963  0
H  H92  1  0.62127465  0.37734551  0.97770687  1  0.07712  0  0.10039  0.107007  0  1.052882  0
H  H93  1  0.24409581  0.62276061  0.52230393  1  0.081576  0  0.100582  0.107728  0  1.052707  0
H  H94  1  0.37872342  0.62265234  0.02229303  1  0.077113  0  0.1004  0.106994  0  1.052872  0
H  H95  1  0.75590416  0.37723907  0.47769617  1  0.081577  0  0.100584  0.107724  0  1.052706  0
H  H96  1  0.20178977  0.38478484  0.98095813  1  0.115924  0  0.107182  0.126191  0  1.019585  0
H  H97  1  0.81710286  0.61515595  0.51899732  1  0.106764  0  0.107124  0.12635  0  1.019786  0
H  H98  1  0.79821014  0.61521669  0.01904172  1  0.115922  0  0.107188  0.126207  0  1.019564  0
H  H99  1  0.18289741  0.38484434  0.48100239  1  0.106785  0  0.107128  0.126345  0  1.019783  0
H  H100  1  0.47112024  0.47771121  0.14468401  1  0.101194  0  0.101132  0.102911  0  1.057682  0
H  H101  1  0.99353321  0.52213798  0.35533293  1  0.102522  0  0.101345  0.103138  0  1.057767  0
H  H102  1  0.52888230  0.52228970  0.85531577  1  0.10119  0  0.101128  0.102919  0  1.05766  0
H  H103  1  0.00646608  0.47786232  0.64466632  1  0.10214  0  0.101327  0.103154  0  1.057715  0
C  C104  1  0.68850171  0.68273790  0.62885189  1  0.939209  0  0.137831  0.140487  0  4.019655  0
C  C105  1  0.00574585  0.31734693  0.87123054  1  0.953851  0  0.13884  0.143388  0  4.017455  0
C  C106  1  0.31149630  0.31726178  0.37114683  1  0.939155  0  0.137799  0.140411  0  4.019688  0
C  C107  1  0.99425412  0.68265276  0.12876956  1  0.953856  0  0.138836  0.143395  0  4.017479  0
C  C108  1  0.55103322  0.62261747  0.55120579  1  0.981721  0  0.162271  0.090913  0  3.871053  0
C  C109  1  0.92815093  0.37735051  0.94885354  1  0.982741  0  0.162872  0.092991  0  3.872748  0
C  C110  1  0.44896510  0.37738282  0.44879346  1  0.981839  0  0.162266  0.09093  0  3.870989  0
C  C111  1  0.07184806  0.62264918  0.05114656  1  0.982761  0  0.162901  0.093045  0  3.872803  0
C  C112  1  0.62406761  0.73379247  0.48421234  1  0.283675  0  -0.044347  -0.152435  0  3.915388  0
C  C113  1  0.89028745  0.26613798  0.01582579  1  0.26864  0  -0.043756  -0.15109  0  3.915196  0
C  C114  1  0.37593236  0.26620721  0.51578730  1  0.283654  0  -0.044377  -0.152415  0  3.91536  0
C  C115  1  0.10971184  0.73386231  0.98417438  1  0.268638  0  -0.043801  -0.151195  0  3.915101  0
C  C116  1  0.58944582  0.81317912  0.49185974  1  -0.066128  0  -0.009613  0.103725  0  3.985333  0
C  C117  1  0.77638042  0.18671756  0.00814437  1  -0.014459  0  -0.009385  0.10156  0  3.985847  0
C  C118  1  0.41055544  0.18682118  0.50813997  1  -0.066144  0  -0.009585  0.103726  0  3.985373  0
C  C119  1  0.22361887  0.81328273  0.99185580  1  -0.01443  0  -0.009383  0.101624  0  3.985794  0
C  C120  1  0.47192750  0.82169154  0.52167567  1  -0.050399  0  -0.09229  -0.128987  0  3.996594  0
C  C121  1  0.65034254  0.17821894  0.97833150  1  -0.021346  0  -0.091938  -0.12871  0  3.993675  0
C  C122  1  0.52807210  0.17830937  0.47832457  1  -0.050381  0  -0.092327  -0.129008  0  3.99662  0
C  C123  1  0.34965706  0.82178197  0.02166782  1  -0.021389  0  -0.091937  -0.128729  0  3.993704  0
C  C124  1  0.43797356  0.89437327  0.52523072  1  -0.042638  0  -0.09243  -0.13471  0  4.006767  0
C  C125  1  0.54363120  0.10557872  0.97475616  1  -0.128318  0  -0.092575  -0.133752  0  4.005237  0
C  C126  1  0.56202996  0.10562764  0.47476906  1  -0.042799  0  -0.092502  -0.134793  0  4.006673  0
C  C127  1  0.45636810  0.89442158  0.02524447  1  -0.128308  0  -0.092567  -0.133728  0  4.005178  0
C  C128  1  0.67119805  0.87955449  0.46582914  1  0.00717  0  -0.089904  -0.131889  0  4.005968  0
C  C129  1  0.79170762  0.12033021  0.03418252  1  -0.057852  0  -0.090418  -0.131871  0  4.005688  0
C  C130  1  0.32880485  0.12044520  0.53417096  1  0.007313  0  -0.08996  -0.131957  0  4.006044  0
C  C131  1  0.20829039  0.87966947  0.96581758  1  -0.057851  0  -0.090373  -0.131832  0  4.005722  0
C  C132  1  0.63655830  0.95201628  0.46882745  1  -0.039812  0  -0.08937  -0.120272  0  3.990128  0
C  C133  1  0.68453134  0.04790566  0.03116525  1  -0.024302  0  -0.08841  -0.119922  0  3.98864  0
C  C134  1  0.36344492  0.04798402  0.53117226  1  -0.039945  0  -0.089435  -0.120267  0  3.990157  0
C  C135  1  0.31546636  0.95209342  0.96883386  1  -0.024323  0  -0.088443  -0.120058  0  3.988802  0
C  C136  1  0.51896354  0.96157248  0.49864398  1  -0.010681  0  -0.009063  0.056852  0  4.000674  0
C  C137  1  0.55736498  0.03840427  0.00136409  1  0.030095  0  -0.009899  0.056014  0  4.003714  0
C  C138  1  0.48104035  0.03842721  0.50135612  1  -0.048666  0  -0.009018  0.056814  0  4.000591  0
C  C139  1  0.44263364  0.96159664  0.99863615  1  -0.002967  0  -0.009891  0.056037  0  4.003684  0
C  C140  1  0.56792304  0.96063595  0.76263488  1  -0.006606  0  -0.010528  0.061184  0  3.994021  0
C  C141  1  0.60720243  0.03922216  0.73727596  1  0.028316  0  -0.010194  0.062815  0  3.992609  0
C  C142  1  0.43207760  0.03936312  0.23736469  1  -0.006594  0  -0.010506  0.061249  0  3.993967  0
C  C143  1  0.39279821  0.96077691  0.26272362  1  0.028325  0  -0.010217  0.06281  0  3.992644  0
C  C144  1  0.52205502  0.88475170  0.72332234  1  -0.135382  0  -0.0932  -0.122015  0  3.983823  0
C  C145  1  0.63710571  0.11508567  0.77659996  1  -0.138063  0  -0.093556  -0.122936  0  3.983618  0
C  C146  1  0.47794532  0.11524676  0.27667763  1  -0.135447  0  -0.09321  -0.122073  0  3.983745  0
C  C147  1  0.36289365  0.88491279  0.22340000  1  -0.138135  0  -0.093575  -0.123041  0  3.983633  0
C  C148  1  0.57819197  0.95863219  0.82692183  1  -0.032439  0  -0.092322  -0.122537  0  3.975969  0
C  C149  1  0.61954872  0.04124788  0.67299215  1  -0.034772  0  -0.093012  -0.123222  0  3.975271  0
C  C150  1  0.42181026  0.04136811  0.17307788  1  -0.032409  0  -0.092331  -0.122564  0  3.976015  0
C  C151  1  0.38045419  0.95875181  0.32700749  1  -0.034769  0  -0.092963  -0.123207  0  3.975271  0
C  C152  1  0.54584121  0.88478949  0.85056645  1  -0.088813  0  -0.095409  -0.130083  0  4.005501  0
C  C153  1  0.66102215  0.11509116  0.64935017  1  -0.018534  0  -0.094517  -0.128437  0  4.002454  0
C  C154  1  0.45416004  0.11521081  0.14943372  1  -0.088752  0  -0.095393  -0.130062  0  4.005428  0
C  C155  1  0.33898076  0.88490853  0.35064993  1  -0.018534  0  -0.094476  -0.128432  0  4.002386  0
C  C156  1  0.49019615  0.81103695  0.74697349  1  0.00421  0  -0.097707  -0.138612  0  4.013788  0
C  C157  1  0.67887527  0.18880834  0.75295183  1  -0.002168  0  -0.097262  -0.137776  0  4.01478  0
C  C158  1  0.50980419  0.18896151  0.25302693  1  0.004184  0  -0.097704  -0.138568  0  4.013621  0
C  C159  1  0.32112635  0.81119073  0.24704866  1  -0.002114  0  -0.097306  -0.13781  0  4.014822  0
C  C160  1  0.50207315  0.81010301  0.81105183  1  -0.018198  0  -0.016551  0.087713  0  3.992473  0
C  C161  1  0.69185590  0.18977404  0.68887734  1  -0.015974  0  -0.01619  0.087004  0  3.99209  0
C  C162  1  0.49792750  0.18989607  0.18894867  1  -0.018198  0  -0.016577  0.0877  0  3.992431  0
C  C163  1  0.30814603  0.81022565  0.31112322  1  -0.015987  0  -0.016135  0.087181  0  3.992079  0
C  C164  1  0.46903039  0.73075270  0.83750546  1  0.319712  0  -0.037385  -0.129778  0  3.894145  0
C  C165  1  0.73826505  0.26917149  0.66247082  1  0.298111  0  -0.036912  -0.129765  0  3.892145  0
C  C166  1  0.53097026  0.26924637  0.16249503  1  0.319743  0  -0.037442  -0.129929  0  3.894151  0
C  C167  1  0.26173462  0.73082758  0.33752921  1  0.298094  0  -0.03696  -0.129891  0  3.892143  0
C  C168  1  0.68504743  0.62119374  0.77000132  1  0.975326  0  0.144519  0.142439  0  4.00568  0
C  C169  1  0.06379443  0.37878735  0.73002555  1  1.001351  0  0.145042  0.14249  0  4.007516  0
C  C170  1  0.31495413  0.37880717  0.22999800  1  0.975331  0  0.144545  0.142465  0  4.005762  0
C  C171  1  0.93620517  0.62121356  0.26997515  1  1.001354  0  0.14507  0.142552  0  4.007482  0
C  C172  1  0.47022731  0.60547507  0.76366703  1  1.028665  0  0.166094  0.093554  0  3.90378  0
C  C173  1  0.86465632  0.39446706  0.73634686  1  1.04302  0  0.166072  0.092742  0  3.90298  0
C  C174  1  0.52977266  0.39452461  0.23633261  1  1.028672  0  0.166073  0.0935  0  3.903827  0
C  C175  1  0.13534200  0.60553324  0.26365331  1  1.043466  0  0.166053  0.092718  0  3.90285  0
C  C176  1  0.48880608  0.37793567  0.76651063  1  0.442168  0  0.049134  0.037998  0  3.898202  0
C  C177  1  0.11079279  0.62221860  0.73350954  1  0.449205  0  0.048233  0.035704  0  3.903337  0
C  C178  1  0.51119512  0.62206647  0.23349067  1  0.442219  0  0.049098  0.037865  0  3.898261  0
C  C179  1  0.88920749  0.37778169  0.26649017  1  0.449236  0  0.04818  0.03558  0  3.903438  0
C  C180  1  0.34171561  0.30141712  0.68444070  1  0.465742  0  0.046852  0.085992  0  3.956951  0
C  C181  1  0.04023206  0.69869270  0.81559740  1  0.458153  0  0.046364  0.085926  0  3.958404  0
C  C182  1  0.65828491  0.69858563  0.31555975  1  0.465731  0  0.046912  0.086063  0  3.956595  0
C  C183  1  0.95976821  0.30130760  0.18440231  1  0.458012  0  0.046395  0.085921  0  3.958341  0
C  C184  1  0.28451461  0.23933690  0.71974684  1  -0.030246  0  -0.080592  -0.125874  0  3.997237  0
C  C185  1  0.04509682  0.76080806  0.78032906  1  -0.027137  0  -0.080531  -0.126244  0  3.999389  0
C  C186  1  0.71548854  0.76066523  0.28025215  1  -0.030041  0  -0.080586  -0.125915  0  3.997143  0
C  C187  1  0.95490248  0.23919224  0.21967111  1  -0.027117  0  -0.080545  -0.126247  0  3.999391  0
C  C188  1  0.33260404  0.24843347  0.78115527  1  -0.03964  0  -0.059736  -0.074204  0  3.933848  0
C  C189  1  0.08410281  0.75176626  0.71892480  1  -0.095193  0  -0.058783  -0.073687  0  3.932909  0
C  C190  1  0.66739881  0.75156805  0.21884458  1  -0.039623  0  -0.059743  -0.074117  0  3.933819  0
C  C191  1  0.91589649  0.24823403  0.28107537  1  -0.095208  0  -0.058781  -0.073694  0  3.932952  0
C  C192  1  0.43646428  0.31936483  0.80554821  1  0.051924  0  -0.003006  0.051985  0  3.956211  0
C  C193  1  0.11702945  0.68083313  0.69450769  1  0.094576  0  -0.002555  0.052782  0  3.955577  0
C  C194  1  0.56353728  0.68063608  0.19445203  1  0.051776  0  -0.003013  0.051956  0  3.956202  0
C  C195  1  0.88297083  0.31916716  0.30549202  1  0.094531  0  -0.00257  0.052785  0  3.955588  0
C  C196  1  0.48852319  0.33475224  0.87221040  1  0.385554  0  -0.060711  -0.018569  0  3.906871  0
C  C197  1  0.15379411  0.66548641  0.62785457  1  0.39119  0  -0.06052  -0.017218  0  3.906115  0
C  C198  1  0.51147807  0.66524805  0.12778977  1  0.385567  0  -0.060769  -0.018711  0  3.906985  0
C  C199  1  0.84620519  0.33451388  0.37214467  1  0.391192  0  -0.060533  -0.017211  0  3.906069  0
C  C200  1  0.40779373  0.37674603  0.97178061  1  0.468629  0  0.079709  0.25434  0  4.070143  0
C  C201  1  0.03115832  0.62333295  0.52825252  1  0.470257  0  0.078977  0.254435  0  4.070478  0
C  C202  1  0.59220526  0.62325365  0.02821949  1  0.468641  0  0.079703  0.254352  0  4.070072  0
C  C203  1  0.96884226  0.37666796  0.47174726  1  0.469911  0  0.07899  0.254497  0  4.070302  0
C  C204  1  0.53564849  0.39118185  0.00172861  1  -0.054622  0  -0.104193  -0.234473  0  3.973902  0
C  C205  1  0.14459203  0.60889927  0.49830226  1  -0.056231  0  -0.104032  -0.234378  0  3.972874  0
C  C206  1  0.46435050  0.60881784  0.99827149  1  -0.054642  0  -0.104182  -0.234409  0  3.97388  0
C  C207  1  0.85540825  0.39110103  0.50169791  1  -0.056185  0  -0.104018  -0.234352  0  3.972828  0
C  C208  1  0.30066779  0.39580906  0.00480495  1  0.048984  0  -0.090455  -0.187777  0  3.906442  0
C  C209  1  0.90499083  0.60413841  0.49519084  1  0.00474  0  -0.090255  -0.188092  0  3.907938  0
C  C210  1  0.69933150  0.60419124  0.99519476  1  0.048981  0  -0.090432  -0.187759  0  3.906404  0
C  C211  1  0.09501073  0.39586250  0.50480986  1  0.005061  0  -0.090286  -0.188168  0  3.907925  0
C  C212  1  0.21010231  0.45500189  0.10230471  1  1.556657  0  0.1895  0.557021  0  4.229613  0
C  C213  1  0.75513061  0.54492879  0.39773075  1  1.560586  0  0.189048  0.556003  0  4.228498  0
C  C214  1  0.78989827  0.54499902  0.89769553  1  1.556684  0  0.189514  0.556992  0  4.229621  0
C  C215  1  0.24486997  0.45507212  0.60226903  1  1.560695  0  0.18905  0.555899  0  4.228582  0
C  C216  1  0.32282810  0.43183657  0.06711245  1  -0.063171  0  -0.023928  -0.019878  0  4.006251  0
C  C217  1  0.89109742  0.56804110  0.43289601  1  -0.03249  0  -0.023309  -0.018111  0  4.003956  0
C  C218  1  0.67717278  0.56816495  0.93288786  1  -0.06318  0  -0.023947  -0.019893  0  4.006292  0
C  C219  1  0.10890218  0.43195981  0.56710423  1  -0.032537  0  -0.023293  -0.01797  0  4.003961  0
C  C220  1  0.45198776  0.44842723  0.09657223  1  -0.025105  0  -0.094223  -0.136654  0  3.972526  0
C  C221  1  0.00367288  0.55145328  0.40343308  1  -0.017071  0  -0.094329  -0.137557  0  3.972187  0
C  C222  1  0.54801313  0.55157429  0.90342715  1  -0.025099  0  -0.094206  -0.136646  0  3.972529  0
C  C223  1  0.99632452  0.44854518  0.59656689  1  -0.016626  0  -0.094316  -0.137637  0  3.972143  0
C  C224  1  0.55737093  0.42745963  0.06439232  1  -0.027098  0  -0.023568  -0.010565  0  4.004803  0
C  C225  1  0.13001009  0.57251191  0.43565777  1  -0.043681  0  -0.024283  -0.011348  0  4.004878  0
C  C226  1  0.44262935  0.57254067  0.93560785  1  -0.027414  0  -0.023597  -0.010652  0  4.004916  0
C  C227  1  0.86998793  0.42748778  0.56434233  1  -0.04371  0  -0.024271  -0.011335  0  4.004839  0
C  C228  1  0.69543497  0.44544092  0.09631511  1  1.528651  0  0.186121  0.554362  0  4.226167  0
C  C229  1  0.25011609  0.55454927  0.40376233  1  1.55113  0  0.186355  0.555367  0  4.22592  0
C  C230  1  0.30456500  0.55455876  0.90368407  1  1.528983  0  0.186141  0.554383  0  4.226194  0
C  C231  1  0.74988321  0.44545103  0.59623738  1  1.551077  0  0.186326  0.555305  0  4.226022  0
N  N232  1  0.44279275  0.36935005  0.70713498  1  -1.2427  0  -0.322693  -0.241685  0  3.488632  0
N  N233  1  0.07335570  0.63075800  0.79288302  1  -1.231816  0  -0.322001  -0.241902  0  3.491472  0
N  N234  1  0.55720875  0.63065269  0.29286593  1  -1.242776  0  -0.322751  -0.241694  0  3.488556  0
N  N235  1  0.92664427  0.36924168  0.20711708  1  -1.231767  0  -0.322015  -0.241886  0  3.491552  0
N  N236  1  0.56458482  0.57088174  0.74135026  1  -1.251995  0  -0.352464  -0.323088  0  3.485697  0
N  N237  1  0.99361789  0.42908954  0.75865888  1  -1.245851  0  -0.352591  -0.322398  0  3.485287  0
N  N238  1  0.43541545  0.42911855  0.25864945  1  -1.252002  0  -0.352467  -0.323091  0  3.485796  0
N  N239  1  0.00637976  0.57091137  0.24134136  1  -1.245789  0  -0.352606  -0.322422  0  3.485164  0
N  N240  1  0.67018016  0.68478959  0.80832764  1  -0.690046  0  -0.237082  -0.29283  0  3.08497  0
N  N241  1  0.98534399  0.31517585  0.69170494  1  -0.668912  0  -0.237597  -0.292746  0  3.085911  0
N  N242  1  0.32982012  0.31521071  0.19167253  1  -0.690031  0  -0.237067  -0.292823  0  3.08493  0
N  N243  1  0.01465433  0.68482444  0.30829569  1  -0.668962  0  -0.237557  -0.292753  0  3.085894  0
N  N244  1  0.53205911  0.67312457  0.80375180  1  -0.833193  0  -0.136218  0.168576  0  3.755413  0
N  N245  1  0.85886898  0.32680575  0.69627533  1  -0.842916  0  -0.134327  0.169808  0  3.755765  0
N  N246  1  0.46794215  0.32687573  0.19624837  1  -0.833233  0  -0.136216  0.168603  0  3.75537  0
N  N247  1  0.14113032  0.67319455  0.30372530  1  -0.842912  0  -0.134364  0.169797  0  3.755714  0
N  N248  1  0.59055835  0.61071394  0.60677413  1  -1.21818  0  -0.348085  -0.328319  0  3.453355  0
N  N249  1  0.97965517  0.38931556  0.89330588  1  -1.227915  0  -0.348166  -0.330407  0  3.453951  0
N  N250  1  0.40943801  0.38928635  0.39322512  1  -1.218211  0  -0.348119  -0.328412  0  3.453367  0
N  N251  1  0.02034413  0.61068474  0.10669429  1  -1.227926  0  -0.34814  -0.330371  0  3.453994  0
N  N252  1  0.71116215  0.73803324  0.59040116  1  -0.652852  0  -0.243608  -0.296502  0  3.085213  0
N  N253  1  0.97319153  0.26202703  0.90966133  1  -0.666157  0  -0.243553  -0.297337  0  3.08357  0
N  N254  1  0.28883684  0.26196645  0.40959756  1  -0.65288  0  -0.243548  -0.296434  0  3.0851  0
N  N255  1  0.02680777  0.73797327  0.09033838  1  -0.666172  0  -0.243562  -0.297392  0  3.083625  0
N  N256  1  0.62208347  0.69855574  0.54125427  1  -0.832129  0  -0.135135  0.176569  0  3.736486  0
N  N257  1  0.92344848  0.30142790  0.95879499  1  -0.817477  0  -0.136263  0.177069  0  3.734602  0
N  N258  1  0.37791387  0.30144456  0.45874498  1  -0.832086  0  -0.135137  0.176499  0  3.736273  0
N  N259  1  0.07655082  0.69857240  0.04120564  1  -0.817478  0  -0.136212  0.177168  0  3.734517  0
O  O260  1  0.23821786  0.50235205  0.15384585  1  -1.197419  0  -0.335735  -0.580305  0  2.177312  0
O  O261  1  0.73582633  0.49764772  0.34615251  1  -1.197585  0  -0.33639  -0.581347  0  2.17795  0
O  O262  1  0.76178272  0.49764886  0.84615438  1  -1.197408  0  -0.335741  -0.580292  0  2.177305  0
O  O263  1  0.26417395  0.50235257  0.65384720  1  -1.19771  0  -0.336393  -0.58131  0  2.178005  0
O  O264  1  0.08800553  0.42516771  0.07765136  1  -1.165213  0  -0.335825  -0.560471  0  2.27074  0
O  O265  1  0.66289365  0.57477113  0.42238869  1  -1.164932  0  -0.335127  -0.559164  0  2.268869  0
O  O266  1  0.91199572  0.57483259  0.92234927  1  -1.165211  0  -0.335846  -0.56047  0  2.270712  0
O  O267  1  0.33710564  0.42522917  0.57761148  1  -1.164915  0  -0.335139  -0.559148  0  2.268858  0
O  O268  1  0.71828764  0.48439071  0.15139981  1  -1.173565  0  -0.337568  -0.558517  0  2.154419  0
O  O269  1  0.23404416  0.51571633  0.34863800  1  -1.173996  0  -0.337218  -0.55925  0  2.15566  0
O  O270  1  0.28171264  0.51560959  0.84859990  1  -1.173593  0  -0.337584  -0.55853  0  2.154485  0
O  O271  1  0.76595483  0.48428335  0.65136256  1  -1.173941  0  -0.33722  -0.559235  0  2.155619  0
O  O272  1  0.78686694  0.42014958  0.06639447  1  -1.183446  0  -0.338924  -0.5694  0  2.242816  0
O  O273  1  0.36680519  0.57977069  0.43370670  1  -1.18384  0  -0.33913  -0.569915  0  2.242323  0
O  O274  1  0.21313401  0.57985010  0.93360563  1  -1.183424  0  -0.338902  -0.569377  0  2.242799  0
O  O275  1  0.63319545  0.42022839  0.56629333  1  -1.183881  0  -0.339111  -0.569885  0  2.242389  0
O  O276  1  0.37758646  0.34541547  0.91005615  1  -1.062291  0  -0.183838  -0.205819  0  2.521369  0
O  O277  1  0.03225670  0.65480315  0.58994389  1  -1.055618  0  -0.183776  -0.207068  0  2.521839  0
O  O278  1  0.62241253  0.65458421  0.08994349  1  -1.062297  0  -0.183815  -0.205786  0  2.521476  0
O  O279  1  0.96774425  0.34519653  0.41005621  1  -1.055604  0  -0.183782  -0.207107  0  2.521773  0
