# generated using pymatgen
data_Zn6H40C79Br7(NO8)3
_symmetry_space_group_name_H-M   'P 1'
_cell_length_a   18.36417094
_cell_length_b   18.65014854
_cell_length_c   18.58427633
_cell_angle_alpha   109.39355276
_cell_angle_beta   108.79647576
_cell_angle_gamma   108.58510082
_symmetry_Int_Tables_number   1
_chemical_formula_structural   Zn6H40C79Br7(NO8)3
_chemical_formula_sum   'Zn6 H40 C79 Br7 N3 O24'
_cell_volume   4996.21226806
_cell_formula_units_Z   1
loop_
 _symmetry_equiv_pos_site_id
 _symmetry_equiv_pos_as_xyz
  1  'x, y, z'
loop_
 _atom_site_type_symbol
 _atom_site_label
 _atom_site_symmetry_multiplicity
 _atom_site_fract_x
 _atom_site_fract_y
 _atom_site_fract_z
 _atom_site_occupancy
 _atom_site_pbe_bader_charge
 _atom_site_pbe_bader_spin_density
 _atom_site_pbe_cm5_charge
 _atom_site_pbe_ddec_charge
 _atom_site_pbe_ddec_spin_density
 _atom_site_pbe_ddec_sum_bond_order
 _atom_site_pbe_magmom
Zn  Zn0  1  0.06214276  0.06500561  0.51380401  1  1.306316  0  0.724974  0.962425  0  2.107694  0
Zn  Zn1  1  0.93491363  0.94976994  0.52099811  1  1.305723  0  0.723267  0.953901  0  2.154311  0
Zn  Zn2  1  0.49999422  0.92623046  0.94542170  1  1.310325  0  0.729659  0.961205  0  2.124197  0
Zn  Zn3  1  0.49492012  0.05481386  0.06257003  1  1.314186  0  0.730424  0.968045  0  2.123552  0
Zn  Zn4  1  0.05639886  0.51497932  0.07249877  1  1.306369  0  0.723284  0.968499  0  2.1081  0
Zn  Zn5  1  0.92523351  0.50002774  0.93878842  1  1.31061  0  0.726941  0.961993  0  2.144776  0
H  H6  1  0.37012354  0.00328738  0.53046992  1  0.065816  0  0.105732  0.102515  0  0.985775  0
H  H7  1  0.87675152  0.12934645  0.67923706  1  0.079274  0  0.110099  0.116173  0  0.982123  0
H  H8  1  0.16753905  0.17059597  0.77257591  1  0.085357  0  0.098822  0.116897  0  1.041459  0
H  H9  1  0.33298060  0.43664804  0.97169515  1  0.050517  0  0.105879  0.123616  0  0.99787  0
H  H10  1  0.89012325  0.25955223  0.79162130  1  0.094765  0  0.105371  0.113349  0  0.994947  0
H  H11  1  0.62610640  0.27751306  0.04546670  1  0.105042  0  0.109594  0.129297  0  0.99404  0
H  H12  1  0.71335075  0.05403055  0.98611303  1  0.112781  0  0.102285  0.116808  0  1.030623  0
H  H13  1  0.82324317  0.03575104  0.94554989  1  0.080797  0  0.107863  0.104539  0  0.981529  0
H  H14  1  0.04904812  0.97819203  0.82552190  1  0.068632  0  0.106281  0.104003  0  0.982967  0
H  H15  1  0.91454788  0.14576524  0.91893859  1  0.067751  0  0.107302  0.105629  0  0.985133  0
H  H16  1  0.89910686  0.27603231  0.94022676  1  0.074401  0  0.100966  0.107963  0  1.031308  0
H  H17  1  0.81500046  0.80103655  0.27038980  1  0.062273  0  0.102332  0.106463  0  1.022363  0
H  H18  1  0.30950041  0.90879054  0.12644854  1  0.117045  0  0.10997  0.12878  0  0.990573  0
H  H19  1  0.27305824  0.79934190  0.83611815  1  0.084666  0  0.098941  0.116181  0  1.056532  0
H  H20  1  0.04190180  0.56033907  0.82517566  1  0.121226  0  0.10553  0.131951  0  1.009049  0
H  H21  1  0.14968496  0.94459640  0.92132822  1  0.083  0  0.107409  0.107136  0  0.981939  0
H  H22  1  0.27673937  0.94471893  0.90642684  1  0.064951  0  0.097179  0.099538  0  1.058165  0
H  H23  1  0.46000933  0.97610842  0.75931172  1  0.109199  0  0.102353  0.113688  0  1.016487  0
H  H24  1  0.48131414  0.99172930  0.64021092  1  0.073223  0  0.105717  0.102496  0  0.986565  0
H  H25  1  0.24288983  0.00678077  0.54469361  1  0.093027  0  0.103341  0.114786  0  1.021213  0
H  H26  1  0.08813826  0.81517469  0.42035275  1  0.083301  0  0.106783  0.112477  0  0.989666  0
H  H27  1  0.79918363  0.26542380  0.16839794  1  0.446042  0  0.301993  0.241451  0  0.995371  0
H  H28  1  0.69804839  0.72410948  0.11810630  1  0.087486  0  0.091614  0.099963  0  1.050116  0
H  H29  1  0.90317442  0.40613028  0.23608258  1  0.058626  0  0.112655  0.12466  0  0.973205  0
H  H30  1  0.97901119  0.38567602  0.30247611  1  0.049536  0  0.102923  0.10694  0  0.978388  0
H  H31  1  0.90447380  0.41141650  0.33403642  1  0.026856  0  0.096276  0.095427  0  0.985743  0
H  H32  1  0.38872832  0.33878598  0.95152551  1  0.435263  0  0.319859  0.259267  0  0.94098  0
H  H33  1  0.39486838  0.21265034  0.89533911  1  0.074404  0  0.109385  0.118822  0  0.97391  0
H  H34  1  0.31157527  0.18307728  0.79256997  1  0.064455  0  0.097974  0.106407  0  0.99302  0
H  H35  1  0.28283629  0.15494233  0.86602850  1  0.063334  0  0.096721  0.102436  0  1.013622  0
H  H36  1  0.10949605  0.61137081  0.62375684  1  0.438524  0  0.291242  0.232779  0  1.010798  0
H  H37  1  0.19623640  0.71368045  0.60225621  1  0.044235  0  0.109488  0.117275  0  0.971629  0
H  H38  1  0.28130930  0.76429406  0.71058434  1  0.085979  0  0.099962  0.115068  0  0.998485  0
H  H39  1  0.83726916  0.59450246  0.03848180  1  0.14067  0  0.099216  0.129762  0  1.050474  0
H  H40  1  0.19341622  0.78920685  0.68922207  1  0.060892  0  0.094033  0.098953  0  1.00644  0
H  H41  1  0.09831628  0.70588528  0.30776830  1  0.076668  0  0.109308  0.117384  0  0.991369  0
H  H42  1  0.76220840  0.90210392  0.30184485  1  0.10206  0  0.105165  0.122777  0  1.012654  0
H  H43  1  0.94750674  0.32096896  0.38969694  1  0.084632  0  0.101889  0.116928  0  1.023267  0
H  H44  1  0.72568683  0.12273561  0.14188345  1  0.041604  0  0.096965  0.110409  0  1.055336  0
H  H45  1  0.07169061  0.00040478  0.71140395  1  0.107469  0  0.098441  0.107384  0  1.05648  0
C  C46  1  0.96182322  0.86213144  0.39576741  1  1.551066  0  0.223527  0.613247  0  4.141242  0
C  C47  1  0.28948684  0.99948673  0.59156032  1  -0.022616  0  -0.094623  -0.137223  0  3.980376  0
C  C48  1  0.82025548  0.75618205  0.21959781  1  0.000341  0  -0.085923  -0.103326  0  3.962077  0
C  C49  1  0.13885321  0.00827713  0.61090252  1  1.534095  0  0.220094  0.605241  0  4.127704  0
C  C50  1  0.75459001  0.71316395  0.13510584  1  -0.010131  0  -0.100022  -0.132322  0  4.013699  0
C  C51  1  0.76264604  0.65465460  0.07097579  1  -0.083577  0  -0.01781  0.129599  0  3.975412  0
C  C52  1  0.83346388  0.63958289  0.08984425  1  -0.058515  0  -0.108503  -0.200652  0  3.963996  0
C  C53  1  0.90236929  0.68321628  0.17672391  1  0.059933  0  0.007343  0.091163  0  3.913208  0
C  C54  1  0.89460665  0.74286253  0.24275182  1  -0.042999  0  -0.002227  0.044854  0  3.957183  0
C  C55  1  0.96315138  0.79038332  0.33003309  1  0.005757  0  0.002534  -0.033551  0  3.925112  0
C  C56  1  0.03542556  0.77732527  0.35333420  1  -0.011733  0  -0.089294  -0.114432  0  4.002702  0
C  C57  1  0.18828114  0.98388311  0.73838965  1  -0.00935  0  0.000647  0.057924  0  3.961796  0
C  C58  1  0.04168800  0.71665152  0.28994533  1  0.014663  0  -0.077176  -0.076532  0  3.991522  0
C  C59  1  0.97857233  0.67126898  0.20293790  1  -0.034315  0  -0.017817  -0.093587  0  3.926382  0
C  C60  1  0.89708773  0.19327538  0.37281762  1  -0.092028  0  -0.011191  0.090125  0  3.946151  0
C  C61  1  0.00261567  0.10425594  0.65700602  1  1.53608  0  0.222852  0.612278  0  4.127252  0
C  C62  1  0.90105103  0.25303868  0.34405698  1  -0.003994  0  -0.108006  -0.245165  0  3.965539  0
C  C63  1  0.84221750  0.22754231  0.25748220  1  0.417824  0  0.104186  0.26491  0  4.110091  0
C  C64  1  0.77567777  0.14184547  0.20554911  1  0.050352  0  -0.119522  -0.276581  0  3.964086  0
C  C65  1  0.77066064  0.08029871  0.23396272  1  0.013731  0  0.003486  0.108281  0  3.970614  0
C  C66  1  0.83739791  0.10301764  0.31757350  1  0.074421  0  -0.014731  -0.016284  0  3.938908  0
C  C67  1  0.83438970  0.03511615  0.33801762  1  -0.065026  0  -0.008998  -0.030184  0  3.917796  0
C  C68  1  0.32332003  0.97151305  0.78873384  1  -0.067954  0  -0.004554  -0.1143  0  3.895798  0
C  C69  1  0.76394310  0.95224037  0.28390021  1  0.079449  0  -0.097979  -0.165208  0  3.98782  0
C  C70  1  0.69510062  0.93282842  0.20696692  1  -0.074919  0  -0.014609  0.095378  0  3.992136  0
C  C71  1  0.69726892  0.99418860  0.18084065  1  0.004241  0  -0.016332  -0.118665  0  3.896665  0
C  C72  1  0.17541656  0.23200832  0.81542455  1  -0.000161  0  -0.121767  -0.279745  0  3.949578  0
C  C73  1  0.90619343  0.04087488  0.41091804  1  1.545923  0  0.217511  0.602553  0  4.14849  0
C  C74  1  0.25843005  0.29791185  0.88206539  1  0.461117  0  0.103142  0.265087  0  4.123737  0
C  C75  1  0.26767367  0.38125092  0.92836412  1  0.029367  0  -0.106642  -0.251014  0  3.998188  0
C  C76  1  0.19575296  0.39334433  0.91663335  1  -0.109344  0  -0.013664  0.084918  0  3.964579  0
C  C77  1  0.10829705  0.32303004  0.86112668  1  0.033863  0  -0.013699  -0.010824  0  3.93919  0
C  C78  1  0.10079563  0.24346270  0.80314118  1  -0.021543  0  0.003187  0.098675  0  3.973667  0
C  C79  1  0.33747766  0.98143582  0.72163093  1  -0.010624  0  -0.001615  0.057913  0  3.974366  0
C  C80  1  0.01508016  0.17616940  0.73431030  1  -0.009856  0  -0.014047  -0.076221  0  3.920918  0
C  C81  1  0.94100343  0.18187722  0.73146838  1  -0.0064  0  -0.0859  -0.095578  0  4.016118  0
C  C82  1  0.94862181  0.25582125  0.79337848  1  -0.017806  0  -0.094068  -0.115332  0  4.005037  0
C  C83  1  0.03042850  0.32579926  0.85686534  1  -0.035983  0  -0.01294  -0.051767  0  3.935816  0
C  C84  1  0.61374466  0.12672675  0.02032758  1  1.535858  0  0.216795  0.596297  0  4.149387  0
C  C85  1  0.11733004  0.98804084  0.75285770  1  -0.02362  0  -0.096882  -0.134845  0  3.975301  0
C  C86  1  0.39050476  0.96862694  0.85764447  1  1.542552  0  0.224503  0.610529  0  4.130234  0
C  C87  1  0.36294954  0.90194375  0.01033743  1  1.48501  0  0.222202  0.609201  0  4.125212  0
C  C88  1  0.61929102  0.97746104  0.10514675  1  1.551858  0  0.221606  0.623539  0  4.145006  0
C  C89  1  0.85136162  0.38718777  0.98304786  1  1.580206  0  0.215701  0.608513  0  4.167398  0
C  C90  1  0.27548157  0.99285986  0.66102379  1  -0.02267  0  -0.000588  0.060261  0  3.970685  0
C  C91  1  0.99578890  0.61395525  0.14056913  1  1.51137  0  0.216267  0.599515  0  4.138064  0
C  C92  1  0.07516749  0.62982596  0.98281981  1  1.558981  0  0.222082  0.622095  0  4.132588  0
C  C93  1  0.02742427  0.39703282  0.92151594  1  1.534655  0  0.214326  0.595961  0  4.172057  0
C  C94  1  0.75310576  0.10284396  0.97592347  1  -0.042731  0  -0.093359  -0.131731  0  3.97315  0
C  C95  1  0.81470361  0.09251083  0.95264343  1  -0.057402  0  -0.087401  -0.075036  0  4.029721  0
C  C96  1  0.86648213  0.15459577  0.93809468  1  -0.025093  0  -0.085725  -0.073444  0  4.02916  0
C  C97  1  0.10418349  0.97494872  0.81704934  1  -0.089569  0  -0.088741  -0.07624  0  4.034383  0
C  C98  1  0.85715637  0.22730453  0.94914599  1  -0.009217  0  -0.090143  -0.126389  0  3.965114  0
C  C99  1  0.79510155  0.24073720  0.97410790  1  -0.009927  0  0.001372  0.066832  0  3.942786  0
C  C100  1  0.74022242  0.17613507  0.98621524  1  -0.016859  0  -0.001524  0.054561  0  3.94411  0
C  C101  1  0.20326164  0.99551349  0.67165707  1  -0.016844  0  -0.008841  -0.126407  0  3.888866  0
C  C102  1  0.67817895  0.19152749  0.01163041  1  -0.067248  0  -0.015611  -0.078866  0  3.951886  0
C  C103  1  0.67302094  0.26704161  0.02542813  1  0.019052  0  -0.088956  -0.149309  0  4.000337  0
C  C104  1  0.72682823  0.32929403  0.01289344  1  -0.085121  0  -0.017847  0.077175  0  3.993744  0
C  C105  1  0.78708411  0.31746665  0.98767617  1  0.037483  0  -0.006964  -0.096519  0  3.903375  0
C  C106  1  0.22227502  0.74807135  0.83442168  1  0.004719  0  -0.11744  -0.259902  0  3.946954  0
C  C107  1  0.16147420  0.67362413  0.75443453  1  0.459218  0  0.097949  0.201051  0  4.109431  0
C  C108  1  0.09857634  0.60493067  0.75509142  1  -0.127708  0  -0.019541  0.029867  0  3.94475  0
C  C109  1  0.16127558  0.95692065  0.87160622  1  -0.062166  0  -0.088722  -0.074537  0  4.02758  0
C  C110  1  0.09268574  0.61340506  0.82874164  1  0.065478  0  -0.100543  -0.177652  0  3.993041  0
C  C111  1  0.15025492  0.69181391  0.90892420  1  -0.058295  0  -0.006496  0.062486  0  3.960832  0
C  C112  1  0.41239160  0.98287349  0.71275493  1  -0.093583  0  -0.094373  -0.135093  0  3.978438  0
C  C113  1  0.21941324  0.75902357  0.91215169  1  0.068717  0  -0.000891  0.081126  0  3.975751  0
C  C114  1  0.27970255  0.83595927  0.99479709  1  0.044274  0  -0.016734  -0.074583  0  3.928055  0
C  C115  1  0.26483675  0.84855018  0.06554602  1  -0.079984  0  -0.089169  -0.145597  0  3.995044  0
C  C116  1  0.19568691  0.78310562  0.06037781  1  -0.010345  0  -0.022028  0.077646  0  3.981779  0
C  C117  1  0.14065348  0.70409933  0.98459763  1  0.014611  0  -0.011715  -0.102877  0  3.909804  0
C  C118  1  0.23213585  0.95597304  0.86244992  1  0.006835  0  -0.094977  -0.130041  0  3.985551  0
C  C119  1  0.24930033  0.97068539  0.79745771  1  0.009867  0  -0.002552  0.048769  0  3.982391  0
C  C120  1  0.91174844  0.37648334  0.27804174  1  0.317463  0  -0.128415  -0.207363  0  3.990009  0
C  C121  1  0.32972223  0.20549359  0.86170259  1  0.25936  0  -0.132471  -0.208112  0  3.981063  0
C  C122  1  0.21047636  0.73673785  0.67013153  1  0.277902  0  -0.134121  -0.204445  0  3.96609  0
C  C123  1  0.42394122  0.99113836  0.64602800  1  -0.006396  0  -0.090811  -0.079975  0  4.043738  0
C  C124  1  0.36111267  0.99821867  0.58411821  1  -0.045554  0  -0.090525  -0.079865  0  4.039186  0
Br  Br125  1  0.67124975  0.59398105  0.95382111  1  -0.086096  0  -0.008959  -0.098464  0  1.298307  0
Br  Br126  1  0.96686310  0.24188989  0.49535237  1  -0.055273  0  0.021599  -0.057071  0  1.45263  0
Br  Br127  1  0.59651014  0.82020482  0.14296330  1  -0.061584  0  0.03147  -0.051843  0  1.371168  0
Br  Br128  1  0.21906160  0.51085207  0.96830791  1  -0.049917  0  0.027193  -0.047368  0  1.480394  0
Br  Br129  1  0.71680492  0.43200178  0.03665987  1  -0.040272  0  0.03369  -0.052832  0  1.486342  0
Br  Br130  1  0.01863870  0.49872588  0.64906111  1  -0.081959  0  0.018099  -0.084278  0  1.392252  0
Br  Br131  1  0.17999608  0.80723075  0.16068665  1  -0.067019  0  0.009227  -0.068201  0  1.369782  0
N  N132  1  0.84802182  0.28574037  0.22749098  1  -1.215645  0  -0.439401  -0.272296  0  3.60193  0
N  N133  1  0.33133399  0.28733993  0.90211366  1  -1.213815  0  -0.438643  -0.281876  0  3.61452  0
N  N134  1  0.16101794  0.66488906  0.67843008  1  -1.219881  0  -0.445581  -0.273887  0  3.627463  0
O  O135  1  0.01542387  0.93753705  0.41717341  1  -1.162949  0  -0.305526  -0.555405  0  2.296165  0
O  O136  1  0.82329224  0.40710522  0.92357862  1  -1.128607  0  -0.314742  -0.52518  0  2.233281  0
O  O137  1  0.05658158  0.59495131  0.17166497  1  -1.128111  0  -0.322605  -0.538084  0  2.24393  0
O  O138  1  0.90743803  0.84291636  0.42468160  1  -1.124936  0  -0.316009  -0.52927  0  2.222498  0
O  O139  1  0.95139294  0.58693501  0.05990201  1  -1.175939  0  -0.308548  -0.566865  0  2.413373  0
O  O140  1  0.10596682  0.60398048  0.03446059  1  -1.157544  0  -0.307688  -0.572931  0  2.383651  0
O  O141  1  0.99398048  0.59638264  0.92799751  1  -1.131777  0  -0.308851  -0.514388  0  2.234491  0
O  O142  1  0.07242300  0.42312363  0.00300510  1  -1.131417  0  -0.317057  -0.533597  0  2.298233  0
O  O143  1  0.97425846  0.42237710  0.89062318  1  -1.170135  0  -0.315779  -0.572451  0  2.349219  0
O  O144  1  0.16662473  0.06698679  0.58983796  1  -1.127466  0  -0.310935  -0.523782  0  2.240126  0
O  O145  1  0.05858509  0.96001781  0.58353214  1  -1.176411  0  -0.308031  -0.570606  0  2.393476  0
O  O146  1  0.58597820  0.15509886  0.07357549  1  -1.131455  0  -0.318201  -0.52971  0  2.230001  0
O  O147  1  0.04799671  0.12492272  0.62107477  1  -1.171937  0  -0.309153  -0.568544  0  2.339204  0
O  O148  1  0.94382094  0.02644788  0.62852808  1  -1.142516  0  -0.319205  -0.535446  0  2.226026  0
O  O149  1  0.98562066  0.08089048  0.42680445  1  -1.123889  0  -0.313509  -0.525969  0  2.303992  0
O  O150  1  0.88222456  0.99910080  0.44831885  1  -1.172788  0  -0.318653  -0.574788  0  2.350651  0
O  O151  1  0.58933414  0.04749490  0.97403464  1  -1.176799  0  -0.306318  -0.56667  0  2.391628  0
O  O152  1  0.41537433  0.91101038  0.83642111  1  -1.134887  0  -0.307106  -0.530945  0  2.2525  0
O  O153  1  0.41875044  0.02494183  0.93492203  1  -1.171169  0  -0.306718  -0.566657  0  2.364553  0
O  O154  1  0.40161345  0.87491072  0.97063792  1  -1.169716  0  -0.311558  -0.567117  0  2.364633  0
O  O155  1  0.39232850  0.98222787  0.06407155  1  -1.130041  0  -0.318295  -0.532866  0  2.225494  0
O  O156  1  0.59653636  0.92300596  0.02764218  1  -1.124577  0  -0.31183  -0.526964  0  2.241406  0
O  O157  1  0.58083345  0.02057203  0.12481220  1  -1.157712  0  -0.307746  -0.562157  0  2.331532  0
O  O158  1  0.93020106  0.42064599  0.03940048  1  -1.163559  0  -0.301586  -0.556189  0  2.318218  0
