# generated using pymatgen
data_Zn4H34C76N16(ClF)5
_symmetry_space_group_name_H-M   'P 1'
_cell_length_a   14.62965803
_cell_length_b   16.86249140
_cell_length_c   19.03592417
_cell_angle_alpha   105.74212164
_cell_angle_beta   115.20572024
_cell_angle_gamma   97.85019271
_symmetry_Int_Tables_number   1
_chemical_formula_structural   Zn4H34C76N16(ClF)5
_chemical_formula_sum   'Zn4 H34 C76 N16 Cl5 F5'
_cell_volume   3914.37856738
_cell_formula_units_Z   1
loop_
 _symmetry_equiv_pos_site_id
 _symmetry_equiv_pos_as_xyz
  1  'x, y, z'
loop_
 _atom_site_type_symbol
 _atom_site_label
 _atom_site_symmetry_multiplicity
 _atom_site_fract_x
 _atom_site_fract_y
 _atom_site_fract_z
 _atom_site_occupancy
 _atom_site_pbe_bader_charge
 _atom_site_pbe_bader_spin_density
 _atom_site_pbe_cm5_charge
 _atom_site_pbe_ddec_charge
 _atom_site_pbe_ddec_spin_density
 _atom_site_pbe_ddec_sum_bond_order
 _atom_site_pbe_magmom
Zn  Zn0  1  0.62091473  0.10810690  0.00590526  1  1.192109  0  0.747222  0.615439  0  2.45166  0
Zn  Zn1  1  0.35671731  0.90998742  0.00380620  1  1.204241  0  0.748645  0.663502  0  2.377901  0
Zn  Zn2  1  0.62632245  0.98212527  0.11216541  1  1.202037  0  0.74276  0.649319  0  2.42342  0
Zn  Zn3  1  0.36632666  0.02111020  0.89049636  1  1.193866  0  0.741503  0.632166  0  2.408949  0
H  H4  1  0.66078439  0.99515237  0.86795506  1  0.095203  0  0.113049  0.106449  0  1.023163  0
H  H5  1  0.30908819  0.03742701  0.12989032  1  0.105604  0  0.119601  0.107465  0  0.99575  0
H  H6  1  0.83769586  0.10617712  0.29372595  1  0.082926  0  0.119693  0.10985  0  0.992438  0
H  H7  1  0.11304939  0.00909721  0.78963839  1  0.070781  0  0.118306  0.109088  0  0.98899  0
H  H8  1  0.09086474  0.85144057  0.93027895  1  0.090292  0  0.116823  0.109827  0  1.000359  0
H  H9  1  0.80898635  0.27566928  0.15584225  1  0.073822  0  0.120189  0.109838  0  0.989257  0
H  H10  1  0.28668560  0.16585248  0.97542988  1  0.059848  0  0.116743  0.105887  0  1.005564  0
H  H11  1  0.65097792  0.12982550  0.26442568  1  0.101912  0  0.11278  0.096551  0  1.039105  0
H  H12  1  0.30889758  0.08913764  0.25766764  1  0.053491  0  0.101338  0.106449  0  1.002834  0
H  H13  1  0.64914191  0.18232363  0.38529116  1  0.0514  0  0.100239  0.104823  0  1.009987  0
H  H14  1  0.75077294  0.22615826  0.53773860  1  0.066409  0  0.104372  0.107265  0  0.988547  0
H  H15  1  0.75677535  0.22756339  0.66982080  1  0.08625  0  0.102328  0.107145  0  1.002621  0
H  H16  1  0.32510158  0.10316390  0.61982536  1  0.077878  0  0.092698  0.099797  0  1.044942  0
H  H17  1  0.21411289  0.08413116  0.33880164  1  0.078201  0  0.106688  0.125842  0  0.987023  0
H  H18  1  0.80404263  0.37110007  0.29864397  1  0.048246  0  0.095438  0.097456  0  1.019297  0
H  H19  1  0.03814385  0.24174898  0.39105594  1  0.06783  0  0.097975  0.10362  0  1.014835  0
H  H20  1  0.19923209  0.31711062  0.52882691  1  0.063541  0  0.100111  0.104763  0  1.003804  0
H  H21  1  0.31129265  0.44958915  0.65308653  1  0.061207  0  0.103176  0.106826  0  0.989088  0
H  H22  1  0.34219451  0.60354738  0.73336420  1  0.075728  0  0.101428  0.11012  0  1.000241  0
H  H23  1  0.93793916  0.65235959  0.50983407  1  0.084959  0  0.103515  0.109775  0  0.998222  0
H  H24  1  0.82793355  0.52070886  0.38396559  1  0.062495  0  0.099975  0.101568  0  0.999951  0
H  H25  1  0.35125727  0.60717126  0.03813985  1  0.069492  0  0.096696  0.105504  0  1.018671  0
H  H26  1  0.26322205  0.45218051  0.97837034  1  0.058464  0  0.101683  0.101954  0  0.993316  0
H  H27  1  0.64369796  0.57452950  0.27758610  1  0.082373  0  0.108185  0.134322  0  0.990694  0
H  H28  1  0.27829053  0.30606201  0.96883854  1  0.034881  0  0.098905  0.099536  0  1.007533  0
H  H29  1  0.57365301  0.41198876  0.19947205  1  0.057639  0  0.097854  0.10327  0  1.007866  0
H  H30  1  0.95496763  0.67121953  0.77935532  1  0.097313  0  0.108585  0.124579  0  0.988838  0
H  H31  1  0.32957087  0.06157639  0.72185357  1  0.115047  0  0.113673  0.104093  0  1.0096  0
H  H32  1  0.86056770  0.83630860  0.64002725  1  0.079152  0  0.108053  0.121859  0  0.989025  0
H  H33  1  0.79275683  0.64988367  0.82486953  1  0.082331  0  0.105692  0.111596  0  0.986468  0
H  H34  1  0.90790979  0.94588879  0.77289942  1  0.081761  0  0.099029  0.080902  0  0.980784  0
H  H35  1  0.70582751  0.73102801  0.89396712  1  0.065328  0  0.102689  0.110573  0  0.999507  0
H  H36  1  0.66754394  0.17922131  0.86906734  1  0.121948  0  0.114479  0.108022  0  1.01603  0
H  H37  1  0.62365912  0.29118550  0.12464735  1  0.077843  0  0.112623  0.094744  0  1.026401  0
C  C38  1  0.66330102  0.96290726  0.91059348  1  0.478133  0  0.009593  -0.024325  0  3.979788  0
C  C39  1  0.29539640  0.75592497  0.77005329  1  0.134272  0  -0.039736  -0.139391  0  4.05588  0
C  C40  1  0.50047541  0.75534223  0.14131234  1  0.169533  0  -0.044818  -0.193874  0  4.074886  0
C  C41  1  0.49851012  0.13021598  0.76480479  1  -0.017267  0  -0.039041  -0.023125  0  4.076452  0
C  C42  1  0.54440186  0.24748747  0.08417526  1  0.458633  0  0.007697  -0.044585  0  3.965642  0
C  C43  1  0.39337821  0.05373647  0.15149836  1  0.410723  0  0.009074  -0.045587  0  3.952134  0
C  C44  1  0.81968264  0.13593488  0.24727165  1  0.400136  0  0.00468  -0.061561  0  4.000681  0
C  C45  1  0.12638204  0.97468917  0.83216570  1  0.415371  0  0.002094  -0.063457  0  4.010954  0
C  C46  1  0.11495669  0.89364184  0.90325364  1  0.392089  0  0.00157  -0.060315  0  3.995176  0
C  C47  1  0.80321894  0.22228088  0.17688411  1  0.385109  0  0.005694  -0.058454  0  3.996666  0
C  C48  1  0.37235675  0.18430745  0.00693849  1  0.454199  0  0.006427  -0.05191  0  3.961243  0
C  C49  1  0.33037432  0.76759781  0.85423463  1  0.532343  0  0.107726  0.182753  0  4.09839  0
C  C50  1  0.56756529  0.10051807  0.22007741  1  0.370347  0  0.006747  -0.043937  0  3.950456  0
C  C51  1  0.44659727  0.26454441  0.06351260  1  -0.059029  0  -0.035755  -0.039863  0  4.074512  0
C  C52  1  0.47897406  0.10266857  0.23155896  1  0.032866  0  -0.035468  -0.037887  0  4.0619  0
C  C53  1  0.85149644  0.22286668  0.25851865  1  0.034636  0  -0.03661  -0.034078  0  4.084743  0
C  C54  1  0.05267608  0.92120430  0.84055233  1  0.006354  0  -0.039899  -0.022497  0  4.036796  0
C  C55  1  0.38467629  0.11496605  0.31508848  1  -0.038299  0  -0.090569  -0.18553  0  3.920197  0
C  C56  1  0.47894708  0.13181491  0.31127563  1  -0.007593  0  -0.00638  0.09686  0  4.078656  0
C  C57  1  0.57503890  0.16695101  0.38645162  1  -0.059525  0  -0.091597  -0.188554  0  3.933648  0
C  C58  1  0.57963566  0.17764426  0.46356155  1  0.00914  0  -0.008756  0.085278  0  4.059991  0
C  C59  1  0.48390961  0.15416921  0.46616053  1  -0.001752  0  -0.003646  -0.011943  0  3.929098  0
C  C60  1  0.58455287  0.81981149  0.15362150  1  0.575194  0  0.110239  0.189073  0  4.118062  0
C  C61  1  0.38527958  0.12543450  0.39096113  1  -0.042611  0  -0.008754  0.097049  0  4.064587  0
C  C62  1  0.67789787  0.20651725  0.53968303  1  -0.001611  0  -0.089527  -0.130626  0  4.010071  0
C  C63  1  0.68151002  0.20740965  0.61277931  1  -0.058804  0  -0.095831  -0.122671  0  4.030372  0
C  C64  1  0.58632936  0.18015745  0.61556760  1  0.020549  0  -0.019759  -0.035202  0  4.075266  0
C  C65  1  0.48673817  0.15542364  0.54183638  1  0.026456  0  0.002974  0.028361  0  3.943441  0
C  C66  1  0.39157649  0.12924240  0.54487136  1  0.024976  0  -0.019791  0.006138  0  4.053339  0
C  C67  1  0.29360318  0.10638222  0.46878664  1  0.005207  0  0.011089  0.109154  0  4.041337  0
C  C68  1  0.29008672  0.10398949  0.39530825  1  0.043746  0  -0.099669  -0.212755  0  3.985008  0
C  C69  1  0.58630134  0.17383838  0.68732334  1  0.406281  0  0.098431  0.187869  0  3.987708  0
C  C70  1  0.49520778  0.14448548  0.69157444  1  0.075972  0  -0.019266  -0.015255  0  4.088051  0
C  C71  1  0.41208544  0.08856338  0.76920870  1  0.425542  0  0.00464  -0.053158  0  4.002913  0
C  C72  1  0.39814203  0.12466000  0.61903135  1  -0.041489  0  -0.096231  -0.163654  0  3.96268  0
C  C73  1  0.88003072  0.37214656  0.34677304  1  -0.009442  0  -0.096262  -0.196974  0  3.953243  0
C  C74  1  0.91501819  0.29844006  0.33597821  1  -0.051439  0  -0.011803  0.092232  0  4.086751  0
C  C75  1  0.01046004  0.29878321  0.39944856  1  -0.073923  0  -0.093602  -0.193246  0  3.942571  0
C  C76  1  0.07336831  0.37221928  0.47224576  1  0.021944  0  -0.010299  0.083022  0  4.050246  0
C  C77  1  0.03849030  0.44769816  0.48203470  1  -0.031385  0  0.000311  -0.002132  0  3.906332  0
C  C78  1  0.93951901  0.44676655  0.41879208  1  0.014267  0  -0.009712  0.083488  0  4.055607  0
C  C79  1  0.17319050  0.37504367  0.53650395  1  -0.018922  0  -0.094609  -0.139968  0  4.017272  0
C  C80  1  0.23506563  0.44835789  0.60525903  1  -0.058936  0  -0.091797  -0.128654  0  4.017833  0
C  C81  1  0.20255534  0.52528338  0.61649054  1  -0.016087  0  -0.014548  0.065835  0  4.060088  0
C  C82  1  0.41398468  0.78269532  0.09794491  1  1.024368  0  0.19757  0.327233  0  4.141762  0
C  C83  1  0.10256317  0.52365942  0.55401666  1  0.03974  0  0.004246  0.020956  0  3.929066  0
C  C84  1  0.06662311  0.59851185  0.56325368  1  0.023474  0  -0.019013  -0.032606  0  4.063791  0
C  C85  1  0.96532383  0.59539195  0.50086772  1  -0.028136  0  -0.091086  -0.113061  0  4.012051  0
C  C86  1  0.90474672  0.52241208  0.43149330  1  -0.064523  0  -0.090798  -0.131939  0  4.007419  0
C  C87  1  0.26539658  0.60177291  0.68595362  1  -0.056387  0  -0.089462  -0.171084  0  3.960731  0
C  C88  1  0.23268042  0.67656856  0.69613518  1  0.089627  0  -0.02502  -0.004305  0  4.093454  0
C  C89  1  0.13336971  0.67227647  0.63440195  1  0.389441  0  0.098505  0.188932  0  3.994836  0
C  C90  1  0.49638961  0.67300737  0.15288351  1  0.094156  0  -0.022387  0.014635  0  4.063444  0
C  C91  1  0.42958818  0.34939374  0.08239882  1  0.061983  0  -0.009023  0.094976  0  4.059009  0
C  C92  1  0.33072837  0.44317795  0.02691516  1  -0.070619  0  -0.092835  -0.124891  0  4.024567  0
C  C93  1  0.58465990  0.14780862  0.84413229  1  0.413028  0  0.00538  -0.055785  0  3.985244  0
C  C94  1  0.33888675  0.36196527  0.02203632  1  -0.054159  0  -0.097028  -0.13962  0  4.012745  0
C  C95  1  0.50536483  0.42062015  0.15124101  1  -0.079801  0  -0.096926  -0.199074  0  3.936787  0
C  C96  1  0.49944124  0.50524892  0.15793025  1  0.035651  0  -0.00676  0.109851  0  4.028506  0
C  C97  1  0.41252959  0.51695877  0.09247305  1  0.034129  0  -0.014505  0.063571  0  4.034138  0
C  C98  1  0.41431905  0.60034036  0.09144414  1  -0.096533  0  -0.089913  -0.167317  0  3.952857  0
C  C99  1  0.57499806  0.65983282  0.22131552  1  0.40837  0  0.091158  0.241331  0  4.061769  0
C  C100  1  0.57872386  0.57984339  0.22440312  1  -0.00493  0  -0.108368  -0.27457  0  4.001915  0
C  C101  1  0.91054781  0.74840902  0.70276225  1  -0.259514  0  -0.047697  -0.023753  0  3.87212  0
C  C102  1  0.76449168  0.85138956  0.88735396  1  0.041179  0  -0.01155  0.057264  0  4.024469  0
C  C103  1  0.80226269  0.71790919  0.83451492  1  -0.045694  0  -0.093562  -0.136241  0  4.029654  0
C  C104  1  0.32619337  0.84086067  0.77489633  1  0.596797  0  0.111449  0.188124  0  4.092987  0
C  C105  1  0.75450415  0.76383481  0.87422914  1  -0.014996  0  -0.095253  -0.128837  0  4.004496  0
C  C106  1  0.83055101  0.89235617  0.86244569  1  0.017542  0  0.013081  0.049145  0  3.967165  0
C  C107  1  0.87333143  0.84669896  0.81745936  1  0.014764  0  -0.005766  -0.014225  0  3.837649  0
C  C108  1  0.85768129  0.75723989  0.80284525  1  0.013044  0  -0.005882  0.08828  0  3.989679  0
C  C109  1  0.91005540  0.71440126  0.75804713  1  -0.013165  0  -0.094715  -0.1731  0  4.031438  0
C  C110  1  0.90334917  0.82385238  0.69681842  1  0.04398  0  -0.094406  -0.147882  0  3.92971  0
C  C111  1  0.93558856  0.89040588  0.78282896  1  0.045358  0  -0.062364  0.001745  0  3.89179  0
C  C112  1  0.68273198  0.88143188  0.98459109  1  1.053834  0  0.203289  0.337105  0  4.060367  0
C  C113  1  0.70757632  0.89582240  0.92455526  1  0.028101  0  -0.046036  -0.150956  0  4.087243  0
N  N114  1  0.61901373  0.98562553  0.95931688  1  -0.77456  0  -0.287317  -0.181476  0  3.604281  0
N  N115  1  0.42938968  0.02361559  0.09812909  1  -0.813266  0  -0.28396  -0.186095  0  3.631581  0
N  N116  1  0.75569161  0.08769378  0.16547272  1  -0.776876  0  -0.272836  -0.187625  0  3.514987  0
N  N117  1  0.22501958  0.97811775  0.88507382  1  -0.783711  0  -0.274189  -0.176742  0  3.564967  0
N  N118  1  0.21841530  0.92801129  0.92984891  1  -0.791261  0  -0.276181  -0.188645  0  3.543103  0
N  N119  1  0.74660657  0.14168842  0.12159098  1  -0.793939  0  -0.277197  -0.180389  0  3.549457  0
N  N120  1  0.42314942  0.12543910  0.99476939  1  -0.778259  0  -0.281815  -0.185965  0  3.643194  0
N  N121  1  0.53667164  0.05218373  0.14035321  1  -0.755871  0  -0.280831  -0.184021  0  3.59692  0
N  N122  1  0.37609426  0.85155796  0.90428538  1  -0.761594  0  -0.279813  -0.244532  0  3.522483  0
N  N123  1  0.54940319  0.87741758  0.12017162  1  -0.798936  0  -0.275889  -0.233167  0  3.531144  0
N  N124  1  0.44407442  0.08163209  0.84404579  1  -0.793637  0  -0.272632  -0.17668  0  3.565926  0
N  N125  1  0.44074083  0.85344298  0.08450782  1  -0.788078  0  -0.276726  -0.279714  0  3.52901  0
N  N126  1  0.55142436  0.11892436  0.89097936  1  -0.798538  0  -0.269229  -0.171435  0  3.535302  0
N  N127  1  0.37379927  0.89742640  0.85425663  1  -0.747642  0  -0.274647  -0.231475  0  3.530653  0
N  N128  1  0.63148569  0.93478929  0.00603473  1  -0.830623  0  -0.289621  -0.286553  0  3.577436  0
N  N129  1  0.52855790  0.16435300  0.04182167  1  -0.792108  0  -0.282506  -0.173797  0  3.639467  0
Cl  Cl130  1  0.31553647  0.68906922  0.89258734  1  -0.193929  0  0.01364  -0.058254  0  1.550207  0
Cl  Cl131  1  0.17541104  0.07928607  0.47012128  1  -0.238266  0  -0.030333  -0.109651  0  1.443845  0
Cl  Cl132  1  0.71660510  0.83129400  0.19997563  1  -0.166572  0  0.010674  -0.057735  0  1.532329  0
Cl  Cl133  1  0.86207176  0.00388900  0.89011169  1  -0.236987  0  -0.011646  -0.093173  0  1.526066  0
Cl  Cl134  1  0.31102518  0.87307073  0.69416308  1  -0.186078  0  0.017982  -0.054661  0  1.540349  0
F  F135  1  0.68267066  0.19552873  0.75677885  1  -0.638179  0  -0.099686  -0.143666  0  1.356602  0
F  F136  1  0.09811852  0.74309538  0.64461978  1  -0.632679  0  -0.100047  -0.144892  0  1.41161  0
F  F137  1  0.65068876  0.73044130  0.28732754  1  -0.638966  0  -0.117379  -0.159512  0  1.356712  0
F  F138  1  0.31117896  0.74561959  0.06967738  1  -0.641795  0  -0.093152  -0.144942  0  1.362246  0
F  F139  1  0.70627777  0.82382145  0.02140564  1  -0.637513  0  -0.088986  -0.14283  0  1.376331  0
