# generated using pymatgen
data_KH11C10O11
_symmetry_space_group_name_H-M   'P 1'
_cell_length_a   7.50622022
_cell_length_b   9.73208398
_cell_length_c   19.34975983
_cell_angle_alpha   90.00013691
_cell_angle_beta   90.00013108
_cell_angle_gamma   111.37474052
_symmetry_Int_Tables_number   1
_chemical_formula_structural   KH11C10O11
_chemical_formula_sum   'K4 H44 C40 O44'
_cell_volume   1316.29560361
_cell_formula_units_Z   4
loop_
 _symmetry_equiv_pos_site_id
 _symmetry_equiv_pos_as_xyz
  1  'x, y, z'
loop_
 _atom_site_type_symbol
 _atom_site_label
 _atom_site_symmetry_multiplicity
 _atom_site_fract_x
 _atom_site_fract_y
 _atom_site_fract_z
 _atom_site_occupancy
 _atom_site_pbe_bader_spin_density
 _atom_site_pbe_cm5_charge
 _atom_site_pbe_ddec_charge
 _atom_site_pbe_ddec_spin_density
 _atom_site_pbe_ddec_sum_bond_order
 _atom_site_pbe_magmom
K  K0  1  0.87702783  0.54881598  0.28891955  1  0  0.754129  0.875826  0  0.636964  0
K  K1  1  0.87701225  0.04881630  0.21107746  1  0  0.754129  0.875839  0  0.636948  0
K  K2  1  0.12297420  0.45118584  0.71107737  1  0  0.754121  0.875831  0  0.636943  0
K  K3  1  0.12298178  0.95118550  0.78891946  1  0  0.754136  0.875827  0  0.636966  0
H  H4  1  0.29791690  0.06710090  0.58220792  1  0  0.116008  0.11892  0  1.009345  0
H  H5  1  0.29791346  0.56709819  0.91779171  1  0  0.115975  0.11888  0  1.009329  0
H  H6  1  0.70209232  0.93290204  0.41779055  1  0  0.115986  0.118915  0  1.009358  0
H  H7  1  0.70209472  0.43290254  0.08220986  1  0  0.116032  0.118979  0  1.00918  0
H  H8  1  0.20705879  0.69573865  0.39837600  1  0  0.117281  0.117824  0  1.034308  0
H  H9  1  0.20706137  0.19573930  0.10162318  1  0  0.117279  0.117831  0  1.034294  0
H  H10  1  0.79293080  0.30425653  0.60162402  1  0  0.117305  0.117855  0  1.034279  0
H  H11  1  0.79293326  0.80425810  0.89837736  1  0  0.117294  0.117817  0  1.03424  0
H  H12  1  0.55882629  0.25361611  0.20436469  1  0  0.290743  0.387736  0  0.954871  0
H  H13  1  0.55882593  0.75361581  0.29563589  1  0  0.290762  0.387775  0  0.954834  0
H  H14  1  0.44117204  0.74638350  0.79563481  1  0  0.290765  0.38781  0  0.954777  0
H  H15  1  0.44117292  0.24638491  0.70436464  1  0  0.290754  0.387787  0  0.954807  0
H  H16  1  0.19059223  0.40999255  0.28235732  1  0  0.291495  0.368529  0  0.975709  0
H  H17  1  0.19059085  0.90999388  0.21764312  1  0  0.291491  0.368519  0  0.97572  0
H  H18  1  0.80940662  0.59000816  0.71764373  1  0  0.291493  0.368518  0  0.975712  0
H  H19  1  0.80940800  0.09000683  0.78235741  1  0  0.291482  0.36851  0  0.975736  0
H  H20  1  0.47870960  0.74434542  0.69200873  1  0  0.300445  0.372638  0  0.965777  0
H  H21  1  0.47870982  0.24434980  0.80798972  1  0  0.300427  0.372608  0  0.965834  0
H  H22  1  0.52129221  0.25565309  0.30799077  1  0  0.300388  0.372565  0  0.965881  0
H  H23  1  0.52129592  0.75565423  0.19200979  1  0  0.300431  0.372578  0  0.965811  0
H  H24  1  0.41187381  0.33081838  0.22374786  1  0  0.300465  0.391881  0  0.937933  0
H  H25  1  0.41187328  0.83081794  0.27625217  1  0  0.300454  0.391873  0  0.937941  0
H  H26  1  0.58812452  0.66918123  0.77625268  1  0  0.300459  0.391897  0  0.937912  0
H  H27  1  0.58812372  0.16918167  0.72374785  1  0  0.300478  0.391926  0  0.937868  0
H  H28  1  0.28826008  0.41571889  0.49454450  1  0  0.306346  0.355779  0  0.976014  0
H  H29  1  0.28826256  0.91571976  0.00545449  1  0  0.306323  0.355759  0  0.97605  0
H  H30  1  0.71173640  0.58427961  0.50545604  1  0  0.306347  0.355769  0  0.976029  0
H  H31  1  0.71173896  0.08428096  0.99454553  1  0  0.306337  0.355783  0  0.976012  0
H  H32  1  0.44111703  0.56153289  0.34537950  1  0  0.290175  0.391939  0  0.942622  0
H  H33  1  0.44111744  0.06153392  0.15462024  1  0  0.290186  0.391959  0  0.942597  0
H  H34  1  0.55887997  0.43846672  0.65462052  1  0  0.290195  0.391966  0  0.942587  0
H  H35  1  0.55888275  0.93846679  0.84538030  1  0  0.290183  0.391965  0  0.942586  0
H  H36  1  0.16483138  0.38276149  0.36254227  1  0  0.301259  0.388845  0  0.937306  0
H  H37  1  0.16483110  0.88276333  0.13745812  1  0  0.301262  0.38888  0  0.937263  0
H  H38  1  0.83516695  0.61723812  0.63745878  1  0  0.301254  0.388856  0  0.93731  0
H  H39  1  0.83516745  0.11723959  0.86254241  1  0  0.301247  0.38885  0  0.937295  0
H  H40  1  0.60167895  0.66424004  0.39614770  1  0  0.300557  0.391912  0  0.935915  0
H  H41  1  0.60167970  0.16423960  0.10385230  1  0  0.300578  0.391919  0  0.935893  0
H  H42  1  0.39832071  0.33575957  0.60385232  1  0  0.300565  0.391912  0  0.935915  0
H  H43  1  0.39831996  0.83576002  0.89614772  1  0  0.300579  0.391918  0  0.935894  0
H  H44  1  0.09895933  0.10854424  0.37275616  1  0  0.299833  0.34946  0  1.021536  0
H  H45  1  0.09896562  0.60854601  0.12724437  1  0  0.299849  0.349464  0  1.021497  0
H  H46  1  0.90103848  0.89145427  0.62724438  1  0  0.299836  0.349469  0  1.021511  0
H  H47  1  0.90103508  0.39145581  0.87275514  1  0  0.299866  0.349478  0  1.021482  0
C  C48  1  0.23442565  0.01914140  0.47482720  1  0  -0.007093  -0.061871  0  3.918006  0
C  C49  1  0.23442328  0.51914020  0.02517282  1  0  -0.007128  -0.061888  0  3.917981  0
C  C50  1  0.76557668  0.98085822  0.52517231  1  0  -0.007069  -0.061823  0  3.917945  0
C  C51  1  0.76557853  0.48085831  0.97482875  1  0  -0.007054  -0.061835  0  3.917948  0
C  C52  1  0.20948146  0.91266359  0.42153145  1  0  -0.006306  -0.062732  0  3.900506  0
C  C53  1  0.20948279  0.41266186  0.07846798  1  0  -0.006278  -0.062677  0  3.900389  0
C  C54  1  0.79051501  0.08733492  0.57846857  1  0  -0.006302  -0.062753  0  3.90054  0
C  C55  1  0.79051584  0.58733555  0.92153256  1  0  -0.006277  -0.062709  0  3.900499  0
C  C56  1  0.22576330  0.77769676  0.43874296  1  0  -0.065422  -0.092878  0  3.913642  0
C  C57  1  0.22576180  0.27769489  0.06125632  1  0  -0.065389  -0.092839  0  3.913544  0
C  C58  1  0.77423184  0.22230174  0.56125654  1  0  -0.065403  -0.092841  0  3.913551  0
C  C59  1  0.77423416  0.72230251  0.93874421  1  0  -0.065391  -0.092739  0  3.913525  0
C  C60  1  0.25664594  0.74219165  0.50631795  1  0  0.003703  -0.033683  0  3.916962  0
C  C61  1  0.25664479  0.24219078  0.99368133  1  0  0.003704  -0.033656  0  3.916953  0
C  C62  1  0.74335372  0.25780796  0.49368052  1  0  0.003686  -0.033695  0  3.917011  0
C  C63  1  0.74335806  0.75780994  0.00631921  1  0  0.003678  -0.033868  0  3.91727  0
C  C64  1  0.28500453  0.84814996  0.55856416  1  0  0.006455  -0.02385  0  3.925867  0
C  C65  1  0.28500259  0.34815091  0.94143579  1  0  0.006486  -0.023853  0  3.92586  0
C  C66  1  0.71499861  0.15184855  0.44143586  1  0  0.006453  -0.023886  0  3.926  0
C  C67  1  0.71500478  0.65185092  0.05856526  1  0  0.006464  -0.023812  0  3.925992  0
C  C68  1  0.27626012  0.98464611  0.54184568  1  0  -0.071584  -0.107223  0  3.939684  0
C  C69  1  0.27625567  0.48464717  0.95815494  1  0  -0.071536  -0.1072  0  3.939725  0
C  C70  1  0.72374702  0.01535241  0.45815382  1  0  -0.071545  -0.107224  0  3.939762  0
C  C71  1  0.72374903  0.51535465  0.04184715  1  0  -0.071605  -0.107297  0  3.93962  0
C  C72  1  0.22251305  0.17008740  0.46777242  1  0  0.234474  0.584134  0  4.125061  0
C  C73  1  0.22251259  0.67008736  0.03222726  1  0  0.234503  0.584208  0  4.124907  0
C  C74  1  0.77748877  0.82991112  0.53222760  1  0  0.234518  0.5842  0  4.124977  0
C  C75  1  0.77748655  0.32991115  0.96777328  1  0  0.234499  0.584213  0  4.124915  0
C  C76  1  0.16008250  0.92490177  0.34661010  1  0  0.234214  0.596392  0  4.138742  0
C  C77  1  0.16008742  0.42490390  0.15338931  1  0  0.23422  0.596343  0  4.138752  0
C  C78  1  0.83991161  0.07509453  0.65338941  1  0  0.234304  0.596442  0  4.138653  0
C  C79  1  0.83991039  0.57509460  0.84661071  1  0  0.234193  0.596295  0  4.138767  0
C  C80  1  0.23657668  0.58789297  0.52453358  1  0  0.239956  0.605813  0  4.109147  0
C  C81  1  0.23657565  0.08788976  0.97546498  1  0  0.239944  0.605886  0  4.109175  0
C  C82  1  0.76342084  0.41210774  0.47546644  1  0  0.239972  0.605884  0  4.109183  0
C  C83  1  0.76342409  0.91210434  0.02453504  1  0  0.239923  0.60593  0  4.109322  0
C  C84  1  0.31831060  0.81485507  0.63219452  1  0  0.236365  0.598082  0  4.144718  0
C  C85  1  0.31831063  0.31485547  0.86780335  1  0  0.236403  0.598144  0  4.144638  0
C  C86  1  0.68169092  0.18514565  0.36780498  1  0  0.236361  0.598141  0  4.144768  0
C  C87  1  0.68169429  0.68514966  0.13219719  1  0  0.236361  0.598129  0  4.14471  0
O  O88  1  0.28708520  0.26230851  0.51573485  1  0  -0.283742  -0.517033  0  2.277714  0
O  O89  1  0.28708609  0.76230850  0.98426500  1  0  -0.283721  -0.517033  0  2.27771  0
O  O90  1  0.71291395  0.73769000  0.48426569  1  0  -0.283768  -0.517061  0  2.277782  0
O  O91  1  0.71291357  0.23769111  0.01573502  1  0  -0.283761  -0.517087  0  2.277741  0
O  O92  1  0.14219639  0.20263950  0.41438466  1  0  -0.301386  -0.490047  0  2.37836  0
O  O93  1  0.14219777  0.70263986  0.08561550  1  0  -0.301442  -0.490118  0  2.378217  0
O  O94  1  0.85780542  0.79735901  0.58561588  1  0  -0.301407  -0.490087  0  2.378292  0
O  O95  1  0.85780004  0.29735865  0.91438504  1  0  -0.30141  -0.490076  0  2.3782  0
O  O96  1  0.19113305  0.83982748  0.30280073  1  0  -0.324917  -0.569621  0  2.235099  0
O  O97  1  0.19113468  0.33982772  0.19719912  1  0  -0.324965  -0.56968  0  2.234977  0
O  O98  1  0.80886209  0.16017103  0.69719826  1  0  -0.325019  -0.569721  0  2.234962  0
O  O99  1  0.80886417  0.66017299  0.80280193  1  0  -0.324964  -0.569641  0  2.234948  0
O  O100  1  0.07823621  0.01503105  0.32876330  1  0  -0.35485  -0.525672  0  2.314242  0
O  O101  1  0.07824425  0.51503315  0.17123813  1  0  -0.35486  -0.52563  0  2.314343  0
O  O102  1  0.92175893  0.98496745  0.67123724  1  0  -0.35489  -0.52567  0  2.314295  0
O  O103  1  0.92175490  0.48496536  0.82876293  1  0  -0.354852  -0.525621  0  2.314358  0
O  O104  1  0.30544207  0.52116938  0.47805238  1  0  -0.316794  -0.460493  0  2.344633  0
O  O105  1  0.30544443  0.02117054  0.02194667  1  0  -0.316807  -0.460535  0  2.344759  0
O  O106  1  0.69455255  0.47882802  0.52194713  1  0  -0.316861  -0.46055  0  2.344718  0
O  O107  1  0.69455738  0.97882797  0.97805335  1  0  -0.316809  -0.460554  0  2.344689  0
O  O108  1  0.15583964  0.53015718  0.57844168  1  0  -0.366701  -0.556057  0  2.209913  0
O  O109  1  0.15584552  0.03015799  0.92155520  1  0  -0.366672  -0.55612  0  2.209956  0
O  O110  1  0.84415787  0.46984353  0.42155834  1  0  -0.366663  -0.556096  0  2.209978  0
O  O111  1  0.84415733  0.96984273  0.07844276  1  0  -0.366664  -0.556111  0  2.21009  0
O  O112  1  0.21005094  0.82055857  0.67913460  1  0  -0.365374  -0.550068  0  2.177933  0
O  O113  1  0.21004758  0.32056083  0.82086422  1  0  -0.365404  -0.550154  0  2.177933  0
O  O114  1  0.78995798  0.17944657  0.32086491  1  0  -0.365404  -0.550161  0  2.177936  0
O  O115  1  0.78996654  0.67945535  0.17913632  1  0  -0.365391  -0.550154  0  2.177873  0
O  O116  1  0.47243407  0.78129717  0.64064894  1  0  -0.326297  -0.498372  0  2.331263  0
O  O117  1  0.47243610  0.28130193  0.85935006  1  0  -0.326281  -0.498328  0  2.33135  0
O  O118  1  0.52756907  0.21870134  0.35935056  1  0  -0.326198  -0.498278  0  2.331387  0
O  O119  1  0.52757015  0.71870321  0.14064996  1  0  -0.326263  -0.498277  0  2.331299  0
O  O120  1  0.20673834  0.46117332  0.32760340  1  0  -0.60474  -0.776904  0  2.026321  0
O  O121  1  0.20674053  0.96117432  0.17239712  1  0  -0.604729  -0.776935  0  2.026343  0
O  O122  1  0.79325999  0.53882629  0.67239765  1  0  -0.60474  -0.776933  0  2.026313  0
O  O123  1  0.79326099  0.03882640  0.82760341  1  0  -0.604714  -0.776898  0  2.026295  0
O  O124  1  0.57718154  0.63259357  0.34778738  1  0  -0.61694  -0.788775  0  2.00168  0
O  O125  1  0.57718141  0.13259349  0.15221256  1  0  -0.616985  -0.788787  0  2.001709  0
O  O126  1  0.42281731  0.36740714  0.65221264  1  0  -0.616976  -0.788807  0  2.001642  0
O  O127  1  0.42281692  0.86740612  0.84778746  1  0  -0.616977  -0.788807  0  2.0017  0
O  O128  1  0.53278075  0.32197879  0.23943286  1  0  -0.611764  -0.780405  0  2.036005  0
O  O129  1  0.53278058  0.82197934  0.26056831  1  0  -0.611777  -0.780439  0  2.035992  0
O  O130  1  0.46721944  0.67802192  0.76056716  1  0  -0.611781  -0.780493  0  2.035917  0
O  O131  1  0.46721931  0.17802358  0.73943171  1  0  -0.611782  -0.780488  0  2.03595  0
