# generated using pymatgen
data_CuH7C7BrN
_symmetry_space_group_name_H-M   'P 1'
_cell_length_a   8.78123676
_cell_length_b   9.42036797
_cell_length_c   9.73746238
_cell_angle_alpha   91.99272855
_cell_angle_beta   104.80444387
_cell_angle_gamma   90.35993852
_symmetry_Int_Tables_number   1
_chemical_formula_structural   CuH7C7BrN
_chemical_formula_sum   'Cu4 H28 C28 Br4 N4'
_cell_volume   778.20023855
_cell_formula_units_Z   4
loop_
 _symmetry_equiv_pos_site_id
 _symmetry_equiv_pos_as_xyz
  1  'x, y, z'
loop_
 _atom_site_type_symbol
 _atom_site_label
 _atom_site_symmetry_multiplicity
 _atom_site_fract_x
 _atom_site_fract_y
 _atom_site_fract_z
 _atom_site_occupancy
 _atom_site_hle17_bader_spin_density
 _atom_site_hle17_ddec_charge
 _atom_site_hle17_ddec_spin_density
 _atom_site_hle17_ddec_sum_bond_order
 _atom_site_hle17_magmom
 _atom_site_hse06_10hf_bader_spin_density
 _atom_site_hse06_10hf_ddec_charge
 _atom_site_hse06_10hf_ddec_spin_density
 _atom_site_hse06_10hf_ddec_sum_bond_order
 _atom_site_hse06_10hf_magmom
 _atom_site_hse06_bader_spin_density
 _atom_site_hse06_ddec_charge
 _atom_site_hse06_ddec_spin_density
 _atom_site_hse06_ddec_sum_bond_order
 _atom_site_hse06_magmom
 _atom_site_pbe_bader_spin_density
 _atom_site_pbe_cm5_charge
 _atom_site_pbe_ddec_charge
 _atom_site_pbe_ddec_spin_density
 _atom_site_pbe_ddec_sum_bond_order
 _atom_site_pbe_magmom
Cu  Cu0  1  0.90997546  0.57332725  0.84924832  1  0  0.469247  0  2.051999  0  0  0.41884  0  2.49327  0  0  0.418135  0  2.458432  0  0  0.45656  0.418962  0  2.517157  0
Cu  Cu1  1  0.09002698  0.42667166  0.15074905  1  0  0.469252  0  2.051987  0  0  0.418873  0  2.49323  0  0  0.418169  0  2.458398  0  0  0.456562  0.418997  0  2.517142  0
Cu  Cu2  1  0.92201661  0.92567218  0.61306967  1  0  0.463138  0  2.090498  0  0  0.41772  0  2.528572  0  0  0.417006  0  2.494783  0  0  0.455986  0.416846  0  2.552637  0
Cu  Cu3  1  0.07798231  0.07432888  0.38693311  1  0  0.463116  0  2.090505  0  0  0.417666  0  2.528565  0  0  0.41693  0  2.494774  0  0  0.45599  0.4168  0  2.552664  0
H  H4  1  0.04955580  0.82418560  0.86140439  1  0  0.101094  0  0.993151  0  0  0.108756  0  1.060258  0  0  0.111866  0  1.058316  0  0  0.08773  0.106513  0  1.061659  0
H  H5  1  0.95044658  0.17581121  0.13859702  1  0  0.101085  0  0.993222  0  0  0.108757  0  1.060301  0  0  0.111861  0  1.058372  0  0  0.087745  0.106514  0  1.061707  0
H  H6  1  0.94249018  0.13501913  0.79657870  1  0  0.134474  0  0.974457  0  0  0.14448  0  1.039955  0  0  0.146972  0  1.038583  0  0  0.088529  0.142754  0  1.040688  0
H  H7  1  0.05750988  0.86498088  0.20342637  1  0  0.134491  0  0.974416  0  0  0.144477  0  1.039942  0  0  0.146968  0  1.038572  0  0  0.088516  0.14276  0  1.040675  0
H  H8  1  0.13796603  0.05833309  0.80748955  1  0  0.136152  0  0.943244  0  0  0.151562  0  0.998833  0  0  0.153756  0  0.997834  0  0  0.09501  0.150146  0  0.999146  0
H  H9  1  0.86203640  0.94166584  0.19251091  1  0  0.13614  0  0.943322  0  0  0.151558  0  0.9989  0  0  0.153747  0  0.997901  0  0  0.095015  0.150146  0  0.999215  0
H  H10  1  0.71646464  0.08665105  0.81651356  1  0  0.106977  0  0.972898  0  0  0.117002  0  1.03555  0  0  0.120258  0  1.034649  0  0  0.09849  0.113719  0  1.038212  0
H  H11  1  0.28353772  0.91334470  0.18348884  1  0  0.106942  0  0.972877  0  0  0.116966  0  1.03554  0  0  0.120222  0  1.034638  0  0  0.098503  0.113683  0  1.038202  0
H  H12  1  0.45086935  0.02010169  0.84389397  1  0  0.088703  0  0.94858  0  0  0.101094  0  1.007657  0  0  0.103286  0  1.006295  0  0  0.104181  0.099345  0  1.008734  0
H  H13  1  0.54913187  0.97989618  0.15610720  1  0  0.088695  0  0.948552  0  0  0.101088  0  1.007631  0  0  0.103281  0  1.006268  0  0  0.104161  0.099338  0  1.008708  0
H  H14  1  0.40376447  0.76801928  0.90815966  1  0  0.106971  0  0.965922  0  0  0.11528  0  1.02837  0  0  0.118489  0  1.028196  0  0  0.095126  0.112744  0  1.028818  0
H  H15  1  0.59623202  0.23197646  0.09183828  1  0  0.106856  0  0.965972  0  0  0.115151  0  1.028469  0  0  0.118364  0  1.02829  0  0  0.095031  0.112616  0  1.028919  0
H  H16  1  0.62203165  0.59570084  0.92917397  1  0  0.071239  0  0.979401  0  0  0.076513  0  1.049776  0  0  0.079958  0  1.046083  0  0  0.098787  0.074225  0  1.052294  0
H  H17  1  0.37796725  0.40429808  0.07082463  1  0  0.071237  0  0.979358  0  0  0.076508  0  1.049742  0  0  0.079956  0  1.046045  0  0  0.098772  0.074218  0  1.05226  0
H  H18  1  0.05329532  0.67688994  0.67346097  1  0  0.101417  0  0.987785  0  0  0.108416  0  1.056366  0  0  0.111679  0  1.05387  0  0  0.089391  0.105798  0  1.058691  0
H  H19  1  0.94670240  0.32310899  0.32653838  1  0  0.101338  0  0.98779  0  0  0.108356  0  1.056358  0  0  0.111621  0  1.053862  0  0  0.089385  0.105741  0  1.058689  0
H  H20  1  0.93189924  0.36538145  0.67420185  1  0  0.132385  0  0.978442  0  0  0.142428  0  1.043876  0  0  0.145011  0  1.042362  0  0  0.087603  0.140795  0  1.044471  0
H  H21  1  0.06809617  0.63461960  0.32579599  1  0  0.132359  0  0.978465  0  0  0.142413  0  1.043896  0  0  0.144999  0  1.042375  0  0  0.087604  0.140785  0  1.044492  0
H  H22  1  0.12679502  0.44169951  0.76792290  1  0  0.137883  0  0.949799  0  0  0.151213  0  1.006675  0  0  0.15334  0  1.006101  0  0  0.093799  0.149818  0  1.006685  0
H  H23  1  0.87320148  0.55829730  0.23207610  1  0  0.137873  0  0.94978  0  0  0.151205  0  1.006656  0  0  0.153332  0  1.006084  0  0  0.093802  0.149813  0  1.006669  0
H  H24  1  0.74288649  0.40287399  0.50135587  1  0  0.110408  0  0.980488  0  0  0.122172  0  1.038066  0  0  0.124807  0  1.03882  0  0  0.094102  0.11868  0  1.040417  0
H  H25  1  0.25710888  0.59712601  0.49864502  1  0  0.110403  0  0.980502  0  0  0.122215  0  1.038051  0  0  0.124852  0  1.038805  0  0  0.09412  0.118724  0  1.040402  0
H  H26  1  0.50086572  0.46085342  0.31791240  1  0  0.087706  0  0.959986  0  0  0.098268  0  1.021815  0  0  0.100675  0  1.020124  0  0  0.102181  0.096232  0  1.02325  0
H  H27  1  0.49913209  0.53915083  0.68208816  1  0  0.087764  0  0.959892  0  0  0.098337  0  1.021702  0  0  0.100744  0  1.020012  0  0  0.102197  0.096283  0  1.023146  0
H  H28  1  0.44191873  0.71696331  0.26420906  1  0  0.097764  0  0.990873  0  0  0.104423  0  1.059743  0  0  0.107614  0  1.059119  0  0  0.089671  0.101871  0  1.060529  0
H  H29  1  0.55808028  0.28304200  0.73579181  1  0  0.097734  0  0.990869  0  0  0.104398  0  1.059739  0  0  0.107587  0  1.059116  0  0  0.089659  0.10184  0  1.060523  0
H  H30  1  0.63351116  0.90367741  0.39921283  1  0  0.070691  0  0.996841  0  0  0.075125  0  1.07036  0  0  0.07821  0  1.067222  0  0  0.095337  0.073382  0  1.071967  0
H  H31  1  0.36649131  0.09632472  0.60079184  1  0  0.070675  0  0.996822  0  0  0.075106  0  1.070344  0  0  0.078192  0  1.067206  0  0  0.095321  0.073361  0  1.071948  0
C  C32  1  0.80708255  0.87476124  0.85016953  1  0  0.258025  0  3.735281  0  0  0.263805  0  3.972521  0  0  0.272834  0  3.990972  0  0  0.109173  0.257121  0  3.960414  0
C  C33  1  0.19291979  0.12523344  0.14983283  1  0  0.258174  0  3.734953  0  0  0.263826  0  3.972376  0  0  0.272852  0  3.990828  0  0  0.109144  0.257142  0  3.960273  0
C  C34  1  0.96308080  0.90760778  0.83031375  1  0  -0.152634  0  3.798904  0  0  -0.175431  0  4.0839  0  0  -0.175155  0  4.09345  0  0  -0.158081  -0.174434  0  4.076226  0
C  C35  1  0.03692281  0.09239114  0.16968596  1  0  -0.152705  0  3.798951  0  0  -0.175437  0  4.083913  0  0  -0.175164  0  4.093465  0  0  -0.15809  -0.174436  0  4.07625  0
C  C36  1  0.01310981  0.03999258  0.79851935  1  0  -0.27088  0  3.642061  0  0  -0.324698  0  3.922834  0  0  -0.32009  0  3.925815  0  0  -0.23659  -0.326557  0  3.919171  0
C  C37  1  0.98689029  0.96000848  0.20148268  1  0  -0.270856  0  3.642105  0  0  -0.324667  0  3.922881  0  0  -0.320047  0  3.925847  0  0  -0.236569  -0.326536  0  3.91923  0
C  C38  1  0.68989043  0.97807608  0.83873972  1  0  -0.149417  0  3.673207  0  0  -0.166051  0  3.912869  0  0  -0.173972  0  3.932926  0  0  -0.086201  -0.160942  0  3.90098  0
C  C39  1  0.31011312  0.02192072  0.16126299  1  0  -0.149373  0  3.673042  0  0  -0.165949  0  3.912716  0  0  -0.173869  0  3.932773  0  0  -0.08622  -0.160836  0  3.900826  0
C  C40  1  0.54297815  0.94126434  0.85561927  1  0  -0.002068  0  3.75685  0  0  -0.020691  0  4.008299  0  0  -0.015199  0  4.025202  0  0  -0.072104  -0.024326  0  3.996595  0
C  C41  1  0.45702425  0.05873245  0.14437906  1  0  -0.002155  0  3.756866  0  0  -0.020782  0  4.00829  0  0  -0.015292  0  4.025195  0  0  -0.072082  -0.02441  0  3.996585  0
C  C42  1  0.51572701  0.80218478  0.89032251  1  0  -0.126621  0  3.752294  0  0  -0.141667  0  4.00391  0  0  -0.148691  0  4.024737  0  0  -0.09422  -0.136866  0  3.990335  0
C  C43  1  0.48427069  0.19781308  0.10967578  1  0  -0.126424  0  3.75224  0  0  -0.141462  0  4.003839  0  0  -0.148488  0  4.024665  0  0  -0.094123  -0.136662  0  3.990265  0
C  C44  1  0.63624746  0.70550914  0.90181809  1  0  0.110936  0  3.729914  0  0  0.084473  0  3.980271  0  0  0.091235  0  3.99569  0  0  0.029081  0.079358  0  3.970993  0
C  C45  1  0.36375138  0.29448767  0.09818352  1  0  0.110867  0  3.72987  0  0  0.084418  0  3.980226  0  0  0.091177  0  3.995645  0  0  0.029078  0.079304  0  3.970953  0
C  C46  1  0.81799891  0.62219194  0.54766244  1  0  0.251608  0  3.730329  0  0  0.258258  0  3.965811  0  0  0.266211  0  3.985149  0  0  0.108741  0.252081  0  3.953517  0
C  C47  1  0.18199890  0.37781122  0.45233193  1  0  0.251606  0  3.730353  0  0  0.258243  0  3.96586  0  0  0.266195  0  3.985198  0  0  0.108804  0.252074  0  3.953584  0
C  C48  1  0.96386111  0.59232861  0.65497641  1  0  -0.151688  0  3.792352  0  0  -0.174269  0  4.077744  0  0  -0.172959  0  4.086167  0  0  -0.155811  -0.174176  0  4.070987  0
C  C49  1  0.03613904  0.40767457  0.34502363  1  0  -0.151615  0  3.792182  0  0  -0.174225  0  4.077624  0  0  -0.172913  0  4.086048  0  0  -0.155848  -0.174127  0  4.070882  0
C  C50  1  0.00514306  0.46002079  0.71069746  1  0  -0.275877  0  3.656465  0  0  -0.327905  0  3.936688  0  0  -0.323696  0  3.939505  0  0  -0.238928  -0.329691  0  3.932947  0
C  C51  1  0.99485586  0.53997919  0.28930118  1  0  -0.275839  0  3.656355  0  0  -0.327878  0  3.936587  0  0  -0.323671  0  3.939405  0  0  -0.238889  -0.329668  0  3.932864  0
C  C52  1  0.71495376  0.51310576  0.47670357  1  0  -0.145407  0  3.678332  0  0  -0.158696  0  3.911204  0  0  -0.16746  0  3.933685  0  0  -0.08509  -0.153081  0  3.898144  0
C  C53  1  0.28504161  0.48689316  0.52329318  1  0  -0.14527  0  3.678172  0  0  -0.158663  0  3.911138  0  0  -0.167432  0  3.933623  0  0  -0.085089  -0.153049  0  3.898075  0
C  C54  1  0.58026455  0.54552451  0.37350237  1  0  -0.003208  0  3.747415  0  0  -0.019514  0  3.993415  0  0  -0.014527  0  4.010987  0  0  -0.070886  -0.022506  0  3.981074  0
C  C55  1  0.41973325  0.45447866  0.62649507  1  0  -0.003317  0  3.747272  0  0  -0.019602  0  3.993297  0  0  -0.014618  0  4.010871  0  0  -0.070936  -0.02258  0  3.980949  0
C  C56  1  0.54780287  0.68760631  0.34336070  1  0  -0.126797  0  3.754435  0  0  -0.141049  0  4.003901  0  0  -0.148403  0  4.025554  0  0  -0.095016  -0.135805  0  3.989329  0
C  C57  1  0.45219733  0.31240005  0.65663946  1  0  -0.126844  0  3.754362  0  0  -0.141107  0  4.003839  0  0  -0.148459  0  4.025493  0  0  -0.095011  -0.135858  0  3.989251  0
C  C58  1  0.65326624  0.79092043  0.41754980  1  0  0.117643  0  3.713266  0  0  0.09068  0  3.960279  0  0  0.097344  0  3.97658  0  0  0.031186  0.085659  0  3.950347  0
C  C59  1  0.34673508  0.20908167  0.58244844  1  0  0.117765  0  3.713156  0  0  0.090772  0  3.96014  0  0  0.097435  0  3.976439  0  0  0.031208  0.08577  0  3.9502  0
Br  Br60  1  0.81141070  0.37208086  0.95594347  1  0  -0.540073  0  1.157975  0  0  -0.477673  0  1.481933  0  0  -0.493435  0  1.454098  0  0  -0.245356  -0.465912  0  1.501591  0
Br  Br61  1  0.18859052  0.62791593  0.04405356  1  0  -0.540076  0  1.157993  0  0  -0.477675  0  1.481959  0  0  -0.493439  0  1.454124  0  0  -0.245339  -0.46591  0  1.50162  0
Br  Br62  1  0.81421569  0.12613560  0.46570820  1  0  -0.534177  0  1.16307  0  0  -0.475457  0  1.481075  0  0  -0.4924  0  1.45616  0  0  -0.253288  -0.46212  0  1.499214  0
Br  Br63  1  0.18579040  0.87387076  0.53429539  1  0  -0.534195  0  1.163073  0  0  -0.475463  0  1.481064  0  0  -0.492408  0  1.456147  0  0  -0.25329  -0.462134  0  1.499219  0
N  N64  1  0.77772733  0.73798782  0.87884706  1  0  -0.340638  0  3.297695  0  0  -0.277426  0  3.579417  0  0  -0.289947  0  3.588543  0  0  -0.361395  -0.2688  0  3.574197  0
N  N65  1  0.22227270  0.26200899  0.12115483  1  0  -0.340665  0  3.297532  0  0  -0.277454  0  3.579335  0  0  -0.289969  0  3.588461  0  0  -0.36137  -0.268827  0  3.574123  0
N  N66  1  0.78650904  0.76076466  0.51638548  1  0  -0.33495  0  3.300727  0  0  -0.269979  0  3.575885  0  0  -0.282738  0  3.586433  0  0  -0.357719  -0.260836  0  3.569967  0
N  N67  1  0.21349228  0.23923637  0.48360965  1  0  -0.335062  0  3.300813  0  0  -0.269974  0  3.575841  0  0  -0.282727  0  3.586383  0  0  -0.357743  -0.26087  0  3.569971  0
