# generated using pymatgen
data_CdH17C18(NO)5
_symmetry_space_group_name_H-M   'P 1'
_cell_length_a   8.54163088
_cell_length_b   11.15395712
_cell_length_c   11.15385970
_cell_angle_alpha   100.82985474
_cell_angle_beta   99.22782322
_cell_angle_gamma   99.22885047
_symmetry_Int_Tables_number   1
_chemical_formula_structural   CdH17C18(NO)5
_chemical_formula_sum   'Cd2 H34 C36 N10 O10'
_cell_volume   1010.14061596
_cell_formula_units_Z   2
loop_
 _symmetry_equiv_pos_site_id
 _symmetry_equiv_pos_as_xyz
  1  'x, y, z'
loop_
 _atom_site_type_symbol
 _atom_site_label
 _atom_site_symmetry_multiplicity
 _atom_site_fract_x
 _atom_site_fract_y
 _atom_site_fract_z
 _atom_site_occupancy
 _atom_site_hle17_bader_spin_density
 _atom_site_hle17_ddec_charge
 _atom_site_hle17_ddec_spin_density
 _atom_site_hle17_ddec_sum_bond_order
 _atom_site_hle17_magmom
 _atom_site_hse06_10hf_bader_spin_density
 _atom_site_hse06_10hf_ddec_charge
 _atom_site_hse06_10hf_ddec_spin_density
 _atom_site_hse06_10hf_ddec_sum_bond_order
 _atom_site_hse06_10hf_magmom
 _atom_site_hse06_bader_spin_density
 _atom_site_hse06_ddec_charge
 _atom_site_hse06_ddec_spin_density
 _atom_site_hse06_ddec_sum_bond_order
 _atom_site_hse06_magmom
 _atom_site_pbe_bader_spin_density
 _atom_site_pbe_cm5_charge
 _atom_site_pbe_ddec_charge
 _atom_site_pbe_ddec_spin_density
 _atom_site_pbe_ddec_sum_bond_order
 _atom_site_pbe_magmom
Cd  Cd0  1  0.18777315  0.05057177  0.43792825  1  0  1.100136  0  1.685553  0  0  0.908334  0  2.130961  0  0  0.967945  0  2.076865  0  0  0.754667  0.86605  0  2.167678  0
Cd  Cd1  1  0.68777347  0.43792093  0.05057854  1  0  1.100125  0  1.685678  0  0  0.908345  0  2.131113  0  0  0.967948  0  2.077015  0  0  0.754712  0.866066  0  2.167834  0
H  H2  1  0.63504690  0.20144186  0.73739445  1  0  0.345548  0  0.925656  0  0  0.326515  0  0.988231  0  0  0.334634  0  0.981573  0  0  0.298975  0.320744  0  0.992967  0
H  H3  1  0.13504271  0.73738758  0.20143779  1  0  0.34555  0  0.925622  0  0  0.32651  0  0.988212  0  0  0.334628  0  0.981557  0  0  0.298979  0.320738  0  0.992954  0
H  H4  1  0.47495469  0.09369836  0.63078023  1  0  0.351041  0  0.880917  0  0  0.336833  0  0.937309  0  0  0.34372  0  0.931643  0  0  0.312335  0.331934  0  0.941376  0
H  H5  1  0.97495243  0.63077288  0.09369979  1  0  0.351043  0  0.880995  0  0  0.336829  0  0.937395  0  0  0.343716  0  0.931728  0  0  0.312304  0.331931  0  0.941459  0
H  H6  1  0.91558954  0.84746388  0.42793688  1  0  0.378225  0  0.945035  0  0  0.332948  0  1.030958  0  0  0.345267  0  1.013841  0  0  0.272179  0.324296  0  1.04296  0
H  H7  1  0.41559585  0.42794768  0.84747385  1  0  0.378283  0  0.944948  0  0  0.333009  0  1.03087  0  0  0.34533  0  1.013749  0  0  0.272204  0.324356  0  1.042872  0
H  H8  1  0.97038941  0.83632708  0.29807148  1  0  0.404599  0  0.866534  0  0  0.376546  0  0.943325  0  0  0.385965  0  0.932234  0  0  0.295125  0.369911  0  0.95064  0
H  H9  1  0.47038097  0.29807603  0.83632288  1  0  0.404643  0  0.866572  0  0  0.376598  0  0.943342  0  0  0.386015  0  0.932187  0  0  0.295176  0.369965  0  0.950653  0
H  H10  1  0.42442810  0.69716961  0.34042340  1  0  0.11168  0  0.943779  0  0  0.120699  0  1.015347  0  0  0.124146  0  1.013079  0  0  0.101312  0.11834  0  1.016896  0
H  H11  1  0.92441724  0.34042901  0.69717831  1  0  0.111639  0  0.943785  0  0  0.12072  0  1.015305  0  0  0.124168  0  1.013039  0  0  0.101337  0.118357  0  1.016858  0
H  H12  1  0.59848246  0.81616703  0.39532014  1  0  0.099705  0  0.942587  0  0  0.112461  0  1.005747  0  0  0.114773  0  1.004673  0  0  0.095808  0.110867  0  1.006499  0
H  H13  1  0.09847573  0.39533287  0.81616819  1  0  0.099684  0  0.942601  0  0  0.112422  0  1.005781  0  0  0.114732  0  1.004711  0  0  0.095819  0.110826  0  1.006537  0
H  H14  1  0.40487817  0.76229508  0.12742245  1  0  0.103878  0  0.919395  0  0  0.119761  0  0.976783  0  0  0.122848  0  0.974896  0  0  0.101498  0.117467  0  0.978471  0
H  H15  1  0.90488795  0.12743784  0.76230070  1  0  0.103891  0  0.919582  0  0  0.119797  0  0.97692  0  0  0.122883  0  0.975031  0  0  0.101505  0.117494  0  0.978622  0
H  H16  1  0.60470255  0.84645100  0.18146776  1  0  0.09125  0  0.947934  0  0  0.106228  0  1.010648  0  0  0.108331  0  1.009844  0  0  0.094231  0.104908  0  1.011082  0
H  H17  1  0.10470494  0.18148408  0.84646511  1  0  0.091378  0  0.94779  0  0  0.106271  0  1.010581  0  0  0.108376  0  1.009773  0  0  0.09428  0.104957  0  1.011012  0
H  H18  1  0.49636089  0.48951532  0.37482348  1  0  0.136893  0  0.986009  0  0  0.143621  0  1.05192  0  0  0.14854  0  1.048841  0  0  0.109696  0.140155  0  1.054042  0
H  H19  1  0.99637299  0.37482593  0.48952559  1  0  0.136929  0  0.986057  0  0  0.143642  0  1.051963  0  0  0.148569  0  1.048882  0  0  0.109662  0.140175  0  1.054085  0
H  H20  1  0.34626224  0.42728719  0.21341968  1  0  0.130096  0  0.980817  0  0  0.137766  0  1.042024  0  0  0.142003  0  1.039568  0  0  0.110486  0.134615  0  1.044051  0
H  H21  1  0.84626895  0.21341814  0.42730683  1  0  0.130203  0  0.980643  0  0  0.13785  0  1.041866  0  0  0.142088  0  1.039406  0  0  0.110514  0.134698  0  1.043886  0
H  H22  1  0.12917352  0.35501557  0.02774265  1  0  0.105548  0  0.943808  0  0  0.120174  0  0.996478  0  0  0.12224  0  0.995344  0  0  0.115354  0.118755  0  0.997113  0
H  H23  1  0.62917764  0.02774023  0.35502787  1  0  0.105422  0  0.943835  0  0  0.119997  0  0.996608  0  0  0.122063  0  0.995473  0  0  0.115257  0.118579  0  0.997243  0
H  H24  1  0.92892755  0.15526898  0.00522331  1  0  0.116148  0  0.955003  0  0  0.125471  0  1.012813  0  0  0.128881  0  1.011754  0  0  0.110698  0.122851  0  1.014048  0
H  H25  1  0.42894213  0.00521639  0.15527159  1  0  0.116148  0  0.955006  0  0  0.125482  0  1.01282  0  0  0.128888  0  1.01177  0  0  0.110727  0.122861  0  1.014056  0
H  H26  1  0.96361882  0.03619284  0.17511334  1  0  0.081019  0  0.921818  0  0  0.093577  0  0.976647  0  0  0.095962  0  0.974883  0  0  0.119741  0.09174  0  0.978057  0
H  H27  1  0.46363756  0.17511274  0.03620149  1  0  0.081043  0  0.921992  0  0  0.093613  0  0.976781  0  0  0.095996  0  0.975021  0  0  0.119804  0.091778  0  0.978192  0
H  H28  1  0.70148897  0.62236653  0.40295190  1  0  0.086114  0  0.968048  0  0  0.093001  0  1.035702  0  0  0.095554  0  1.033917  0  0  0.113783  0.091147  0  1.036982  0
H  H29  1  0.20148282  0.40297453  0.62238836  1  0  0.086138  0  0.968234  0  0  0.09298  0  1.035931  0  0  0.095531  0  1.034149  0  0  0.113779  0.091129  0  1.03721  0
H  H30  1  0.81741568  0.55361582  0.77271863  1  0  0.118069  0  0.968629  0  0  0.123387  0  1.036029  0  0  0.126998  0  1.032752  0  0  0.109968  0.120687  0  1.038473  0
H  H31  1  0.31742744  0.77272762  0.55360746  1  0  0.118145  0  0.968543  0  0  0.123398  0  1.03601  0  0  0.127012  0  1.032729  0  0  0.110023  0.120699  0  1.038454  0
H  H32  1  0.01465225  0.75681877  0.83103383  1  0  0.106587  0  0.92855  0  0  0.120348  0  0.976534  0  0  0.123653  0  0.976192  0  0  0.110876  0.11787  0  0.977092  0
H  H33  1  0.51467625  0.83105734  0.75681248  1  0  0.106491  0  0.92854  0  0  0.120304  0  0.976481  0  0  0.123607  0  0.976141  0  0  0.110889  0.117826  0  0.977034  0
H  H34  1  0.04125961  0.88573856  0.66965215  1  0  0.090959  0  0.971521  0  0  0.097427  0  1.03684  0  0  0.101095  0  1.033239  0  0  0.112198  0.094672  0  1.03949  0
H  H35  1  0.54128818  0.66967598  0.88574196  1  0  0.090979  0  0.97141  0  0  0.097459  0  1.036734  0  0  0.101129  0  1.033133  0  0  0.112256  0.094702  0  1.039388  0
C  C36  1  0.37419746  0.87623508  0.35493962  1  0  0.684568  0  3.869073  0  0  0.633241  0  4.179867  0  0  0.666478  0  4.173727  0  0  0.195322  0.610779  0  4.182956  0
C  C37  1  0.87420241  0.35495218  0.87624225  1  0  0.6844  0  3.868931  0  0  0.633143  0  4.179646  0  0  0.666383  0  4.173513  0  0  0.195508  0.610683  0  4.182726  0
C  C38  1  0.48559026  0.78658282  0.32567958  1  0  -0.25588  0  3.699307  0  0  -0.293377  0  3.954355  0  0  -0.299248  0  3.962743  0  0  -0.172654  -0.289222  0  3.948362  0
C  C39  1  0.98559640  0.32568370  0.78658453  1  0  -0.255711  0  3.699112  0  0  -0.293211  0  3.954047  0  0  -0.299089  0  3.96244  0  0  -0.172706  -0.289046  0  3.948042  0
C  C40  1  0.51791617  0.76791614  0.19363947  1  0  -0.23359  0  3.699161  0  0  -0.27469  0  3.951818  0  0  -0.280017  0  3.960161  0  0  -0.168045  -0.271266  0  3.946325  0
C  C41  1  0.01792527  0.19364832  0.76791818  1  0  -0.233895  0  3.699513  0  0  -0.274921  0  3.952169  0  0  -0.280264  0  3.960548  0  0  -0.168183  -0.271498  0  3.946691  0
C  C42  1  0.57880849  0.64954574  0.15161297  1  0  0.684549  0  3.856139  0  0  0.642524  0  4.147206  0  0  0.675531  0  4.142741  0  0  0.193307  0.620096  0  4.149399  0
C  C43  1  0.07879873  0.15161802  0.64954554  1  0  0.68461  0  3.856403  0  0  0.64254  0  4.147494  0  0  0.675543  0  4.143029  0  0  0.193324  0.620114  0  4.149686  0
C  C44  1  0.52883626  0.26291330  0.58710436  1  0  0.640113  0  3.825632  0  0  0.597882  0  4.100673  0  0  0.623535  0  4.108798  0  0  0.346882  0.58082  0  4.09485  0
C  C45  1  0.02883300  0.58710775  0.26292181  1  0  0.640306  0  3.825541  0  0  0.597928  0  4.100754  0  0  0.623583  0  4.108878  0  0  0.346873  0.580865  0  4.094934  0
C  C46  1  0.62381062  0.45229847  0.54504899  1  0  0.283125  0  3.791188  0  0  0.273631  0  4.046153  0  0  0.289638  0  4.061833  0  0  0.134085  0.263408  0  4.035076  0
C  C47  1  0.12381479  0.54505264  0.45230014  1  0  0.283093  0  3.791427  0  0  0.273563  0  4.046443  0  0  0.289569  0  4.06213  0  0  0.134047  0.263338  0  4.035365  0
C  C48  1  0.50492550  0.42447811  0.43572900  1  0  -0.282938  0  3.673174  0  0  -0.31361  0  3.934577  0  0  -0.328206  0  3.954375  0  0  -0.103024  -0.303977  0  3.920899  0
C  C49  1  0.00491492  0.43574087  0.42449391  1  0  -0.283034  0  3.673051  0  0  -0.3136  0  3.934477  0  0  -0.328219  0  3.95427  0  0  -0.102944  -0.303966  0  3.920798  0
C  C50  1  0.39804040  0.31008736  0.40906526  1  0  0.245252  0  3.795558  0  0  0.235657  0  4.044277  0  0  0.249216  0  4.061712  0  0  0.129969  0.226832  0  4.032113  0
C  C51  1  0.89806702  0.40905121  0.31008390  1  0  0.245466  0  3.795255  0  0  0.235669  0  4.044226  0  0  0.249268  0  4.061593  0  0  0.129928  0.226848  0  4.032057  0
C  C52  1  0.26830292  0.27109694  0.29551295  1  0  0.171785  0  3.745927  0  0  0.170773  0  3.98475  0  0  0.175866  0  4.005532  0  0  0.121888  0.167115  0  3.970457  0
C  C53  1  0.76829597  0.29551566  0.27110294  1  0  0.171547  0  3.746042  0  0  0.170603  0  3.984876  0  0  0.175692  0  4.005634  0  0  0.121876  0.166938  0  3.970588  0
C  C54  1  0.25878338  0.34181341  0.20423733  1  0  -0.13266  0  3.662072  0  0  -0.153973  0  3.911258  0  0  -0.160307  0  3.931127  0  0  -0.076845  -0.149833  0  3.898346  0
C  C55  1  0.75879513  0.20425154  0.34183052  1  0  -0.132795  0  3.661755  0  0  -0.154051  0  3.910919  0  0  -0.160375  0  3.930765  0  0  -0.076866  -0.149917  0  3.898036  0
C  C56  1  0.13709738  0.29998532  0.09859056  1  0  0.00749  0  3.692202  0  0  -0.011949  0  3.943988  0  0  -0.008616  0  3.962181  0  0  -0.063308  -0.014224  0  3.931568  0
C  C57  1  0.63713128  0.09857712  0.29998493  1  0  0.007943  0  3.692009  0  0  -0.011486  0  3.94384  0  0  -0.008153  0  3.962035  0  0  -0.063016  -0.013763  0  3.931415  0
C  C58  1  0.02773764  0.18884506  0.08550887  1  0  -0.114996  0  3.712331  0  0  -0.130162  0  3.966291  0  0  -0.13641  0  3.987244  0  0  -0.081095  -0.126062  0  3.952173  0
C  C59  1  0.52774295  0.08550920  0.18887339  1  0  -0.115324  0  3.712318  0  0  -0.130544  0  3.966434  0  0  -0.136793  0  3.987387  0  0  -0.081401  -0.126442  0  3.952317  0
C  C60  1  0.04569171  0.12345009  0.17993143  1  0  0.13133  0  3.723551  0  0  0.101514  0  3.976052  0  0  0.10795  0  3.994979  0  0  0.050804  0.097662  0  3.96278  0
C  C61  1  0.54570755  0.17992068  0.12344698  1  0  0.131417  0  3.723329  0  0  0.101627  0  3.975834  0  0  0.108068  0  3.994752  0  0  0.050846  0.097771  0  3.962567  0
C  C62  1  0.76603505  0.64972923  0.49971112  1  0  0.0932  0  3.66798  0  0  0.055349  0  3.92034  0  0  0.062184  0  3.937945  0  0  0.048889  0.050829  0  3.908956  0
C  C63  1  0.26604342  0.49972752  0.64974307  1  0  0.09305  0  3.668331  0  0  0.055234  0  3.920716  0  0  0.062098  0  3.938277  0  0  0.048836  0.050709  0  3.90933  0
C  C64  1  0.74108463  0.57217075  0.58328989  1  0  -0.044399  0  3.749659  0  0  -0.021577  0  3.981738  0  0  -0.030968  0  4.007205  0  0  -0.00561  -0.016096  0  3.96539  0
C  C65  1  0.24108364  0.58329866  0.57217780  1  0  -0.044247  0  3.749694  0  0  -0.02148  0  3.981808  0  0  -0.030888  0  4.007308  0  0  -0.005586  -0.015997  0  3.96546  0
C  C66  1  0.83209282  0.61142621  0.70505104  1  0  -0.027299  0  3.669473  0  0  -0.056324  0  3.918785  0  0  -0.05189  0  3.936325  0  0  -0.061125  -0.058743  0  3.906596  0
C  C67  1  0.33209608  0.70506383  0.61142405  1  0  -0.027256  0  3.669032  0  0  -0.056195  0  3.918369  0  0  -0.05177  0  3.935923  0  0  -0.061182  -0.058614  0  3.906174  0
C  C68  1  0.94136275  0.72445980  0.73740461  1  0  -0.128669  0  3.761168  0  0  -0.137989  0  4.012173  0  0  -0.146309  0  4.034619  0  0  -0.08518  -0.13268  0  3.996943  0
C  C69  1  0.44138394  0.73741766  0.72444763  1  0  -0.128873  0  3.76117  0  0  -0.138272  0  4.012216  0  0  -0.146588  0  4.034655  0  0  -0.085341  -0.132958  0  3.996986  0
C  C70  1  0.95736699  0.79611707  0.64853599  1  0  0.121069  0  3.699972  0  0  0.089607  0  3.953226  0  0  0.096174  0  3.970993  0  0  0.046561  0.085624  0  3.940844  0
C  C71  1  0.45737877  0.64856059  0.79612550  1  0  0.121156  0  3.699473  0  0  0.089697  0  3.952709  0  0  0.096264  0  3.970482  0  0  0.046575  0.085713  0  3.940324  0
N  N72  1  0.53945307  0.18206732  0.66296823  1  0  -0.710861  0  3.064235  0  0  -0.665879  0  3.282135  0  0  -0.6888  0  3.277903  0  0  -0.569736  -0.650133  0  3.284814  0
N  N73  1  0.03944608  0.66296129  0.18206685  1  0  -0.710985  0  3.064246  0  0  -0.665951  0  3.282198  0  0  -0.688876  0  3.277969  0  0  -0.569776  -0.650201  0  3.284866  0
N  N74  1  0.40854198  0.23002125  0.48477887  1  0  -0.510685  0  3.126678  0  0  -0.446872  0  3.391999  0  0  -0.472454  0  3.405212  0  0  -0.334554  -0.429763  0  3.38278  0
N  N75  1  0.90853772  0.48478255  0.23003623  1  0  -0.510688  0  3.126622  0  0  -0.446757  0  3.39202  0  0  -0.472348  0  3.405214  0  0  -0.334493  -0.429651  0  3.382799  0
N  N76  1  0.63671916  0.37193717  0.61994544  1  0  -0.472537  0  2.949732  0  0  -0.434954  0  3.215421  0  0  -0.454633  0  3.225714  0  0  -0.317703  -0.422235  0  3.208619  0
N  N77  1  0.13671691  0.61995486  0.37194108  1  0  -0.472663  0  2.949906  0  0  -0.434955  0  3.215542  0  0  -0.454632  0  3.225833  0  0  -0.317627  -0.422238  0  3.208743  0
N  N78  1  0.16243088  0.16346156  0.28215878  1  0  -0.349362  0  3.257068  0  0  -0.279879  0  3.519673  0  0  -0.298993  0  3.538718  0  0  -0.322934  -0.26628  0  3.505747  0
N  N79  1  0.66242900  0.28215569  0.16346383  1  0  -0.3493  0  3.257083  0  0  -0.279847  0  3.519711  0  0  -0.298967  0  3.538756  0  0  -0.32298  -0.266243  0  3.505783  0
N  N80  1  0.87095223  0.75909514  0.53128407  1  0  -0.311746  0  3.171465  0  0  -0.246467  0  3.420532  0  0  -0.262027  0  3.436652  0  0  -0.307459  -0.235908  0  3.409326  0
N  N81  1  0.37096720  0.53129767  0.75910546  1  0  -0.311716  0  3.170984  0  0  -0.246418  0  3.419987  0  0  -0.261993  0  3.436124  0  0  -0.307421  -0.235848  0  3.408773  0
O  O82  1  0.39102545  0.93449059  0.46805037  1  0  -0.65748  0  1.962796  0  0  -0.594991  0  2.207221  0  0  -0.622899  0  2.195702  0  0  -0.338498  -0.575298  0  2.214251  0
O  O83  1  0.89103017  0.46805428  0.93451106  1  0  -0.657437  0  1.962801  0  0  -0.595029  0  2.207307  0  0  -0.622925  0  2.195763  0  0  -0.338612  -0.575335  0  2.214336  0
O  O84  1  0.26522944  0.88889459  0.26811775  1  0  -0.675013  0  1.953109  0  0  -0.612169  0  2.181994  0  0  -0.638835  0  2.172349  0  0  -0.338206  -0.59323  0  2.187905  0
O  O85  1  0.76523239  0.26813173  0.88890487  1  0  -0.67486  0  1.953128  0  0  -0.612073  0  2.182035  0  0  -0.638737  0  2.172387  0  0  -0.338254  -0.593148  0  2.187978  0
O  O86  1  0.65718819  0.64507443  0.06271469  1  0  -0.655016  0  1.944907  0  0  -0.593161  0  2.177626  0  0  -0.621592  0  2.16689  0  0  -0.345078  -0.573238  0  2.184204  0
O  O87  1  0.15719339  0.06272997  0.64509247  1  0  -0.654932  0  1.944816  0  0  -0.593068  0  2.177537  0  0  -0.621495  0  2.166807  0  0  -0.345014  -0.573143  0  2.184113  0
O  O88  1  0.54764783  0.55783045  0.20258081  1  0  -0.655439  0  1.965709  0  0  -0.592208  0  2.196909  0  0  -0.619708  0  2.188418  0  0  -0.33269  -0.572647  0  2.201719  0
O  O89  1  0.04766248  0.20260256  0.55784212  1  0  -0.655478  0  1.965837  0  0  -0.592253  0  2.197108  0  0  -0.619761  0  2.188644  0  0  -0.332687  -0.57269  0  2.201912  0
O  O90  1  0.94500367  0.89736873  0.36378291  1  0  -0.801417  0  1.86069  0  0  -0.73502  0  2.066911  0  0  -0.757184  0  2.035579  0  0  -0.582878  -0.719313  0  2.088049  0
O  O91  1  0.44500215  0.36378542  0.89736882  1  0  -0.801519  0  1.860642  0  0  -0.735147  0  2.066838  0  0  -0.757304  0  2.035438  0  0  -0.582964  -0.719444  0  2.087985  0
