# generated using pymatgen
data_CuH14C16(NO2)2
_symmetry_space_group_name_H-M   'P 1'
_cell_length_a   8.60800429
_cell_length_b   9.72780242
_cell_length_c   10.19794320
_cell_angle_alpha   92.21688238
_cell_angle_beta   113.32459552
_cell_angle_gamma   111.68855417
_symmetry_Int_Tables_number   1
_chemical_formula_structural   CuH14C16(NO2)2
_chemical_formula_sum   'Cu2 H28 C32 N4 O8'
_cell_volume   711.31075958
_cell_formula_units_Z   2
loop_
 _symmetry_equiv_pos_site_id
 _symmetry_equiv_pos_as_xyz
  1  'x, y, z'
loop_
 _atom_site_type_symbol
 _atom_site_label
 _atom_site_symmetry_multiplicity
 _atom_site_fract_x
 _atom_site_fract_y
 _atom_site_fract_z
 _atom_site_occupancy
 _atom_site_hle17_ddec_charge
 _atom_site_hle17_ddec_spin_density
 _atom_site_hle17_ddec_sum_bond_order
 _atom_site_hle17_magmom
 _atom_site_hse06_10hf_ddec_charge
 _atom_site_hse06_10hf_ddec_spin_density
 _atom_site_hse06_10hf_ddec_sum_bond_order
 _atom_site_hse06_10hf_magmom
 _atom_site_hse06_ddec_charge
 _atom_site_hse06_ddec_spin_density
 _atom_site_hse06_ddec_sum_bond_order
 _atom_site_hse06_magmom
 _atom_site_pbe_cm5_charge
 _atom_site_pbe_ddec_charge
 _atom_site_pbe_ddec_spin_density
 _atom_site_pbe_ddec_sum_bond_order
 _atom_site_pbe_magmom
Cu  Cu0  1  0.55298708  0.62094842  0.90148303  1  0.82878  0.717978  1.893832  0.494  0.80938  0.801489  2.294352  0.608  0.896964  0.879383  2.226551  0.694  0.745201  0.756762  0.745058  2.341733  0.551
Cu  Cu1  1  0.44701552  0.37905712  0.09851690  1  0.828742  -0.717975  1.893903  -0.494  0.809312  -0.801475  2.294415  -0.608  0.89691  -0.879388  2.226588  -0.694  0.745169  0.756729  -0.745056  2.341787  -0.551
H  H2  1  0.49331103  0.90234906  0.92905405  1  0.082744  0.001261  0.959765  0.002  0.091208  0.00108  1.02522  0.002  0.09338  0.000786  1.022772  0.002  0.122422  0.089299  0.001314  1.027687  0.002
H  H3  1  0.50669228  0.09765542  0.07094117  1  0.082817  -0.001257  0.95963  -0.002  0.091202  -0.001081  1.025195  -0.002  0.093374  -0.000786  1.022746  -0.002  0.122419  0.089292  -0.001314  1.027661  -0.002
H  H4  1  0.28590151  0.01060300  0.75808789  1  0.12044  0.00024  0.980373  0.0  0.124381  0.000259  1.047621  0.001  0.129547  0.000213  1.044873  0.0  0.108457  0.121976  0.000265  1.046882  0.001
H  H5  1  0.71409942  0.98939693  0.24190729  1  0.120462  -0.000244  0.980313  0.0  0.124363  -0.000259  1.047612  -0.001  0.12953  -0.000213  1.044865  0.0  0.108453  0.121966  -0.000265  1.046868  -0.001
H  H6  1  0.10252632  0.87894001  0.49123679  1  0.111711  0.000378  0.953871  0.0  0.120471  0.000114  1.013938  0.0  0.123938  4.5e-05  1.011445  0.0  0.110913  0.117732  0.000209  1.015926  0.0
H  H7  1  0.89746767  0.12105875  0.50876091  1  0.111737  -0.000377  0.953875  0.0  0.120455  -0.000113  1.013992  0.0  0.12392  -4.5e-05  1.011503  0.0  0.110935  0.117725  -0.000209  1.015973  0.0
H  H8  1  0.11779407  0.64095907  0.41062525  1  0.120411  0.000797  0.989038  0.001  0.127454  0.000707  1.052299  0.001  0.131261  0.000487  1.051038  0.001  0.109052  0.124329  0.000912  1.053551  0.001
H  H9  1  0.88219621  0.35903744  0.58937109  1  0.1204  -0.000791  0.989077  -0.001  0.127461  -0.000707  1.052311  -0.001  0.13127  -0.000487  1.05105  -0.001  0.109092  0.124335  -0.000912  1.053565  -0.001
H  H10  1  0.14030072  0.43623131  0.36409349  1  0.128225  0.000675  0.967064  0.001  0.137225  0.000626  1.028267  0.001  0.140894  0.000436  1.026684  0.001  0.114583  0.134452  0.000788  1.02981  0.001
H  H11  1  0.85968893  0.56376400  0.63590651  1  0.128262  -0.000679  0.967048  -0.001  0.137257  -0.000626  1.028258  -0.001  0.140927  -0.000436  1.026676  -0.001  0.114593  0.134483  -0.000788  1.029802  -0.001
H  H12  1  0.17786407  0.19425864  0.33765477  1  0.107822  0.000191  0.952822  0.0  0.118737  -8e-06  1.011847  0.0  0.121578  -3e-05  1.009587  0.0  0.112681  0.116302  2.4e-05  1.014041  0.0
H  H13  1  0.82212557  0.80573666  0.66234621  1  0.107805  -0.000191  0.952846  0.0  0.118713  7e-06  1.011863  0.0  0.121569  3e-05  1.009585  0.0  0.112669  0.116278  -2.4e-05  1.014058  0.0
H  H14  1  0.39183917  0.13818851  0.55666546  1  0.103138  0.000445  0.952076  0.0  0.115155  0.000506  1.00859  0.001  0.117732  0.000371  1.008903  0.0  0.11141  0.114281  0.000566  1.006456  0.001
H  H15  1  0.60815285  0.86181134  0.44333556  1  0.103227  -0.000447  0.952067  0.0  0.11522  -0.000506  1.008603  -0.001  0.117798  -0.000371  1.008914  0.0  0.11147  0.114347  -0.000566  1.006469  -0.001
H  H16  1  0.54736467  0.32046417  0.80016768  1  0.097382  0.001162  0.944771  0.002  0.106187  0.001025  1.006175  0.002  0.108642  0.000747  1.003843  0.001  0.124118  0.104268  0.001223  1.007791  0.002
H  H17  1  0.45263183  0.67953454  0.19983282  1  0.097397  -0.001163  0.944701  -0.002  0.106142  -0.001026  1.00617  -0.002  0.108598  -0.000747  1.003836  -0.001  0.124123  0.104233  -0.001223  1.007784  -0.002
H  H18  1  0.23637054  0.90372128  0.26616366  1  0.075437  0.000304  0.950419  0.001  0.087534  0.000171  1.017053  0.0  0.089754  7.7e-05  1.01615  0.0  0.084259  0.085856  0.000282  1.017883  0.0
H  H19  1  0.76363780  0.09628072  0.73384390  1  0.07543  -0.000302  0.950378  -0.001  0.087545  -0.000171  1.016977  0.0  0.089769  -7.7e-05  1.01607  0.0  0.084254  0.08586  -0.000282  1.017811  0.0
H  H20  1  0.22419299  0.71900114  0.22365788  1  0.069113  0.000329  0.973736  0.001  0.080523  0.000171  1.045836  0.0  0.08221  8.2e-05  1.045252  0.0  0.084473  0.079036  0.00027  1.046692  0.0
H  H21  1  0.77581615  0.28099756  0.77634293  1  0.069128  -0.000328  0.973756  -0.001  0.080529  -0.000171  1.045849  0.0  0.082217  -8.2e-05  1.045265  0.0  0.084458  0.079028  -0.00027  1.046714  0.0
H  H22  1  0.23018188  0.94877351  0.02600568  1  0.070077  8.8e-05  0.974142  0.0  0.086317  3.8e-05  1.035715  0.0  0.087471  3.9e-05  1.036466  0.0  0.083943  0.085701  3.5e-05  1.034879  0.0
H  H23  1  0.76981765  0.05122858  0.97399698  1  0.070106  -9e-05  0.974127  0.0  0.086332  -3.8e-05  1.03571  0.0  0.087488  -3.9e-05  1.03646  0.0  0.083984  0.085717  -3.5e-05  1.034874  0.0
H  H24  1  0.23664139  0.76998997  0.99105239  1  0.079776  -3.1e-05  0.95887  0.0  0.093993  -2.8e-05  1.022228  0.0  0.095881  -2.2e-05  1.021746  0.0  0.086056  0.092541  -3.4e-05  1.022669  0.0
H  H25  1  0.76337433  0.23001887  0.00895406  1  0.079787  2.8e-05  0.958923  0.0  0.094002  2.8e-05  1.022279  0.0  0.095891  2.3e-05  1.021797  0.0  0.086064  0.092549  3.4e-05  1.022719  0.0
H  H26  1  0.89777383  0.64528770  0.87693491  1  0.084741  -0.000126  0.956483  0.0  0.0974  -0.000131  1.025955  0.0  0.099311  -0.000125  1.025126  0.0  0.08992  0.096067  -0.000136  1.02655  0.0
H  H27  1  0.10224359  0.35470748  0.12307144  1  0.084734  0.000125  0.956524  0.0  0.097407  0.000132  1.025988  0.0  0.099316  0.000125  1.025163  0.0  0.089921  0.096073  0.000136  1.026587  0.0
H  H28  1  0.88984335  0.82562268  0.90010014  1  0.072063  -0.000301  0.95579  0.0  0.084154  -0.000307  1.028217  0.0  0.085971  -0.00029  1.026515  0.0  0.086866  0.082706  -0.00031  1.029659  0.0
H  H29  1  0.11015979  0.17436698  0.09989723  1  0.072023  0.000304  0.955729  0.0  0.084114  0.000307  1.028192  0.0  0.085946  0.00029  1.026476  0.0  0.086837  0.082666  0.00031  1.029636  0.0
C  C30  1  0.40765644  0.85042570  0.81317189  1  0.147744  -0.007209  3.685258  -0.008  0.11942  -0.001122  3.938976  -0.002  0.129515  -0.002121  3.955802  -0.004  0.058106  0.111498  -0.000297  3.931132  -0.002
C  C31  1  0.59234322  0.14957421  0.18682482  1  0.147684  0.007188  3.685222  0.008  0.119388  0.001125  3.938947  0.002  0.129483  0.00212  3.955773  0.004  0.058077  0.111465  0.000297  3.931101  0.002
C  C32  1  0.29562783  0.91033568  0.71730122  1  -0.109322  0.009578  3.681479  0.01  -0.117421  0.004436  3.922367  0.005  -0.125317  0.003937  3.941276  0.005  -0.075405  -0.113844  0.004821  3.909386  0.006
C  C33  1  0.70437251  0.08966312  0.28269371  1  -0.109363  -0.009554  3.681373  -0.01  -0.117411  -0.004434  3.92223  -0.005  -0.125307  -0.003938  3.941139  -0.005  -0.075359  -0.113838  -0.004821  3.909247  -0.006
C  C34  1  0.19119555  0.83535869  0.57046040  1  0.000676  -0.00776  3.692116  -0.007  -0.015568  -0.00263  3.936413  -0.002  -0.010642  -0.002861  3.952455  -0.003  -0.060814  -0.018216  -0.002443  3.924468  -0.002
C  C35  1  0.80879973  0.16464011  0.42953479  1  0.00073  0.007755  3.691988  0.007  -0.015475  0.002628  3.936265  0.002  -0.010547  0.002862  3.952306  0.003  -0.060826  -0.018132  0.002443  3.924319  0.002
C  C36  1  0.20013321  0.70264629  0.52452982  1  -0.137016  0.006603  3.671123  0.007  -0.155003  0.002918  3.915151  0.003  -0.162366  0.002602  3.935301  0.003  -0.07566  -0.148479  0.00309  3.899797  0.003
C  C37  1  0.79985394  0.29734907  0.47546739  1  -0.13703  -0.00662  3.671176  -0.007  -0.155053  -0.002919  3.915229  -0.003  -0.162417  -0.002605  3.935373  -0.003  -0.07571  -0.148532  -0.003091  3.89988  -0.003
C  C38  1  0.31301197  0.64777333  0.62739093  1  0.172565  -0.003015  3.768451  -0.003  0.168464  0.00067  4.01479  0.0  0.175799  -0.000392  4.036039  -0.001  0.11783  0.164229  0.001411  3.999369  0.001
C  C39  1  0.68697829  0.35222313  0.37260835  1  0.172491  0.003016  3.768463  0.003  0.16841  -0.000667  4.014781  0.0  0.175743  0.000394  4.036031  0.001  0.117787  0.164174  -0.001411  3.999352  -0.001
C  C40  1  0.32702736  0.50511556  0.59553238  1  0.173767  -0.002779  3.762069  -0.003  0.17105  0.000515  4.005762  0.0  0.17903  -0.000418  4.027376  -0.001  0.118393  0.166283  0.001116  3.990814  0.001
C  C41  1  0.67296601  0.49488202  0.40446799  1  0.173765  0.002788  3.762069  0.003  0.171046  -0.000513  4.005758  0.0  0.179027  0.000419  4.027371  0.001  0.118348  0.166281  -0.001116  3.990803  -0.001
C  C42  1  0.23257939  0.40851724  0.45742859  1  -0.135706  0.005677  3.666681  0.006  -0.153264  0.002489  3.909881  0.002  -0.160897  0.002287  3.930726  0.002  -0.0734  -0.14958  0.002626  3.897223  0.003
C  C43  1  0.76741457  0.59148147  0.54257204  1  -0.135751  -0.005678  3.66658  -0.006  -0.153292  -0.002489  3.909741  -0.002  -0.160932  -0.002288  3.930598  -0.002  -0.073384  -0.149607  -0.002626  3.897084  -0.003
C  C44  1  0.25482429  0.27475593  0.44251031  1  0.012398  -0.007043  3.68481  -0.007  -0.007136  -0.002489  3.932976  -0.002  -0.001893  -0.002622  3.948997  -0.003  -0.057536  -0.010737  -0.002454  3.923472  -0.002
C  C45  1  0.74516469  0.72524053  0.55748953  1  0.012403  0.007047  3.6847  0.007  -0.007115  0.002487  3.932866  0.002  -0.001884  0.002622  3.948884  0.003  -0.057531  -0.010718  0.002454  3.92337  0.002
C  C46  1  0.37163060  0.24165259  0.56464072  1  -0.107475  0.008334  3.705327  0.009  -0.119451  0.003966  3.953008  0.005  -0.12651  0.003546  3.972529  0.004  -0.07372  -0.115351  0.004278  3.93811  0.005
C  C47  1  0.62836701  0.75835066  0.43536037  1  -0.10753  -0.008332  3.705259  -0.009  -0.119506  -0.003964  3.952959  -0.005  -0.126562  -0.003546  3.972476  -0.004  -0.073758  -0.115405  -0.004278  3.938069  -0.005
C  C48  1  0.45962310  0.34171818  0.69947696  1  0.144069  -0.006265  3.676538  -0.007  0.11511  -0.000839  3.932428  -0.002  0.125756  -0.001741  3.948527  -0.003  0.055541  0.108483  -0.000157  3.920848  -0.001
C  C49  1  0.54037457  0.65828279  0.30052502  1  0.144022  0.006269  3.676471  0.007  0.115126  0.000842  3.93236  0.002  0.12577  0.001742  3.948459  0.003  0.055497  0.108489  0.000157  3.920795  0.001
C  C50  1  0.85531233  0.56967875  0.11015344  1  0.652964  -0.004576  3.823194  -0.007  0.609468  -0.000179  4.124242  -0.002  0.646111  -0.000248  4.118036  -0.002  0.21077  0.584287  -0.000218  4.127845  -0.003
C  C51  1  0.14468537  0.43032227  0.88984561  1  0.652971  0.004581  3.823229  0.007  0.609424  0.000186  4.124336  0.002  0.646067  0.000247  4.11813  0.002  0.210724  0.584242  0.000218  4.127944  0.003
C  C52  1  0.87054788  0.82787986  0.15346948  1  0.638413  -0.005485  3.852475  -0.008  0.596198  -0.000355  4.154664  -0.003  0.63204  -0.000373  4.150716  -0.002  0.205848  0.571577  -0.000412  4.156698  -0.003
C  C53  1  0.12945802  0.17212230  0.84652844  1  0.638352  0.005486  3.852356  0.008  0.596152  0.00036  4.154528  0.003  0.631993  0.000372  4.150583  0.002  0.205874  0.571529  0.000412  4.156561  0.003
C  C54  1  0.95667335  0.73446687  0.10604496  1  -0.160162  6.8e-05  3.590814  0.001  -0.121162  8.9e-05  3.805678  0.001  -0.132894  -7.3e-05  3.820948  0.001  -0.027547  -0.113624  4.4e-05  3.795607  0.001
C  C55  1  0.04333382  0.26553289  0.89396014  1  -0.160242  -7e-05  3.590911  -0.001  -0.121221  -9.2e-05  3.805775  -0.001  -0.132954  7.6e-05  3.821049  -0.001  -0.027565  -0.113683  -4.4e-05  3.795698  -0.001
C  C56  1  0.17156230  0.80217366  0.17955718  1  -0.132444  -0.000286  3.608087  -0.001  -0.178802  9.8e-05  3.856977  0.0  -0.179194  -0.000112  3.868457  0.0  -0.171785  -0.178481  0.000403  3.849541  0.0
C  C57  1  0.82844985  0.19782836  0.82044872  1  -0.132447  0.000274  3.608037  0.001  -0.178787  -9.8e-05  3.856864  0.0  -0.179179  0.000107  3.868337  0.0  -0.171741  -0.17845  -0.000403  3.849433  0.0
C  C58  1  0.17235684  0.82926916  0.03099942  1  -0.110879  5e-06  3.582132  0.0  -0.141675  -0.000125  3.828838  0.0  -0.142997  -0.00011  3.841248  0.0  -0.172592  -0.140269  -0.000117  3.81978  0.0
C  C59  1  0.82764965  0.17073174  0.96900551  1  -0.110911  1.4e-05  3.582021  0.0  -0.141722  0.000127  3.828774  0.0  -0.143049  0.000108  3.841192  0.0  -0.172656  -0.140315  0.000117  3.819712  0.0
C  C60  1  0.95679093  0.75333216  0.95364940  1  -0.145752  -0.00141  3.576138  -0.001  -0.198189  -0.001081  3.839538  0.0  -0.198351  -0.001027  3.848704  0.0  -0.166257  -0.198216  -0.001063  3.833568  0.0
C  C61  1  0.04322138  0.24666535  0.04635437  1  -0.145648  0.001406  3.57607  0.001  -0.198106  0.001077  3.839462  0.0  -0.19828  0.001028  3.848623  0.0  -0.166209  -0.198137  0.001063  3.833496  0.0
N  N62  1  0.41644699  0.72338173  0.76909477  1  -0.331303  0.077683  3.351952  0.094  -0.290108  0.058526  3.650447  0.076  -0.318379  0.050252  3.667486  0.069  -0.351372  -0.27517  0.06236  3.642894  0.078
N  N63  1  0.58354886  0.27661817  0.23090263  1  -0.331228  -0.077677  3.351951  -0.094  -0.290029  -0.058534  3.650415  -0.076  -0.318298  -0.050252  3.667444  -0.069  -0.351307  -0.275097  -0.062362  3.642861  -0.078
N  N64  1  0.43734392  0.46981006  0.71388141  1  -0.33923  0.07199  3.326245  0.087  -0.296329  0.05489  3.620655  0.071  -0.32542  0.047141  3.639607  0.065  -0.34766  -0.278964  0.058562  3.609502  0.073
N  N65  1  0.56264877  0.53018864  0.28612075  1  -0.339213  -0.071995  3.326291  -0.087  -0.296305  -0.054893  3.620667  -0.071  -0.325398  -0.04714  3.639611  -0.065  -0.347617  -0.278948  -0.058559  3.609524  -0.073
O  O66  1  0.67808804  0.50329961  0.01790656  1  -0.63658  0.097657  2.140414  0.124  -0.617943  0.061316  2.455785  0.085  -0.664674  0.047301  2.446642  0.069  -0.342338  -0.587383  0.070025  2.462833  0.094
O  O67  1  0.32191264  0.49670709  0.98209278  1  -0.636595  -0.097664  2.140282  -0.124  -0.617947  -0.061324  2.455698  -0.085  -0.664685  -0.047297  2.446552  -0.069  -0.342335  -0.587396  -0.070027  2.462752  -0.094
O  O68  1  0.93619965  0.50335722  0.19469056  1  -0.563739  0.016572  1.932603  0.021  -0.52093  0.008551  2.151437  0.012  -0.545418  0.004624  2.145707  0.007  -0.29995  -0.502346  0.012983  2.154215  0.017
O  O69  1  0.06379805  0.49664379  0.80530849  1  -0.563712  -0.016572  1.932699  -0.021  -0.520894  -0.008552  2.151552  -0.012  -0.545384  -0.004625  2.145827  -0.007  -0.299928  -0.502308  -0.012982  2.154333  -0.017
O  O70  1  0.69644905  0.79547799  0.06796243  1  -0.611621  0.102291  2.055734  0.132  -0.592884  0.062169  2.351487  0.088  -0.637488  0.047142  2.344826  0.07  -0.338853  -0.563237  0.071454  2.356056  0.097
O  O71  1  0.30356115  0.20452757  0.93203613  1  -0.611602  -0.102294  2.055667  -0.132  -0.592865  -0.062174  2.351409  -0.088  -0.637472  -0.047145  2.344744  -0.07  -0.338825  -0.563226  -0.071459  2.355974  -0.097
O  O72  1  0.96470193  0.92915642  0.26721573  1  -0.573228  0.020649  1.905373  0.026  -0.533936  0.010089  2.120541  0.014  -0.560319  0.005313  2.115341  0.008  -0.305954  -0.51374  0.015725  2.12264  0.021
O  O73  1  0.03530597  0.07084232  0.73278270  1  -0.573199  -0.020649  1.90538  -0.026  -0.533901  -0.010093  2.120526  -0.014  -0.560288  -0.005307  2.115334  -0.008  -0.305995  -0.513697  -0.015725  2.122602  -0.021
