# generated using pymatgen
data_LiH4C2N4O5
_symmetry_space_group_name_H-M   'P 1'
_cell_length_a   3.51774609
_cell_length_b   7.17182736
_cell_length_c   12.37560638
_cell_angle_alpha   98.96394530
_cell_angle_beta   96.55160430
_cell_angle_gamma   90.29700892
_symmetry_Int_Tables_number   1
_chemical_formula_structural   LiH4C2N4O5
_chemical_formula_sum   'Li2 H8 C4 N8 O10'
_cell_volume   306.30885051
_cell_formula_units_Z   2
loop_
 _symmetry_equiv_pos_site_id
 _symmetry_equiv_pos_as_xyz
  1  'x, y, z'
loop_
 _atom_site_type_symbol
 _atom_site_label
 _atom_site_symmetry_multiplicity
 _atom_site_fract_x
 _atom_site_fract_y
 _atom_site_fract_z
 _atom_site_occupancy
 _atom_site_hle17_bader_spin_density
 _atom_site_hle17_ddec_charge
 _atom_site_hle17_ddec_spin_density
 _atom_site_hle17_ddec_sum_bond_order
 _atom_site_hle17_magmom
 _atom_site_pbe_bader_spin_density
 _atom_site_pbe_cm5_charge
 _atom_site_pbe_ddec_charge
 _atom_site_pbe_ddec_spin_density
 _atom_site_pbe_ddec_sum_bond_order
 _atom_site_pbe_magmom
Li  Li0  1  0.96152048  0.92626849  0.20657654  1  0  0.863475  0  0.362483  0  0  0.483192  0.811082  0  0.486405  0
Li  Li1  1  0.03847932  0.07373289  0.79342193  1  0  0.863468  0  0.362493  0  0  0.483194  0.811076  0  0.486406  0
H  H2  1  0.55903084  0.76304806  0.32159405  1  0  0.412486  0  0.890074  0  0  0.300608  0.364197  0  0.984351  0
H  H3  1  0.44096890  0.23695191  0.67840591  1  0  0.412464  0  0.890104  0  0  0.300593  0.364183  0  0.984366  0
H  H4  1  0.12017748  0.83729320  0.00024504  1  0  0.426166  0  0.86695  0  0  0.309332  0.389387  0  0.941424  0
H  H5  1  0.87983089  0.16270816  0.99975370  1  0  0.426142  0  0.866926  0  0  0.309325  0.389362  0  0.941456  0
H  H6  1  0.45116234  0.67923803  0.19847584  1  0  0.423637  0  0.880385  0  0  0.304696  0.382567  0  0.960922  0
H  H7  1  0.54883739  0.32076194  0.80152331  1  0  0.423634  0  0.880388  0  0  0.304704  0.382556  0  0.960941  0
H  H8  1  0.78248941  0.70629515  0.01055803  1  0  0.429118  0  0.864229  0  0  0.302575  0.387156  0  0.945401  0
H  H9  1  0.21751332  0.29370764  0.98944066  1  0  0.429075  0  0.864288  0  0  0.302559  0.387108  0  0.94547  0
C  C10  1  0.03435606  0.40560698  0.47303967  1  0  0.069831  0  3.732507  0  0  0.127531  0.056744  0  3.989502  0
C  C11  1  0.96563490  0.59438877  0.52696127  1  0  0.069867  0  3.732531  0  0  0.127515  0.056732  0  3.98952  0
C  C12  1  0.92160021  0.32246795  0.35919364  1  0  0.287373  0  3.868189  0  0  0.22573  0.250353  0  4.156638  0
C  C13  1  0.07839361  0.67752781  0.64080738  1  0  0.287331  0  3.868144  0  0  0.22578  0.25036  0  4.156541  0
N  N14  1  0.04330458  0.14616688  0.34517098  1  0  -0.283885  0  2.783117  0  0  -0.254792  -0.286611  0  3.082236  0
N  N15  1  0.95669225  0.85383169  0.65482958  1  0  -0.283772  0  2.782855  0  0  -0.254757  -0.286506  0  3.081962  0
N  N16  1  0.72415998  0.42277928  0.28789337  1  0  -0.393751  0  2.888405  0  0  -0.221773  -0.38142  0  3.17894  0
N  N17  1  0.27583107  0.57721789  0.71210850  1  0  -0.393803  0  2.888521  0  0  -0.221829  -0.381491  0  3.179064  0
N  N18  1  0.22093646  0.27930207  0.52409909  1  0  -0.131128  0  2.787714  0  0  -0.166223  -0.131444  0  3.070654  0
N  N19  1  0.77905744  0.72069509  0.47590206  1  0  -0.131015  0  2.787663  0  0  -0.166128  -0.131276  0  3.070573  0
N  N20  1  0.64469271  0.34211022  0.18420013  1  0  0.65032  0  3.973813  0  0  0.126579  0.646792  0  4.280286  0
N  N21  1  0.35530698  0.65788834  0.81580051  1  0  0.650329  0  3.973858  0  0  0.126556  0.646775  0  4.280369  0
O  O22  1  0.22960353  0.12007453  0.44703240  1  0  0.023022  0  2.31677  0  0  0.078477  0.089241  0  2.568763  0
O  O23  1  0.77039314  0.87992121  0.55296790  1  0  0.022861  0  2.316784  0  0  0.078353  0.089036  0  2.568828  0
O  O24  1  0.48383750  0.80145848  0.24926772  1  0  -0.935852  0  1.880542  0  0  -0.65521  -0.884902  0  2.097814  0
O  O25  1  0.51616231  0.19854290  0.75073157  1  0  -0.93581  0  1.880561  0  0  -0.655206  -0.88486  0  2.09783  0
O  O26  1  0.46631609  0.44346777  0.12021858  1  0  -0.454629  0  1.786668  0  0  -0.145077  -0.40666  0  2.002994  0
O  O27  1  0.53368659  0.55653360  0.87978160  1  0  -0.454625  0  1.786748  0  0  -0.145049  -0.406635  0  2.003085  0
O  O28  1  0.96386749  0.80085123  0.05471904  1  0  -0.880247  0  1.791274  0  0  -0.645866  -0.816883  0  1.983633  0
O  O29  1  0.03613818  0.19915296  0.94527987  1  0  -0.880194  0  1.791294  0  0  -0.645845  -0.816801  0  1.983653  0
O  O30  1  0.73492662  0.17515189  0.14713897  1  0  -0.505945  0  1.815797  0  0  -0.169779  -0.469619  0  2.054169  0
O  O31  1  0.26507606  0.82484949  0.85286121  1  0  -0.505944  0  1.815725  0  0  -0.169765  -0.4696  0  2.054084  0
