# generated using pymatgen
data_ZnH8C12(NO3)2
_symmetry_space_group_name_H-M   'P 1'
_cell_length_a   9.48632944
_cell_length_b   10.55337473
_cell_length_c   12.64433998
_cell_angle_alpha   90.00001040
_cell_angle_beta   104.84492034
_cell_angle_gamma   89.99991890
_symmetry_Int_Tables_number   1
_chemical_formula_structural   ZnH8C12(NO3)2
_chemical_formula_sum   'Zn4 H32 C48 N8 O24'
_cell_volume   1223.60930359
_cell_formula_units_Z   4
loop_
 _symmetry_equiv_pos_site_id
 _symmetry_equiv_pos_as_xyz
  1  'x, y, z'
loop_
 _atom_site_type_symbol
 _atom_site_label
 _atom_site_symmetry_multiplicity
 _atom_site_fract_x
 _atom_site_fract_y
 _atom_site_fract_z
 _atom_site_occupancy
 _atom_site_hle17_bader_spin_density
 _atom_site_hle17_ddec_charge
 _atom_site_hle17_ddec_spin_density
 _atom_site_hle17_ddec_sum_bond_order
 _atom_site_hle17_magmom
 _atom_site_hse06_10hf_bader_spin_density
 _atom_site_hse06_10hf_ddec_charge
 _atom_site_hse06_10hf_ddec_spin_density
 _atom_site_hse06_10hf_ddec_sum_bond_order
 _atom_site_hse06_10hf_magmom
 _atom_site_hse06_bader_spin_density
 _atom_site_hse06_ddec_charge
 _atom_site_hse06_ddec_spin_density
 _atom_site_hse06_ddec_sum_bond_order
 _atom_site_hse06_magmom
 _atom_site_pbe_bader_spin_density
 _atom_site_pbe_cm5_charge
 _atom_site_pbe_ddec_charge
 _atom_site_pbe_ddec_spin_density
 _atom_site_pbe_ddec_sum_bond_order
 _atom_site_pbe_magmom
Zn  Zn0  1  0.55376841  0.31856886  0.21359190  1  0  1.006793  0  1.844567  0  0  0.810023  0  2.321297  0  0  0.857803  0  2.266068  0  0  0.710589  0.776581  0  2.359357  0
Zn  Zn1  1  0.94623170  0.81856981  0.28640804  1  0  1.00681  0  1.844571  0  0  0.810027  0  2.321299  0  0  0.857806  0  2.266068  0  0  0.710593  0.776589  0  2.359366  0
Zn  Zn2  1  0.44623165  0.68143017  0.78640751  1  0  1.006837  0  1.844552  0  0  0.810051  0  2.321282  0  0  0.857827  0  2.266054  0  0  0.710614  0.776615  0  2.359353  0
Zn  Zn3  1  0.05376836  0.18142921  0.71359217  1  0  1.006807  0  1.844582  0  0  0.810025  0  2.321316  0  0  0.857814  0  2.266085  0  0  0.710599  0.776578  0  2.359388  0
H  H4  1  0.63560466  0.01874346  0.84064992  1  0  0.12304  0  0.941609  0  0  0.132425  0  1.005028  0  0  0.136034  0  1.002435  0  0  0.113957  0.129764  0  1.006992  0
H  H5  1  0.86439514  0.51874259  0.65935144  1  0  0.123033  0  0.941596  0  0  0.13242  0  1.005014  0  0  0.136028  0  1.002424  0  0  0.113952  0.129756  0  1.006975  0
H  H6  1  0.36439649  0.98125747  0.15934891  1  0  0.123047  0  0.941619  0  0  0.132428  0  1.005043  0  0  0.136036  0  1.002451  0  0  0.113967  0.129766  0  1.007003  0
H  H7  1  0.13560384  0.48125643  0.34065014  1  0  0.122987  0  0.94161  0  0  0.13236  0  1.005049  0  0  0.135968  0  1.002457  0  0  0.113938  0.129693  0  1.007019  0
H  H8  1  0.79305954  0.15563125  0.17198468  1  0  0.108813  0  0.942557  0  0  0.116395  0  1.004796  0  0  0.119723  0  1.002354  0  0  0.122261  0.114011  0  1.006527  0
H  H9  1  0.70694084  0.65563157  0.32801528  1  0  0.108819  0  0.942572  0  0  0.116402  0  1.004813  0  0  0.119729  0  1.002372  0  0  0.122271  0.114018  0  1.006545  0
H  H10  1  0.20694161  0.84436872  0.82801494  1  0  0.10883  0  0.94254  0  0  0.116416  0  1.004769  0  0  0.119744  0  1.002327  0  0  0.122272  0.114033  0  1.006501  0
H  H11  1  0.29305597  0.34437125  0.67198746  1  0  0.108874  0  0.942544  0  0  0.116445  0  1.004788  0  0  0.119774  0  1.002346  0  0  0.12229  0.11406  0  1.006525  0
H  H12  1  0.37751522  0.26097800  0.99266756  1  0  0.099962  0  0.93628  0  0  0.108549  0  0.999293  0  0  0.112043  0  0.995575  0  0  0.122596  0.10594  0  1.002108  0
H  H13  1  0.12248576  0.76097741  0.50733390  1  0  0.10004  0  0.93626  0  0  0.108584  0  0.999304  0  0  0.112078  0  0.995587  0  0  0.122613  0.105977  0  1.00212  0
H  H14  1  0.62248593  0.73902198  0.00733206  1  0  0.09997  0  0.936305  0  0  0.108565  0  0.999303  0  0  0.112059  0  0.995586  0  0  0.122604  0.105955  0  1.002118  0
H  H15  1  0.87751431  0.23902256  0.49266789  1  0  0.099963  0  0.936325  0  0  0.108552  0  0.999324  0  0  0.112046  0  0.995607  0  0  0.122595  0.105943  0  1.002136  0
H  H16  1  0.27374120  0.04487463  0.51434538  1  0  0.136153  0  0.928658  0  0  0.146003  0  0.988353  0  0  0.150302  0  0.984402  0  0  0.116212  0.142872  0  0.991243  0
H  H17  1  0.22625795  0.54487401  0.98565411  1  0  0.13617  0  0.92863  0  0  0.146018  0  0.988322  0  0  0.150317  0  0.984373  0  0  0.116229  0.14289  0  0.991211  0
H  H18  1  0.72625886  0.95512345  0.48565403  1  0  0.136152  0  0.928654  0  0  0.145998  0  0.988348  0  0  0.150297  0  0.984397  0  0  0.116209  0.142867  0  0.99123  0
H  H19  1  0.77373994  0.45512502  0.01434568  1  0  0.136182  0  0.928621  0  0  0.146023  0  0.988313  0  0  0.150321  0  0.984365  0  0  0.116227  0.142894  0  0.991204  0
H  H20  1  0.61896903  0.27228128  0.44653702  1  0  0.106717  0  0.953867  0  0  0.113312  0  1.019241  0  0  0.117231  0  1.015108  0  0  0.121944  0.11044  0  1.022332  0
H  H21  1  0.88103225  0.77228037  0.05346313  1  0  0.106749  0  0.953858  0  0  0.113311  0  1.019265  0  0  0.117231  0  1.015131  0  0  0.121948  0.110438  0  1.022357  0
H  H22  1  0.38103321  0.72771775  0.55346359  1  0  0.10673  0  0.953847  0  0  0.113345  0  1.019214  0  0  0.117267  0  1.015077  0  0  0.121951  0.110476  0  1.022306  0
H  H23  1  0.11896673  0.22771865  0.94653766  1  0  0.106754  0  0.953857  0  0  0.113323  0  1.019263  0  0  0.117243  0  1.015129  0  0  0.121955  0.110452  0  1.022353  0
H  H24  1  0.25492885  0.18806103  0.19157309  1  0  0.100399  0  0.940967  0  0  0.105613  0  1.010824  0  0  0.109555  0  1.006574  0  0  0.119299  0.102709  0  1.013997  0
H  H25  1  0.24507087  0.68806035  0.30842579  1  0  0.100358  0  0.941052  0  0  0.105581  0  1.010884  0  0  0.109522  0  1.006636  0  0  0.119288  0.102679  0  1.014051  0
H  H26  1  0.74507121  0.81193800  0.80842553  1  0  0.10034  0  0.941029  0  0  0.105572  0  1.010867  0  0  0.109512  0  1.00662  0  0  0.119295  0.102668  0  1.014041  0
H  H27  1  0.75492920  0.31193773  0.69157441  1  0  0.100336  0  0.941067  0  0  0.105556  0  1.010907  0  0  0.109497  0  1.006659  0  0  0.11928  0.102651  0  1.01408  0
H  H28  1  0.92938155  0.02868503  0.08550532  1  0  0.406722  0  0.880012  0  0  0.37739  0  0.95916  0  0  0.388345  0  0.94659  0  0  0.309619  0.369593  0  0.968047  0
H  H29  1  0.57061904  0.52868460  0.41449546  1  0  0.406744  0  0.879988  0  0  0.377406  0  0.95915  0  0  0.388364  0  0.946573  0  0  0.309617  0.369608  0  0.968035  0
H  H30  1  0.07061851  0.97131589  0.91449568  1  0  0.406664  0  0.880058  0  0  0.377371  0  0.95916  0  0  0.388328  0  0.946586  0  0  0.309609  0.369573  0  0.968045  0
H  H31  1  0.42937994  0.47131727  0.58550533  1  0  0.40672  0  0.880029  0  0  0.377383  0  0.959191  0  0  0.38834  0  0.946618  0  0  0.309612  0.369584  0  0.968081  0
H  H32  1  0.47976937  0.11952551  0.65047477  1  0  0.389991  0  0.908891  0  0  0.364477  0  0.981185  0  0  0.374752  0  0.967585  0  0  0.300845  0.357234  0  0.988623  0
H  H33  1  0.02023074  0.61952702  0.84952413  1  0  0.389988  0  0.908882  0  0  0.364479  0  0.981173  0  0  0.374754  0  0.96758  0  0  0.300847  0.357235  0  0.988612  0
H  H34  1  0.52023069  0.88047256  0.34952465  1  0  0.390002  0  0.908859  0  0  0.364483  0  0.981157  0  0  0.374758  0  0.967572  0  0  0.300849  0.357242  0  0.988585  0
H  H35  1  0.97976824  0.38047295  0.15047587  1  0  0.389969  0  0.908912  0  0  0.364451  0  0.981199  0  0  0.374726  0  0.967615  0  0  0.300834  0.357211  0  0.988632  0
C  C36  1  0.36258833  0.12427385  0.80660561  1  0  0.661786  0  3.913602  0  0  0.607397  0  4.210049  0  0  0.641817  0  4.202304  0  0  0.216785  0.584106  0  4.214622  0
C  C37  1  0.13741178  0.62427518  0.69339408  1  0  0.661745  0  3.91376  0  0  0.607361  0  4.210222  0  0  0.641781  0  4.202474  0  0  0.216759  0.584073  0  4.214793  0
C  C38  1  0.63741282  0.87572612  0.19339243  1  0  0.661819  0  3.913453  0  0  0.607427  0  4.209918  0  0  0.641847  0  4.202173  0  0  0.216816  0.584133  0  4.214492  0
C  C39  1  0.86258829  0.37572669  0.30660692  1  0  0.661762  0  3.913705  0  0  0.607358  0  4.210184  0  0  0.641776  0  4.202443  0  0  0.216775  0.584066  0  4.214756  0
C  C40  1  0.49060600  0.13652957  0.90475678  1  0  -0.095072  0  3.780026  0  0  -0.069573  0  4.019353  0  0  -0.080304  0  4.044067  0  0  -0.014547  -0.062727  0  4.002782  0
C  C41  1  0.00939300  0.63652915  0.59524428  1  0  -0.095048  0  3.78008  0  0  -0.069582  0  4.01942  0  0  -0.080312  0  4.044134  0  0  -0.014576  -0.062743  0  4.002854  0
C  C42  1  0.50939515  0.86347135  0.09524204  1  0  -0.095003  0  3.780003  0  0  -0.069518  0  4.019347  0  0  -0.08025  0  4.044062  0  0  -0.014531  -0.062673  0  4.002771  0
C  C43  1  0.99060707  0.36347272  0.40475830  1  0  -0.095021  0  3.780133  0  0  -0.069527  0  4.019452  0  0  -0.080257  0  4.044168  0  0  -0.014536  -0.062683  0  4.002874  0
C  C44  1  0.62119141  0.07373536  0.91006112  1  0  -0.124691  0  3.641211  0  0  -0.16146  0  3.890613  0  0  -0.160384  0  3.908187  0  0  -0.071073  -0.161853  0  3.878915  0
C  C45  1  0.87881048  0.57373636  0.58993986  1  0  -0.124695  0  3.64127  0  0  -0.161451  0  3.890677  0  0  -0.160377  0  3.908255  0  0  -0.071077  -0.161838  0  3.878968  0
C  C46  1  0.37881084  0.92626556  0.08993871  1  0  -0.124716  0  3.641301  0  0  -0.1615  0  3.890693  0  0  -0.160422  0  3.908267  0  0  -0.071082  -0.161883  0  3.87898  0
C  C47  1  0.12118850  0.42626456  0.41006172  1  0  -0.124665  0  3.641332  0  0  -0.161451  0  3.890729  0  0  -0.160376  0  3.908306  0  0  -0.071054  -0.161832  0  3.879024  0
C  C48  1  0.73387668  0.07972853  0.00680510  1  0  0.299017  0  3.842742  0  0  0.293608  0  4.107625  0  0  0.300707  0  4.126236  0  0  0.094816  0.288019  0  4.095475  0
C  C49  1  0.76612383  0.57972882  0.49319567  1  0  0.299024  0  3.842716  0  0  0.293603  0  4.107614  0  0  0.300703  0  4.126226  0  0  0.094849  0.288016  0  4.095459  0
C  C50  1  0.26612447  0.92027239  0.99319373  1  0  0.298946  0  3.842848  0  0  0.293587  0  4.107662  0  0  0.300689  0  4.126273  0  0  0.094819  0.287997  0  4.095505  0
C  C51  1  0.23387516  0.42027400  0.50680750  1  0  0.299076  0  3.842622  0  0  0.293737  0  4.107404  0  0  0.300838  0  4.126016  0  0  0.09485  0.288144  0  4.095254  0
C  C52  1  0.70960745  0.15009468  0.09482571  1  0  6.2e-05  0  3.649089  0  0  -0.043189  0  3.9093  0  0  -0.039103  0  3.92558  0  0  0.03362  -0.045599  0  3.898337  0
C  C53  1  0.79039403  0.65009586  0.40517525  1  0  9.3e-05  0  3.649139  0  0  -0.043165  0  3.909363  0  0  -0.039078  0  3.925644  0  0  0.033632  -0.045579  0  3.898403  0
C  C54  1  0.29039479  0.84990625  0.90517411  1  0  1.7e-05  0  3.649174  0  0  -0.043254  0  3.909377  0  0  -0.039168  0  3.925657  0  0  0.033547  -0.045664  0  3.898416  0
C  C55  1  0.20960387  0.34990791  0.59482770  1  0  -5e-05  0  3.649127  0  0  -0.043303  0  3.90928  0  0  -0.039224  0  3.925566  0  0  0.033563  -0.045715  0  3.898325  0
C  C56  1  0.47620498  0.20749741  0.99488481  1  0  0.097621  0  3.671412  0  0  0.048906  0  3.927856  0  0  0.057242  0  3.943754  0  0  0.039555  0.043511  0  3.917057  0
C  C57  1  0.02379609  0.70749979  0.50511666  1  0  0.097572  0  3.671341  0  0  0.048916  0  3.927759  0  0  0.057252  0  3.943657  0  0  0.039566  0.043516  0  3.916967  0
C  C58  1  0.52379617  0.79250161  0.00511560  1  0  0.097608  0  3.671359  0  0  0.0489  0  3.927791  0  0  0.057235  0  3.943691  0  0  0.039566  0.043509  0  3.91699  0
C  C59  1  0.97620181  0.29250208  0.49488472  1  0  0.097596  0  3.671346  0  0  0.048886  0  3.927773  0  0  0.057222  0  3.94367  0  0  0.039563  0.043494  0  3.916965  0
C  C60  1  0.11076939  0.03642528  0.30084550  1  0  0.657937  0  3.910966  0  0  0.60855  0  4.198649  0  0  0.64242  0  4.192302  0  0  0.212643  0.585621  0  4.202227  0
C  C61  1  0.38922950  0.53642344  0.19915479  1  0  0.657994  0  3.911087  0  0  0.608599  0  4.198778  0  0  0.642468  0  4.192432  0  0  0.212641  0.585666  0  4.202365  0
C  C62  1  0.88923177  0.96357470  0.69915491  1  0  0.657974  0  3.911077  0  0  0.608556  0  4.198797  0  0  0.642426  0  4.192451  0  0  0.212674  0.585633  0  4.202372  0
C  C63  1  0.61076948  0.46357558  0.80084521  1  0  0.657972  0  3.91102  0  0  0.608578  0  4.198701  0  0  0.642447  0  4.192355  0  0  0.212677  0.585654  0  4.202276  0
C  C64  1  0.24908531  0.10838890  0.34809697  1  0  -0.079308  0  3.768733  0  0  -0.054509  0  4.008801  0  0  -0.064971  0  4.032678  0  0  -0.013493  -0.048043  0  3.992792  0
C  C65  1  0.25091455  0.60838913  0.15190272  1  0  -0.07927  0  3.768714  0  0  -0.054459  0  4.008769  0  0  -0.064922  0  4.032649  0  0  -0.013491  -0.047999  0  3.992768  0
C  C66  1  0.75091584  0.89161012  0.65190186  1  0  -0.079329  0  3.768697  0  0  -0.054504  0  4.008764  0  0  -0.064966  0  4.032641  0  0  -0.013494  -0.048045  0  3.992762  0
C  C67  1  0.74908443  0.39161084  0.84809807  1  0  -0.079274  0  3.768744  0  0  -0.054484  0  4.008801  0  0  -0.064946  0  4.032679  0  0  -0.013496  -0.048024  0  3.992794  0
C  C68  1  0.32107896  0.09961727  0.45893859  1  0  -0.150158  0  3.668904  0  0  -0.189574  0  3.921412  0  0  -0.188344  0  3.938609  0  0  -0.07787  -0.189723  0  3.909681  0
C  C69  1  0.17892200  0.59961756  0.04106130  1  0  -0.15024  0  3.668855  0  0  -0.189668  0  3.921355  0  0  -0.188441  0  3.938556  0  0  -0.077936  -0.189816  0  3.909624  0
C  C70  1  0.67892329  0.90037986  0.54106123  1  0  -0.150148  0  3.668935  0  0  -0.189574  0  3.921417  0  0  -0.188344  0  3.938615  0  0  -0.077885  -0.189717  0  3.909676  0
C  C71  1  0.82107697  0.40038051  0.95893869  1  0  -0.15025  0  3.668891  0  0  -0.18963  0  3.921384  0  0  -0.188403  0  3.938585  0  0  -0.077903  -0.189776  0  3.909652  0
C  C72  1  0.45578841  0.16087532  0.49697373  1  0  0.295144  0  3.840181  0  0  0.29381  0  4.101674  0  0  0.300709  0  4.119436  0  0  0.091721  0.288333  0  4.090029  0
C  C73  1  0.04421135  0.66087483  0.00302516  1  0  0.295115  0  3.840149  0  0  0.293819  0  4.101581  0  0  0.300716  0  4.11935  0  0  0.091749  0.288344  0  4.089931  0
C  C74  1  0.54421274  0.83912276  0.50302589  1  0  0.295106  0  3.840304  0  0  0.293817  0  4.101744  0  0  0.300715  0  4.119507  0  0  0.091733  0.288335  0  4.090102  0
C  C75  1  0.95578762  0.33912420  0.99697484  1  0  0.295183  0  3.840035  0  0  0.293803  0  4.101555  0  0  0.300701  0  4.119323  0  0  0.091738  0.288321  0  4.089916  0
C  C76  1  0.51388314  0.22502821  0.42060188  1  0  0.036783  0  3.607356  0  0  -0.004103  0  3.8568  0  0  0.002336  0  3.869593  0  0  0.040566  -0.008353  0  3.848485  0
C  C77  1  0.98611603  0.72502718  0.07939787  1  0  0.036795  0  3.607395  0  0  -0.004073  0  3.856808  0  0  0.002364  0  3.869604  0  0  0.040577  -0.008315  0  3.848495  0
C  C78  1  0.48611801  0.77497081  0.57939853  1  0  0.036854  0  3.607355  0  0  -0.004108  0  3.856825  0  0  0.002329  0  3.869621  0  0  0.040609  -0.008358  0  3.848519  0
C  C79  1  0.01388295  0.27497090  0.92060292  1  0  0.036788  0  3.607314  0  0  -0.004104  0  3.856801  0  0  0.002333  0  3.869595  0  0  0.040564  -0.008349  0  3.848489  0
C  C80  1  0.31187843  0.17752883  0.27760344  1  0  0.082618  0  3.676386  0  0  0.033573  0  3.938728  0  0  0.042026  0  3.953773  0  0  0.034538  0.028095  0  3.92855  0
C  C81  1  0.18812131  0.67752820  0.22239624  1  0  0.082627  0  3.676504  0  0  0.033578  0  3.938833  0  0  0.04203  0  3.953878  0  0  0.034562  0.028101  0  3.928659  0
C  C82  1  0.68812163  0.82247209  0.72239677  1  0  0.08272  0  3.676324  0  0  0.033635  0  3.938683  0  0  0.042088  0  3.953727  0  0  0.03457  0.028157  0  3.928507  0
C  C83  1  0.81187875  0.32247272  0.77760317  1  0  0.082652  0  3.67646  0  0  0.033611  0  3.938766  0  0  0.042064  0  3.953812  0  0  0.034578  0.028141  0  3.928585  0
N  N84  1  0.58390014  0.21291258  0.08737249  1  0  -0.312137  0  3.38082  0  0  -0.223308  0  3.669548  0  0  -0.241675  0  3.684446  0  0  -0.335101  -0.210943  0  3.659269  0
N  N85  1  0.91609906  0.71291265  0.41262805  1  0  -0.312184  0  3.380788  0  0  -0.223355  0  3.669498  0  0  -0.241722  0  3.684394  0  0  -0.335133  -0.21099  0  3.659222  0
N  N86  1  0.41609992  0.78708645  0.91262692  1  0  -0.31213  0  3.380795  0  0  -0.22331  0  3.669515  0  0  -0.241676  0  3.684413  0  0  -0.335094  -0.210947  0  3.659241  0
N  N87  1  0.08389992  0.28708827  0.58737432  1  0  -0.312149  0  3.38075  0  0  -0.223319  0  3.669459  0  0  -0.241686  0  3.68436  0  0  -0.335119  -0.210951  0  3.659178  0
N  N88  1  0.44388499  0.23225532  0.31396483  1  0  -0.313662  0  3.348575  0  0  -0.226201  0  3.633007  0  0  -0.244833  0  3.647726  0  0  -0.332051  -0.213433  0  3.622776  0
N  N89  1  0.05611466  0.73225485  0.18603484  1  0  -0.313658  0  3.348643  0  0  -0.226186  0  3.633053  0  0  -0.244815  0  3.647769  0  0  -0.332047  -0.213419  0  3.622825  0
N  N90  1  0.55611616  0.76774371  0.68603479  1  0  -0.313725  0  3.348564  0  0  -0.226213  0  3.633  0  0  -0.244844  0  3.647717  0  0  -0.33208  -0.213447  0  3.622776  0
N  N91  1  0.94388432  0.26774418  0.81396595  1  0  -0.313679  0  3.348604  0  0  -0.226174  0  3.632987  0  0  -0.244808  0  3.647708  0  0  -0.332045  -0.213406  0  3.622755  0
O  O92  1  0.24323893  0.17059750  0.82076562  1  0  -0.645765  0  2.122854  0  0  -0.568142  0  2.407916  0  0  -0.597163  0  2.391482  0  0  -0.319254  -0.547956  0  2.4186  0
O  O93  1  0.25676002  0.67059772  0.67923543  1  0  -0.645767  0  2.122985  0  0  -0.568124  0  2.408014  0  0  -0.59714  0  2.391577  0  0  -0.319232  -0.547943  0  2.418704  0
O  O94  1  0.75676222  0.82940437  0.17923321  1  0  -0.645774  0  2.122891  0  0  -0.568135  0  2.407935  0  0  -0.597153  0  2.391498  0  0  -0.319271  -0.547955  0  2.418622  0
O  O95  1  0.74323896  0.32940320  0.32076535  1  0  -0.645761  0  2.122899  0  0  -0.56812  0  2.407942  0  0  -0.597138  0  2.391507  0  0  -0.319252  -0.547933  0  2.418621  0
O  O96  1  0.37531321  0.07003715  0.72107519  1  0  -0.615524  0  1.97986  0  0  -0.567118  0  2.204325  0  0  -0.589216  0  2.193616  0  0  -0.314244  -0.551901  0  2.211068  0
O  O97  1  0.12468590  0.57003662  0.77892588  1  0  -0.615532  0  1.979888  0  0  -0.567134  0  2.204356  0  0  -0.589232  0  2.193646  0  0  -0.314265  -0.551919  0  2.2111  0
O  O98  1  0.62468685  0.92996282  0.27892502  1  0  -0.615566  0  1.979704  0  0  -0.567165  0  2.204179  0  0  -0.589262  0  2.193474  0  0  -0.314278  -0.55195  0  2.210918  0
O  O99  1  0.87531527  0.42996430  0.22107690  1  0  -0.615494  0  1.979851  0  0  -0.567092  0  2.204324  0  0  -0.589189  0  2.193618  0  0  -0.314252  -0.551881  0  2.21107  0
O  O100  1  0.85837780  0.01774260  0.01195154  1  0  -0.499887  0  2.153542  0  0  -0.44951  0  2.370714  0  0  -0.470207  0  2.365339  0  0  -0.337438  -0.434759  0  2.37436  0
O  O101  1  0.64162280  0.51774209  0.48804845  1  0  -0.499905  0  2.153464  0  0  -0.449525  0  2.370643  0  0  -0.470222  0  2.365264  0  0  -0.337446  -0.434776  0  2.374281  0
O  O102  1  0.14162444  0.98225832  0.98804908  1  0  -0.49976  0  2.153569  0  0  -0.449429  0  2.370682  0  0  -0.470129  0  2.365306  0  0  -0.337403  -0.434694  0  2.374354  0
O  O103  1  0.35837400  0.48225978  0.51195351  1  0  -0.499869  0  2.153557  0  0  -0.449525  0  2.370719  0  0  -0.470225  0  2.365341  0  0  -0.337423  -0.434772  0  2.37436  0
O  O104  1  0.07760418  0.95110428  0.36374564  1  0  -0.637512  0  2.035934  0  0  -0.561534  0  2.302533  0  0  -0.590618  0  2.286545  0  0  -0.329639  -0.541065  0  2.312653  0
O  O105  1  0.42239620  0.45110474  0.13625262  1  0  -0.637554  0  2.035991  0  0  -0.561581  0  2.302595  0  0  -0.590666  0  2.286608  0  0  -0.329667  -0.541111  0  2.312719  0
O  O106  1  0.92239806  0.04889380  0.63625261  1  0  -0.637513  0  2.035971  0  0  -0.561524  0  2.302584  0  0  -0.590611  0  2.286599  0  0  -0.329671  -0.541057  0  2.312704  0
O  O107  1  0.57760168  0.54889429  0.86374638  1  0  -0.637532  0  2.035946  0  0  -0.561546  0  2.302541  0  0  -0.59063  0  2.286556  0  0  -0.329673  -0.541079  0  2.312661  0
O  O108  1  0.03998789  0.05954304  0.20457030  1  0  -0.623047  0  2.010605  0  0  -0.575233  0  2.244526  0  0  -0.597972  0  2.234152  0  0  -0.309224  -0.55944  0  2.251291  0
O  O109  1  0.46000877  0.55953829  0.29542957  1  0  -0.623042  0  2.010679  0  0  -0.57523  0  2.244612  0  0  -0.597966  0  2.234236  0  0  -0.309181  -0.559433  0  2.251377  0
O  O110  1  0.96000999  0.94046073  0.79543028  1  0  -0.623052  0  2.010702  0  0  -0.57525  0  2.244639  0  0  -0.597988  0  2.234263  0  0  -0.309226  -0.559458  0  2.251406  0
O  O111  1  0.53999020  0.44045979  0.70456964  1  0  -0.623071  0  2.010657  0  0  -0.575257  0  2.244589  0  0  -0.597993  0  2.234213  0  0  -0.309231  -0.559464  0  2.251355  0
O  O112  1  0.53570241  0.16011533  0.60125566  1  0  -0.512791  0  2.132666  0  0  -0.466576  0  2.344614  0  0  -0.488256  0  2.338156  0  0  -0.347635  -0.451032  0  2.34721  0
O  O113  1  0.96429824  0.66011629  0.89874352  1  0  -0.512764  0  2.13265  0  0  -0.466572  0  2.34458  0  0  -0.488247  0  2.338118  0  0  -0.347645  -0.451026  0  2.347171  0
O  O114  1  0.46429983  0.83988085  0.39874417  1  0  -0.512879  0  2.132777  0  0  -0.466638  0  2.344668  0  0  -0.488325  0  2.338235  0  0  -0.34769  -0.451095  0  2.347257  0
O  O115  1  0.03570074  0.33988274  0.10125648  1  0  -0.512843  0  2.132699  0  0  -0.466584  0  2.34464  0  0  -0.488255  0  2.338179  0  0  -0.347646  -0.451038  0  2.347233  0
