# generated using pymatgen
data_AgH17C10S(NO2)2
_symmetry_space_group_name_H-M   'P 1'
_cell_length_a   6.76269683
_cell_length_b   10.12129469
_cell_length_c   19.11791084
_cell_angle_alpha   89.99976763
_cell_angle_beta   94.19276730
_cell_angle_gamma   89.99894358
_symmetry_Int_Tables_number   1
_chemical_formula_structural   AgH17C10S(NO2)2
_chemical_formula_sum   'Ag4 H68 C40 S4 N8 O16'
_cell_volume   1305.06627308
_cell_formula_units_Z   4
loop_
 _symmetry_equiv_pos_site_id
 _symmetry_equiv_pos_as_xyz
  1  'x, y, z'
loop_
 _atom_site_type_symbol
 _atom_site_label
 _atom_site_symmetry_multiplicity
 _atom_site_fract_x
 _atom_site_fract_y
 _atom_site_fract_z
 _atom_site_occupancy
 _atom_site_hle17_bader_spin_density
 _atom_site_hle17_ddec_charge
 _atom_site_hle17_ddec_spin_density
 _atom_site_hle17_ddec_sum_bond_order
 _atom_site_hle17_magmom
 _atom_site_hse06_10hf_bader_spin_density
 _atom_site_hse06_10hf_ddec_charge
 _atom_site_hse06_10hf_ddec_spin_density
 _atom_site_hse06_10hf_ddec_sum_bond_order
 _atom_site_hse06_10hf_magmom
 _atom_site_hse06_bader_spin_density
 _atom_site_hse06_ddec_charge
 _atom_site_hse06_ddec_spin_density
 _atom_site_hse06_ddec_sum_bond_order
 _atom_site_hse06_magmom
 _atom_site_pbe_bader_spin_density
 _atom_site_pbe_cm5_charge
 _atom_site_pbe_ddec_charge
 _atom_site_pbe_ddec_spin_density
 _atom_site_pbe_ddec_sum_bond_order
 _atom_site_pbe_magmom
Ag  Ag0  1  0.83313490  0.86780348  0.73476853  1  0  0.436036  0  1.590048  0  0  0.317585  0  2.045123  0  0  0.344677  0  1.998407  0  0  0.402679  0.299503  0  2.076881  0
Ag  Ag1  1  0.66686615  0.36779803  0.26522902  1  0  0.436024  0  1.590135  0  0  0.31759  0  2.04515  0  0  0.344675  0  1.998477  0  0  0.402689  0.29948  0  2.076938  0
Ag  Ag2  1  0.16685262  0.13219261  0.26523467  1  0  0.436023  0  1.590068  0  0  0.317534  0  2.045109  0  0  0.344624  0  1.998424  0  0  0.402638  0.299424  0  2.076888  0
Ag  Ag3  1  0.33315239  0.63218818  0.73476499  1  0  0.436046  0  1.590055  0  0  0.317574  0  2.04509  0  0  0.344659  0  1.998406  0  0  0.402714  0.299523  0  2.076841  0
H  H4  1  0.78021210  0.73504551  0.87755693  1  0  0.054659  0  0.961604  0  0  0.063684  0  1.044667  0  0  0.065413  0  1.042858  0  0  0.078862  0.062407  0  1.046037  0
H  H5  1  0.71981840  0.23504748  0.12245366  1  0  0.054656  0  0.961712  0  0  0.063714  0  1.044775  0  0  0.06544  0  1.042973  0  0  0.078876  0.062441  0  1.046138  0
H  H6  1  0.21982141  0.26495750  0.12245000  1  0  0.05471  0  0.961734  0  0  0.063728  0  1.044781  0  0  0.065456  0  1.042981  0  0  0.078875  0.062457  0  1.046143  0
H  H7  1  0.28019586  0.76495256  0.87755437  1  0  0.054666  0  0.961761  0  0  0.063708  0  1.044805  0  0  0.065436  0  1.042998  0  0  0.078847  0.062435  0  1.046171  0
H  H8  1  0.98589167  0.63481993  0.90588982  1  0  0.067273  0  0.936669  0  0  0.088362  0  0.995337  0  0  0.088985  0  0.996112  0  0  0.088399  0.087909  0  0.994749  0
H  H9  1  0.51412402  0.13485305  0.09411121  1  0  0.06734  0  0.936572  0  0  0.08845  0  0.995261  0  0  0.089074  0  0.996032  0  0  0.088408  0.08799  0  0.99468  0
H  H10  1  0.01413140  0.36516332  0.09411162  1  0  0.067394  0  0.936691  0  0  0.08847  0  0.995363  0  0  0.089097  0  0.996135  0  0  0.088442  0.088014  0  0.994781  0
H  H11  1  0.48587975  0.86516280  0.90588767  1  0  0.067366  0  0.93674  0  0  0.088466  0  0.995403  0  0  0.089091  0  0.996173  0  0  0.088441  0.088012  0  0.994815  0
H  H12  1  0.72303573  0.61818683  0.99035294  1  0  0.061116  0  0.939026  0  0  0.081318  0  0.998113  0  0  0.081926  0  0.998765  0  0  0.088249  0.08081  0  0.997729  0
H  H13  1  0.77698645  0.11820384  0.00965194  1  0  0.061196  0  0.938873  0  0  0.081386  0  0.998013  0  0  0.081988  0  0.998668  0  0  0.088306  0.080858  0  0.997634  0
H  H14  1  0.27698441  0.38180531  0.00965157  1  0  0.061195  0  0.938906  0  0  0.081351  0  0.998066  0  0  0.081949  0  0.998722  0  0  0.088275  0.080833  0  0.997693  0
H  H15  1  0.22302776  0.88180904  0.99035190  1  0  0.061158  0  0.938994  0  0  0.081366  0  0.998087  0  0  0.081969  0  0.998744  0  0  0.088288  0.080864  0  0.9977  0
H  H16  1  0.54760429  0.57073070  0.92197045  1  0  0.056747  0  0.934982  0  0  0.07878  0  0.994162  0  0  0.079447  0  0.994172  0  0  0.086485  0.078367  0  0.993983  0
H  H17  1  0.95240156  0.07071955  0.07803415  1  0  0.056764  0  0.934892  0  0  0.078835  0  0.994068  0  0  0.0795  0  0.994079  0  0  0.086485  0.078427  0  0.99389  0
H  H18  1  0.45240691  0.42928120  0.07802966  1  0  0.056784  0  0.934887  0  0  0.078799  0  0.994118  0  0  0.079461  0  0.994128  0  0  0.086493  0.078391  0  0.993941  0
H  H19  1  0.04760374  0.92927851  0.92196895  1  0  0.056722  0  0.934893  0  0  0.078752  0  0.994109  0  0  0.079416  0  0.994118  0  0  0.086437  0.078343  0  0.993935  0
H  H20  1  0.91707775  0.41280892  0.97387233  1  0  0.054081  0  0.957182  0  0  0.076104  0  1.017967  0  0  0.076133  0  1.019279  0  0  0.084673  0.075956  0  1.017187  0
H  H21  1  0.58290999  0.91283936  0.02612060  1  0  0.053953  0  0.95737  0  0  0.076083  0  1.017961  0  0  0.076126  0  1.019254  0  0  0.08462  0.075908  0  1.017215  0
H  H22  1  0.08290371  0.58717136  0.02611972  1  0  0.05396  0  0.957249  0  0  0.076068  0  1.017883  0  0  0.076099  0  1.019188  0  0  0.084589  0.075895  0  1.017134  0
H  H23  1  0.41708633  0.08718044  0.97387495  1  0  0.053988  0  0.957213  0  0  0.076062  0  1.017921  0  0  0.076107  0  1.019211  0  0  0.084638  0.075902  0  1.017154  0
H  H24  1  0.66872589  0.37156849  0.98726200  1  0  0.056808  0  0.951296  0  0  0.076805  0  1.013076  0  0  0.077139  0  1.013932  0  0  0.084914  0.076457  0  1.012564  0
H  H25  1  0.83126462  0.87157652  0.01273162  1  0  0.056786  0  0.9513  0  0  0.076688  0  1.01317  0  0  0.077017  0  1.014034  0  0  0.084864  0.076341  0  1.012652  0
H  H26  1  0.33125709  0.62842760  0.01273271  1  0  0.056813  0  0.951337  0  0  0.076716  0  1.013199  0  0  0.077044  0  1.014063  0  0  0.084869  0.076351  0  1.0127  0
H  H27  1  0.16872575  0.12843143  0.98726170  1  0  0.056797  0  0.951315  0  0  0.076776  0  1.013091  0  0  0.077109  0  1.013952  0  0  0.084887  0.076419  0  1.01258  0
H  H28  1  0.59530588  0.34145566  0.85834296  1  0  0.073374  0  0.947876  0  0  0.093003  0  1.006548  0  0  0.093688  0  1.00739  0  0  0.090405  0.09244  0  1.006089  0
H  H29  1  0.90466931  0.84143619  0.14165559  1  0  0.073484  0  0.947807  0  0  0.093143  0  1.006485  0  0  0.093827  0  1.007337  0  0  0.09045  0.092589  0  1.006017  0
H  H30  1  0.40467416  0.65855822  0.14165377  1  0  0.073495  0  0.947751  0  0  0.093171  0  1.006429  0  0  0.093855  0  1.007282  0  0  0.090434  0.092603  0  1.005964  0
H  H31  1  0.09531072  0.15855595  0.85834114  1  0  0.073364  0  0.947854  0  0  0.093025  0  1.006539  0  0  0.093716  0  1.007377  0  0  0.090368  0.092459  0  1.006085  0
H  H32  1  0.79909774  0.24188020  0.88737929  1  0  0.062895  0  0.943691  0  0  0.080995  0  1.005487  0  0  0.082072  0  1.005011  0  0  0.087676  0.080179  0  1.005855  0
H  H33  1  0.70085072  0.74188397  0.11260522  1  0  0.062863  0  0.943646  0  0  0.081  0  1.005469  0  0  0.082082  0  1.004986  0  0  0.087692  0.080181  0  1.005836  0
H  H34  1  0.20085104  0.75811886  0.11260674  1  0  0.062867  0  0.943708  0  0  0.081039  0  1.005499  0  0  0.082121  0  1.005016  0  0  0.08771  0.080215  0  1.005864  0
H  H35  1  0.29912031  0.25811904  0.88738240  1  0  0.062799  0  0.943716  0  0  0.080939  0  1.005518  0  0  0.082019  0  1.005044  0  0  0.087641  0.080126  0  1.005883  0
H  H36  1  0.85881603  0.35756213  0.77676488  1  0  0.095369  0  0.95507  0  0  0.103849  0  1.025053  0  0  0.106734  0  1.023238  0  0  0.092718  0.10145  0  1.026798  0
H  H37  1  0.64112297  0.85755386  0.22322333  1  0  0.09549  0  0.955139  0  0  0.103914  0  1.025155  0  0  0.106797  0  1.023341  0  0  0.092703  0.101536  0  1.026882  0
H  H38  1  0.14113575  0.64244680  0.22322436  1  0  0.095484  0  0.955167  0  0  0.103921  0  1.025154  0  0  0.1068  0  1.023348  0  0  0.092697  0.101532  0  1.026869  0
H  H39  1  0.35883625  0.14243531  0.77676766  1  0  0.095416  0  0.95499  0  0  0.103834  0  1.025021  0  0  0.106722  0  1.023201  0  0  0.092626  0.101437  0  1.026768  0
H  H40  1  0.03335458  0.40964971  0.84436022  1  0  0.069344  0  0.935959  0  0  0.085744  0  1.001971  0  0  0.086734  0  1.00191  0  0  0.087349  0.085146  0  1.001785  0
H  H41  1  0.46661799  0.90967194  0.15562548  1  0  0.069218  0  0.936257  0  0  0.085631  0  1.002255  0  0  0.086612  0  1.002204  0  0  0.08725  0.085027  0  1.002066  0
H  H42  1  0.96661203  0.59033748  0.15562886  1  0  0.069184  0  0.936291  0  0  0.085591  0  1.002294  0  0  0.08657  0  1.002247  0  0  0.087245  0.084986  0  1.002113  0
H  H43  1  0.53336641  0.09033206  0.84436404  1  0  0.069288  0  0.936002  0  0  0.085644  0  1.002054  0  0  0.086635  0  1.002002  0  0  0.087302  0.085046  0  1.001865  0
H  H44  1  0.65368492  0.55914314  0.79513486  1  0  0.045293  0  0.976908  0  0  0.0552  0  1.05781  0  0  0.057351  0  1.054326  0  0  0.082224  0.053533  0  1.060371  0
H  H45  1  0.84629903  0.05911245  0.20486713  1  0  0.045177  0  0.976934  0  0  0.055077  0  1.057825  0  0  0.057242  0  1.054327  0  0  0.082204  0.053435  0  1.060393  0
H  H46  1  0.34630704  0.44088160  0.20486739  1  0  0.045133  0  0.976917  0  0  0.055054  0  1.057763  0  0  0.057217  0  1.054268  0  0  0.082175  0.05341  0  1.060329  0
H  H47  1  0.15369291  0.94086685  0.79513355  1  0  0.045146  0  0.976986  0  0  0.055108  0  1.057841  0  0  0.057263  0  1.054358  0  0  0.082223  0.053447  0  1.060398  0
H  H48  1  0.91088242  0.45693291  0.67716987  1  0  0.146796  0  0.951031  0  0  0.157051  0  1.012363  0  0  0.160202  0  1.010679  0  0  0.114409  0.155155  0  1.012981  0
H  H49  1  0.58911892  0.95692643  0.32283481  1  0  0.146762  0  0.951028  0  0  0.157015  0  1.012383  0  0  0.160165  0  1.010708  0  0  0.114377  0.155133  0  1.012988  0
H  H50  1  0.08910960  0.54307010  0.32283762  1  0  0.146809  0  0.95104  0  0  0.157055  0  1.012404  0  0  0.160207  0  1.01073  0  0  0.114413  0.155177  0  1.01301  0
H  H51  1  0.41088488  0.04307164  0.67716668  1  0  0.14679  0  0.951066  0  0  0.157022  0  1.012387  0  0  0.160171  0  1.010719  0  0  0.114366  0.155133  0  1.013001  0
H  H52  1  0.70214308  0.56625411  0.66648344  1  0  0.14464  0  0.943468  0  0  0.152248  0  1.014478  0  0  0.15608  0  1.011269  0  0  0.109869  0.149332  0  1.016944  0
H  H53  1  0.79787921  0.06625163  0.33352052  1  0  0.144635  0  0.94342  0  0  0.15226  0  1.014422  0  0  0.156092  0  1.011218  0  0  0.109853  0.149354  0  1.016879  0
H  H54  1  0.29787409  0.43374889  0.33351996  1  0  0.144643  0  0.94341  0  0  0.152287  0  1.014383  0  0  0.15612  0  1.011179  0  0  0.109873  0.149396  0  1.016825  0
H  H55  1  0.20213050  0.93374347  0.66647902  1  0  0.144698  0  0.943419  0  0  0.152289  0  1.014413  0  0  0.156119  0  1.011213  0  0  0.109879  0.149383  0  1.016867  0
H  H56  1  0.09682640  0.73282372  0.50911423  1  0  0.100228  0  0.929439  0  0  0.114673  0  0.987685  0  0  0.116184  0  0.986796  0  0  0.118555  0.113496  0  0.988487  0
H  H57  1  0.40318593  0.23281788  0.49088957  1  0  0.10003  0  0.929685  0  0  0.114546  0  0.987841  0  0  0.116058  0  0.98695  0  0  0.118512  0.113365  0  0.988644  0
H  H58  1  0.90319233  0.26719311  0.49089600  1  0  0.100009  0  0.929573  0  0  0.114457  0  0.987813  0  0  0.115967  0  0.986923  0  0  0.11846  0.113284  0  0.988618  0
H  H59  1  0.59681634  0.76718118  0.50910771  1  0  0.100187  0  0.929515  0  0  0.114614  0  0.987766  0  0  0.116128  0  0.986873  0  0  0.118507  0.113426  0  0.988568  0
H  H60  1  0.91743360  0.66203795  0.44640246  1  0  0.082005  0  0.932097  0  0  0.089741  0  1.006895  0  0  0.090783  0  1.005951  0  0  0.107599  0.089012  0  1.007477  0
H  H61  1  0.58257538  0.16203420  0.55360410  1  0  0.082039  0  0.931868  0  0  0.089757  0  1.006672  0  0  0.090798  0  1.00573  0  0  0.107599  0.08901  0  1.007271  0
H  H62  1  0.08257922  0.33797593  0.55361024  1  0  0.082069  0  0.931928  0  0  0.089833  0  1.006666  0  0  0.090874  0  1.005724  0  0  0.107618  0.089092  0  1.007255  0
H  H63  1  0.41743136  0.83797375  0.44639538  1  0  0.082102  0  0.931861  0  0  0.08984  0  1.00661  0  0  0.090883  0  1.005667  0  0  0.10764  0.089107  0  1.007192  0
H  H64  1  0.74632032  0.42181815  0.57604851  1  0  0.093614  0  0.942749  0  0  0.108507  0  1.006617  0  0  0.108745  0  1.006948  0  0  0.116528  0.108311  0  1.00634  0
H  H65  1  0.75368804  0.92180610  0.42395694  1  0  0.09369  0  0.94271  0  0  0.108516  0  1.006583  0  0  0.108754  0  1.006913  0  0  0.116535  0.108331  0  1.006296  0
H  H66  1  0.25367165  0.57819573  0.42395479  1  0  0.093682  0  0.942707  0  0  0.108516  0  1.006587  0  0  0.108754  0  1.006917  0  0  0.116538  0.108335  0  1.006301  0
H  H67  1  0.24632467  0.07819591  0.57604582  1  0  0.09372  0  0.942766  0  0  0.108533  0  1.006609  0  0  0.108771  0  1.006941  0  0  0.116517  0.108333  0  1.006339  0
H  H68  1  0.70856208  0.47612104  0.48753668  1  0  0.092102  0  0.915698  0  0  0.106868  0  0.976161  0  0  0.108201  0  0.974998  0  0  0.113465  0.105862  0  0.977106  0
H  H69  1  0.79144904  0.97610098  0.51246819  1  0  0.092083  0  0.915775  0  0  0.106831  0  0.976172  0  0  0.108161  0  0.975011  0  0  0.113415  0.105808  0  0.977131  0
H  H70  1  0.29145804  0.52389679  0.51246626  1  0  0.092105  0  0.915694  0  0  0.106872  0  0.976072  0  0  0.108202  0  0.974914  0  0  0.113439  0.105861  0  0.977024  0
H  H71  1  0.20855917  0.02389906  0.48753027  1  0  0.092145  0  0.915709  0  0  0.106864  0  0.976089  0  0  0.108195  0  0.974928  0  0  0.11343  0.105858  0  0.977037  0
C  C72  1  0.82844072  0.63194575  0.88614679  1  0  -0.139815  0  3.691227  0  0  -0.182223  0  3.948041  0  0  -0.184292  0  3.964049  0  0  -0.16945  -0.180563  0  3.936918  0
C  C73  1  0.67157364  0.13195524  0.11385945  1  0  -0.139873  0  3.691141  0  0  -0.182455  0  3.948315  0  0  -0.184525  0  3.964326  0  0  -0.16947  -0.180783  0  3.937215  0
C  C74  1  0.17157648  0.36805034  0.11385922  1  0  -0.140164  0  3.691713  0  0  -0.182603  0  3.948663  0  0  -0.184648  0  3.964597  0  0  -0.169511  -0.180925  0  3.937567  0
C  C75  1  0.32843312  0.86804678  0.88614160  1  0  -0.139974  0  3.691541  0  0  -0.182477  0  3.948565  0  0  -0.184541  0  3.964563  0  0  -0.169461  -0.180818  0  3.93745  0
C  C76  1  0.70591425  0.56434519  0.94022226  1  0  -0.096966  0  3.682971  0  0  -0.1361  0  3.944104  0  0  -0.137136  0  3.959277  0  0  -0.164134  -0.135203  0  3.933502  0
C  C77  1  0.79409178  0.06435076  0.05978078  1  0  -0.097003  0  3.682522  0  0  -0.136277  0  3.94391  0  0  -0.137302  0  3.959063  0  0  -0.164236  -0.135399  0  3.933353  0
C  C78  1  0.29409402  0.43565090  0.05978143  1  0  -0.096916  0  3.682744  0  0  -0.136127  0  3.943974  0  0  -0.13714  0  3.959121  0  0  -0.164184  -0.13525  0  3.933417  0
C  C79  1  0.20591498  0.93565224  0.94021974  1  0  -0.096901  0  3.682654  0  0  -0.136098  0  3.943921  0  0  -0.137124  0  3.959078  0  0  -0.16413  -0.135218  0  3.933341  0
C  C80  1  0.76377580  0.41882392  0.95016062  1  0  -0.112754  0  3.700214  0  0  -0.154601  0  3.962549  0  0  -0.155453  0  3.97775  0  0  -0.170807  -0.153819  0  3.952097  0
C  C81  1  0.73621772  0.91883074  0.04983453  1  0  -0.112709  0  3.700281  0  0  -0.154368  0  3.962467  0  0  -0.155226  0  3.97767  0  0  -0.170705  -0.153589  0  3.952035  0
C  C82  1  0.23621459  0.58117316  0.04983374  1  0  -0.112774  0  3.700263  0  0  -0.154417  0  3.96245  0  0  -0.155268  0  3.977647  0  0  -0.1707  -0.15364  0  3.952027  0
C  C83  1  0.26377712  0.08117622  0.95016047  1  0  -0.112731  0  3.700076  0  0  -0.15449  0  3.962385  0  0  -0.155349  0  3.97759  0  0  -0.170762  -0.153689  0  3.951931  0
C  C84  1  0.75040372  0.34503331  0.88021076  1  0  -0.104579  0  3.671884  0  0  -0.142503  0  3.92936  0  0  -0.143733  0  3.944071  0  0  -0.167522  -0.141678  0  3.919318  0
C  C85  1  0.74956240  0.84503055  0.11978232  1  0  -0.104581  0  3.671869  0  0  -0.142675  0  3.929478  0  0  -0.143917  0  3.94421  0  0  -0.167521  -0.141827  0  3.919399  0
C  C86  1  0.24956145  0.65497069  0.11978247  1  0  -0.104591  0  3.671861  0  0  -0.142753  0  3.929546  0  0  -0.143997  0  3.944279  0  0  -0.16756  -0.141904  0  3.919463  0
C  C87  1  0.25042054  0.15496949  0.88020977  1  0  -0.104414  0  3.671687  0  0  -0.142471  0  3.929263  0  0  -0.143719  0  3.944008  0  0  -0.16737  -0.141638  0  3.91921  0
C  C88  1  0.87464624  0.41200153  0.82648792  1  0  -0.142141  0  3.654365  0  0  -0.182705  0  3.906997  0  0  -0.185108  0  3.921847  0  0  -0.170921  -0.180723  0  3.89687  0
C  C89  1  0.62531483  0.91199776  0.17350332  1  0  -0.142301  0  3.654671  0  0  -0.18285  0  3.907357  0  0  -0.185242  0  3.922208  0  0  -0.17084  -0.180839  0  3.897221  0
C  C90  1  0.12531300  0.58800345  0.17350464  1  0  -0.142297  0  3.654631  0  0  -0.182835  0  3.907335  0  0  -0.18523  0  3.92219  0  0  -0.170894  -0.180854  0  3.897206  0
C  C91  1  0.37465775  0.08799734  0.82648956  1  0  -0.142141  0  3.65425  0  0  -0.182628  0  3.906957  0  0  -0.185035  0  3.921816  0  0  -0.17083  -0.180648  0  3.896826  0
C  C92  1  0.80963807  0.55567425  0.81699846  1  0  0.01821  0  3.588247  0  0  0.021651  0  3.824939  0  0  0.021156  0  3.844505  0  0  -0.074299  0.022097  0  3.811495  0
C  C93  1  0.69034893  0.05566621  0.18300205  1  0  0.018589  0  3.587984  0  0  0.022205  0  3.824472  0  0  0.0217  0  3.844035  0  0  -0.074234  0.022575  0  3.811144  0
C  C94  1  0.19035386  0.44433468  0.18300170  1  0  0.018708  0  3.587989  0  0  0.022314  0  3.824389  0  0  0.021814  0  3.843957  0  0  -0.074191  0.02269  0  3.811055  0
C  C95  1  0.30964447  0.94432692  0.81699710  1  0  0.018441  0  3.588195  0  0  0.021926  0  3.824794  0  0  0.021421  0  3.844368  0  0  -0.07432  0.022368  0  3.811354  0
C  C96  1  0.86479463  0.56072721  0.67313702  1  0  -0.284938  0  3.583722  0  0  -0.325658  0  3.83616  0  0  -0.329583  0  3.841809  0  0  -0.148803  -0.323092  0  3.832171  0
C  C97  1  0.63522043  0.06072066  0.32686782  1  0  -0.284688  0  3.583392  0  0  -0.325478  0  3.835849  0  0  -0.329389  0  3.841472  0  0  -0.14878  -0.322928  0  3.831835  0
C  C98  1  0.13521811  0.43927777  0.32686835  1  0  -0.284693  0  3.58329  0  0  -0.325518  0  3.835852  0  0  -0.329413  0  3.841427  0  0  -0.14878  -0.322966  0  3.831833  0
C  C99  1  0.36478779  0.93927741  0.67313169  1  0  -0.284899  0  3.58363  0  0  -0.325553  0  3.835992  0  0  -0.329438  0  3.841541  0  0  -0.14876  -0.323025  0  3.832075  0
C  C100  1  0.95779973  0.63207649  0.61381308  1  0  0.550775  0  3.779364  0  0  0.505436  0  4.068969  0  0  0.535142  0  4.068969  0  0  0.235798  0.485486  0  4.068533  0
C  C101  1  0.54221165  0.13207447  0.38619256  1  0  0.550133  0  3.779609  0  0  0.504896  0  4.069098  0  0  0.534598  0  4.069117  0  0  0.235664  0.484961  0  4.068642  0
C  C102  1  0.04221900  0.36791762  0.38619715  1  0  0.550319  0  3.779553  0  0  0.505083  0  4.069032  0  0  0.534789  0  4.069053  0  0  0.235691  0.485122  0  4.068609  0
C  C103  1  0.45780695  0.86792261  0.61380668  1  0  0.550581  0  3.779301  0  0  0.505276  0  4.068843  0  0  0.534979  0  4.068867  0  0  0.23581  0.485322  0  4.068413  0
C  C104  1  0.02524652  0.64089030  0.49084160  1  0  -0.015654  0  3.607728  0  0  -0.077456  0  3.872529  0  0  -0.073242  0  3.88261  0  0  -0.058501  -0.080172  0  3.865699  0
C  C105  1  0.47476717  0.14088451  0.50916243  1  0  -0.015559  0  3.607625  0  0  -0.077462  0  3.872497  0  0  -0.073243  0  3.882572  0  0  -0.058522  -0.080177  0  3.865684  0
C  C106  1  0.97476776  0.35912258  0.50916852  1  0  -0.015677  0  3.607513  0  0  -0.077457  0  3.872401  0  0  -0.073237  0  3.882478  0  0  -0.058438  -0.080188  0  3.865588  0
C  C107  1  0.52524251  0.85911751  0.49083502  1  0  -0.015824  0  3.607708  0  0  -0.077598  0  3.872526  0  0  -0.073388  0  3.882604  0  0  -0.058523  -0.080313  0  3.865686  0
C  C108  1  0.82089915  0.45918368  0.53120661  1  0  -0.01642  0  3.603886  0  0  -0.079415  0  3.865506  0  0  -0.075554  0  3.877102  0  0  -0.05398  -0.081736  0  3.857347  0
C  C109  1  0.67910359  0.95917311  0.46879705  1  0  -0.016692  0  3.604265  0  0  -0.079428  0  3.865474  0  0  -0.075566  0  3.877078  0  0  -0.053902  -0.081754  0  3.857319  0
C  C110  1  0.17910618  0.54082822  0.46879911  1  0  -0.016614  0  3.60395  0  0  -0.079406  0  3.865297  0  0  -0.075546  0  3.876899  0  0  -0.053916  -0.081759  0  3.857174  0
C  C111  1  0.32089723  0.04082990  0.53120280  1  0  -0.016777  0  3.604037  0  0  -0.079379  0  3.865119  0  0  -0.075522  0  3.876722  0  0  -0.053867  -0.081717  0  3.856965  0
S  S112  1  0.95079716  0.64361306  0.75373898  1  0  0.006561  0  2.973875  0  0  0.047929  0  3.440485  0  0  0.040038  0  3.42757  0  0  -0.022695  0.052389  0  3.449818  0
S  S113  1  0.54921531  0.14360807  0.24626352  1  0  0.006338  0  2.973832  0  0  0.04771  0  3.440383  0  0  0.039817  0  3.427474  0  0  -0.022737  0.052208  0  3.449736  0
S  S114  1  0.04922298  0.35639193  0.24626553  1  0  0.00639  0  2.973758  0  0  0.047762  0  3.440327  0  0  0.039865  0  3.427417  0  0  -0.022716  0.052245  0  3.449685  0
S  S115  1  0.45077955  0.85638802  0.75373357  1  0  0.006446  0  2.973855  0  0  0.047802  0  3.440401  0  0  0.039907  0  3.427485  0  0  -0.022711  0.052278  0  3.449735  0
N  N116  1  0.91993758  0.58494464  0.54823980  1  0  -0.205912  0  3.37333  0  0  -0.124481  0  3.615878  0  0  -0.145457  0  3.637489  0  0  -0.276751  -0.110381  0  3.600987  0
N  N117  1  0.58007970  0.08494367  0.45176556  1  0  -0.205489  0  3.373096  0  0  -0.124156  0  3.615555  0  0  -0.145136  0  3.637175  0  0  -0.276701  -0.110069  0  3.600666  0
N  N118  1  0.08007369  0.41506034  0.45176606  1  0  -0.205695  0  3.373007  0  0  -0.124336  0  3.615467  0  0  -0.145315  0  3.637086  0  0  -0.276755  -0.110212  0  3.600574  0
N  N119  1  0.41993894  0.91505835  0.54823787  1  0  -0.205625  0  3.372997  0  0  -0.124369  0  3.615515  0  0  -0.145345  0  3.637132  0  0  -0.2768  -0.11026  0  3.600627  0
N  N120  1  0.87393873  0.12919735  0.68289027  1  0  0.688071  0  4.126472  0  0  0.715113  0  4.417329  0  0  0.743927  0  4.424739  0  0  0.091567  0.695593  0  4.41222  0
N  N121  1  0.62607718  0.62918754  0.31711445  1  0  0.68766  0  4.126463  0  0  0.714997  0  4.417045  0  0  0.743825  0  4.424436  0  0  0.091681  0.695517  0  4.411923  0
N  N122  1  0.12606649  0.87082146  0.31710499  1  0  0.687168  0  4.12668  0  0  0.715534  0  4.416143  0  0  0.744373  0  4.42352  0  0  0.091662  0.696019  0  4.411044  0
N  N123  1  0.37393413  0.37082139  0.68289560  1  0  0.687201  0  4.126811  0  0  0.715592  0  4.416242  0  0  0.744431  0  4.423617  0  0  0.091658  0.696057  0  4.411152  0
O  O124  1  0.06507253  0.73118730  0.62689054  1  0  -0.565421  0  1.986292  0  0  -0.514812  0  2.228636  0  0  -0.537894  0  2.220633  0  0  -0.30458  -0.499075  0  2.233576  0
O  O125  1  0.43493840  0.23119484  0.37311637  1  0  -0.565156  0  1.98631  0  0  -0.514611  0  2.228595  0  0  -0.537695  0  2.2206  0  0  -0.304467  -0.498881  0  2.23353  0
O  O126  1  0.93496697  0.26879002  0.37312125  1  0  -0.565255  0  1.986397  0  0  -0.514698  0  2.228673  0  0  -0.537784  0  2.220676  0  0  -0.304472  -0.49893  0  2.233605  0
O  O127  1  0.56507576  0.76879730  0.62688329  1  0  -0.565449  0  1.986299  0  0  -0.514828  0  2.228564  0  0  -0.537918  0  2.220572  0  0  -0.304565  -0.499079  0  2.2335  0
O  O128  1  0.87108945  0.10157911  0.74860038  1  0  -0.475532  0  1.771669  0  0  -0.439824  0  2.000071  0  0  -0.461211  0  1.992869  0  0  -0.208396  -0.425034  0  2.004736  0
O  O129  1  0.62891696  0.60156285  0.25140573  1  0  -0.475335  0  1.77167  0  0  -0.439704  0  1.999966  0  0  -0.461098  0  1.992768  0  0  -0.208395  -0.424928  0  2.00462  0
O  O130  1  0.12891881  0.89842390  0.25140123  1  0  -0.475018  0  1.77226  0  0  -0.439675  0  2.000186  0  0  -0.461071  0  1.992991  0  0  -0.208239  -0.424934  0  2.004863  0
O  O131  1  0.37107207  0.39842237  0.74859959  1  0  -0.475016  0  1.772205  0  0  -0.43966  0  2.000112  0  0  -0.461045  0  1.992902  0  0  -0.208212  -0.424877  0  2.004784  0
O  O132  1  0.86563145  0.03289368  0.63947993  1  0  -0.466969  0  1.766019  0  0  -0.440107  0  1.99095  0  0  -0.457619  0  1.983077  0  0  -0.201519  -0.428244  0  1.996148  0
O  O133  1  0.63440378  0.53289234  0.36052861  1  0  -0.466858  0  1.766199  0  0  -0.44004  0  1.990991  0  0  -0.45759  0  1.983164  0  0  -0.201621  -0.428227  0  1.996215  0
O  O134  1  0.13434718  0.96708463  0.36052357  1  0  -0.466528  0  1.766593  0  0  -0.44  0  1.990976  0  0  -0.457532  0  1.983129  0  0  -0.201471  -0.428178  0  1.996205  0
O  O135  1  0.36566529  0.46708300  0.63947710  1  0  -0.466473  0  1.766615  0  0  -0.43998  0  1.99101  0  0  -0.457512  0  1.983166  0  0  -0.201418  -0.428133  0  1.996211  0
O  O136  1  0.88454303  0.24578818  0.66256940  1  0  -0.428751  0  1.777786  0  0  -0.420702  0  1.992511  0  0  -0.434412  0  1.987377  0  0  -0.169967  -0.410992  0  1.995694  0
O  O137  1  0.61546331  0.74578624  0.33743169  1  0  -0.428624  0  1.777641  0  0  -0.42076  0  1.992325  0  0  -0.43447  0  1.987165  0  0  -0.170125  -0.411181  0  1.995569  0
O  O138  1  0.11546220  0.75418123  0.33742690  1  0  -0.428856  0  1.776725  0  0  -0.421386  0  1.991075  0  0  -0.435103  0  1.985899  0  0  -0.170417  -0.411743  0  1.994317  0
O  O139  1  0.38452425  0.25417922  0.66257464  1  0  -0.428897  0  1.776802  0  0  -0.42147  0  1.991199  0  0  -0.435198  0  1.986039  0  0  -0.170411  -0.411782  0  1.994417  0
