# generated using pymatgen
data_CuH14C9N3O4
_symmetry_space_group_name_H-M   'P 1'
_cell_length_a   7.18446556
_cell_length_b   7.90185619
_cell_length_c   11.59611389
_cell_angle_alpha   72.48715180
_cell_angle_beta   88.54691477
_cell_angle_gamma   66.30257658
_symmetry_Int_Tables_number   1
_chemical_formula_structural   CuH14C9N3O4
_chemical_formula_sum   'Cu2 H28 C18 N6 O8'
_cell_volume   571.41483481
_cell_formula_units_Z   2
loop_
 _symmetry_equiv_pos_site_id
 _symmetry_equiv_pos_as_xyz
  1  'x, y, z'
loop_
 _atom_site_type_symbol
 _atom_site_label
 _atom_site_symmetry_multiplicity
 _atom_site_fract_x
 _atom_site_fract_y
 _atom_site_fract_z
 _atom_site_occupancy
 _atom_site_hle17_ddec_charge
 _atom_site_hle17_ddec_spin_density
 _atom_site_hle17_ddec_sum_bond_order
 _atom_site_hle17_magmom
 _atom_site_hse06_10hf_ddec_charge
 _atom_site_hse06_10hf_ddec_spin_density
 _atom_site_hse06_10hf_ddec_sum_bond_order
 _atom_site_hse06_10hf_magmom
 _atom_site_hse06_ddec_charge
 _atom_site_hse06_ddec_spin_density
 _atom_site_hse06_ddec_sum_bond_order
 _atom_site_hse06_magmom
 _atom_site_pbe_cm5_charge
 _atom_site_pbe_ddec_charge
 _atom_site_pbe_ddec_spin_density
 _atom_site_pbe_ddec_sum_bond_order
 _atom_site_pbe_magmom
Cu  Cu0  1  0.57895495  0.06304655  0.40403857  1  0.831138  0.668356  1.920153  0.481  0.819142  0.798492  2.331769  0.632  0.924369  0.888647  2.245743  0.733  0.673086  0.751709  0.697985  2.392655  0.541
Cu  Cu1  1  0.42105183  0.93695744  0.59595628  1  0.83112  -0.668375  1.920114  -0.481  0.819144  -0.798501  2.331773  -0.632  0.924328  -0.888651  2.245781  -0.733  0.673062  0.751657  -0.697983  2.392653  -0.541
H  H2  1  0.03185597  0.01129267  0.31614900  1  0.112148  3e-05  0.94484  0.0  0.124492  3e-06  1.004272  0.0  0.127618  2e-06  1.000459  0.0  0.144643  0.122152  5e-06  1.007075  0.0
H  H3  1  0.96815527  0.98870113  0.68384960  1  0.11213  -2.7e-05  0.944784  0.0  0.124451  -3e-06  1.004251  0.0  0.127584  -2e-06  1.00043  0.0  0.144634  0.122103  -5e-06  1.007076  0.0
H  H4  1  0.47021844  0.39874198  0.10835207  1  0.093471  -5e-06  0.951986  0.0  0.100063  -2.3e-05  1.018874  0.0  0.103175  -2.2e-05  1.015208  0.0  0.133097  0.097675  -2.1e-05  1.021645  0.0
H  H5  1  0.52978514  0.60125036  0.89165473  1  0.093428  7e-06  0.951986  0.0  0.099984  2.3e-05  1.018914  0.0  0.103095  2.2e-05  1.015249  0.0  0.133071  0.097603  2.1e-05  1.021677  0.0
H  H6  1  0.26495286  0.12314963  0.17207691  1  0.092179  -5.2e-05  0.955225  0.0  0.107839  -2.6e-05  1.018048  0.0  0.109138  -4.3e-05  1.01835  0.0  0.114951  0.106855  -7e-06  1.017953  0.0
H  H7  1  0.73504458  0.87684705  0.82792049  1  0.092189  5.2e-05  0.955172  0.0  0.107831  2.6e-05  1.018012  0.0  0.10913  4.3e-05  1.018308  0.0  0.114952  0.106846  8e-06  1.017917  0.0
H  H8  1  0.14619899  0.35447307  0.05940132  1  0.080876  2.5e-05  0.937399  0.0  0.091135  1.9e-05  1.011226  0.0  0.092972  8e-06  1.008953  0.0  0.10943  0.089761  2.8e-05  1.012841  0.0
H  H9  1  0.85380063  0.64552509  0.94059918  1  0.080893  -2.1e-05  0.937447  0.0  0.091133  -1.9e-05  1.011271  0.0  0.092954  -8e-06  1.009014  0.0  0.109431  0.08976  -2.8e-05  1.012887  0.0
H  H10  1  0.08294685  0.20344912  0.91361852  1  0.067416  2.1e-05  0.932711  0.0  0.086073  3e-05  0.99334  0.0  0.087379  2e-05  0.992894  0.0  0.090573  0.085057  3.7e-05  0.993702  0.0
H  H11  1  0.91705502  0.79655341  0.08637845  1  0.067408  -2.2e-05  0.932679  0.0  0.086046  -3e-05  0.993328  0.0  0.087351  -2e-05  0.992886  0.0  0.090556  0.085031  -3.7e-05  0.993695  0.0
H  H12  1  0.18923092  0.97012632  0.02433693  1  0.06233  -1.5e-05  0.94866  0.0  0.077782  -2e-05  1.018287  0.0  0.078228  -1.3e-05  1.019548  0.0  0.088052  0.077414  -2.5e-05  1.017384  0.0
H  H13  1  0.81077017  0.02987474  0.97565777  1  0.062399  1.2e-05  0.948561  0.0  0.077821  2e-05  1.01821  0.0  0.078268  1.3e-05  1.019472  0.0  0.088077  0.077452  2.5e-05  1.017311  0.0
H  H14  1  0.42170077  0.05568695  0.86536512  1  0.078778  -7.2e-05  0.968687  0.0  0.095898  -5.2e-05  1.02872  0.0  0.097303  -1.9e-05  1.028989  0.0  0.088312  0.094786  -8.1e-05  1.028798  0.0
H  H15  1  0.57830238  0.94431267  0.13463501  1  0.078766  6.9e-05  0.968667  0.0  0.095881  5.2e-05  1.028702  0.0  0.097288  1.9e-05  1.028969  0.0  0.088312  0.094771  8.1e-05  1.028783  0.0
H  H16  1  0.43172454  0.21968464  0.93627177  1  0.054975  2.5e-05  0.943495  0.0  0.074039  2.7e-05  1.006323  0.0  0.074019  1.8e-05  1.007851  0.0  0.083868  0.073935  3.3e-05  1.005386  0.0
H  H17  1  0.56827658  0.78031643  0.06372810  1  0.055  -2.7e-05  0.943484  0.0  0.074057  -2.7e-05  1.006311  0.0  0.074038  -1.7e-05  1.00784  0.0  0.083888  0.073952  -3.3e-05  1.005377  0.0
H  H18  1  0.53312163  0.47983609  0.63061494  1  0.162178  -0.000153  0.960628  0.0  0.1789  -0.000115  1.020135  0.0  0.181817  -4.8e-05  1.019656  0.0  0.105474  0.176722  -0.000161  1.020584  0.0
H  H19  1  0.46686299  0.52016790  0.36939756  1  0.162085  0.000155  0.960678  0.0  0.178837  0.000115  1.020142  0.0  0.18175  4.8e-05  1.019669  0.0  0.105403  0.176661  0.000161  1.020592  0.0
H  H20  1  0.79457448  0.32509676  0.64303100  1  0.141765  -0.001078  0.946365  -0.001  0.15999  -0.000786  1.00617  -0.001  0.162213  -0.00052  1.0054  -0.001  0.100208  0.158183  -0.000924  1.006823  -0.001
H  H21  1  0.20541217  0.67490577  0.35698090  1  0.141699  0.00108  0.946337  0.001  0.159901  0.000786  1.006159  0.001  0.162135  0.00052  1.005378  0.001  0.100195  0.158098  0.000925  1.006812  0.001
H  H22  1  0.64345299  0.27570260  0.76464031  1  0.137049  0.001205  0.945333  0.001  0.153274  0.000851  1.008477  0.001  0.155  0.000588  1.008349  0.001  0.097331  0.151791  0.000974  1.008653  0.001
H  H23  1  0.35653009  0.72429845  0.23536765  1  0.137034  -0.001202  0.945467  -0.001  0.153252  -0.000851  1.008613  -0.001  0.154978  -0.000588  1.008485  -0.001  0.097351  0.151769  -0.000974  1.008794  -0.001
H  H24  1  0.17982366  0.59481378  0.60989653  1  0.15045  -0.001192  0.962028  -0.001  0.166149  -0.000799  1.023513  -0.001  0.168738  -0.000513  1.023087  -0.001  0.09852  0.164092  -0.00096  1.023969  -0.001
H  H25  1  0.82018100  0.40518877  0.39010383  1  0.150447  0.001191  0.961988  0.001  0.16615  0.0008  1.02349  0.001  0.168739  0.000513  1.023064  0.001  0.098532  0.164095  0.000961  1.023947  0.001
H  H26  1  0.06997472  0.49963774  0.74196220  1  0.140382  0.00123  0.937426  0.001  0.156864  0.000847  0.996019  0.001  0.158503  0.000581  0.99638  0.001  0.097573  0.155535  0.000976  0.995714  0.001
H  H27  1  0.93002371  0.50036623  0.25803280  1  0.140323  -0.001232  0.937463  -0.001  0.156805  -0.000847  0.996068  -0.001  0.158444  -0.000581  0.996429  -0.001  0.097551  0.155477  -0.000975  0.995767  -0.001
H  H28  1  0.07359233  0.42599944  0.61158798  1  0.151027  -0.000109  0.949835  0.0  0.170247  -0.000117  1.008436  0.0  0.172994  -6.4e-05  1.007928  0.0  0.102574  0.168255  -0.000154  1.008801  0.0
H  H29  1  0.92641487  0.57399727  0.38841182  1  0.150967  0.000106  0.949897  0.0  0.170195  0.000117  1.008504  0.0  0.172942  6.4e-05  1.007998  0.0  0.102546  0.168204  0.000155  1.008871  0.0
C  C30  1  0.91619475  0.12014074  0.24294495  1  0.165526  -0.000337  3.629685  0.0  0.100946  -0.000302  3.885637  0.0  0.115999  -0.000261  3.896427  0.0  0.164635  0.09161  -0.000321  3.878073  0.0
C  C31  1  0.08381169  0.87985450  0.75705430  1  0.165651  0.000311  3.629662  0.0  0.101104  0.000302  3.885582  0.0  0.116152  0.000258  3.896371  0.0  0.164704  0.091761  0.000321  3.878003  0.0
C  C32  1  0.63335330  0.31837900  0.13657058  1  0.194421  -0.000296  3.705697  0.0  0.15118  -0.00025  3.992024  0.0  0.163168  -0.000214  4.004373  0.0  0.145266  0.143657  -0.000268  3.983367  0.0
C  C33  1  0.36664834  0.68161770  0.86343190  1  0.194574  0.000283  3.705665  0.0  0.151374  0.000251  3.991997  0.0  0.163353  0.000213  4.004367  0.0  0.145342  0.14384  0.000268  3.983333  0.0
C  C34  1  0.15016277  0.20704353  0.09246584  1  -0.028657  -6.6e-05  3.622365  0.0  -0.102525  -2.5e-05  3.880804  0.0  -0.099199  -3.8e-05  3.891136  0.0  -0.055215  -0.10433  -1e-05  3.873451  0.0
C  C35  1  0.84983960  0.79295462  0.90753117  1  -0.028724  5.8e-05  3.62235  0.0  -0.102554  2.5e-05  3.880733  0.0  -0.099216  3.8e-05  3.891066  0.0  -0.055243  -0.10435  1.1e-05  3.87335  0.0
C  C36  1  0.19975229  0.11183939  0.99215989  1  -0.117609  1e-06  3.682784  0.0  -0.163172  1.4e-05  3.954273  0.0  -0.164763  1.2e-05  3.968311  0.0  -0.164032  -0.16173  1.4e-05  3.944192  0.0
C  C37  1  0.80025083  0.88816021  0.00783593  1  -0.117667  7e-06  3.68275  0.0  -0.16321  -1.4e-05  3.954239  0.0  -0.164804  -1.3e-05  3.96828  0.0  -0.164046  -0.161756  -1.3e-05  3.944133  0.0
C  C38  1  0.41293449  0.08254912  0.95328108  1  -0.117269  -0.000218  3.677271  0.0  -0.151382  -0.000103  3.928367  0.0  -0.152934  -3.7e-05  3.94354  0.0  -0.173355  -0.150122  -0.000154  3.917773  0.0
C  C39  1  0.58706587  0.91745049  0.04671738  1  -0.117252  0.000226  3.677163  0.0  -0.151326  0.000103  3.92823  0.0  -0.15288  3.7e-05  3.943404  0.0  -0.173339  -0.150063  0.000155  3.917644  0.0
C  C40  1  0.58906255  0.20761118  0.60501922  1  0.728428  0.000462  3.812673  0.001  0.695982  0.00011  4.114788  0.0  0.736598  0.000166  4.107865  0.0  0.213755  0.668302  5.4e-05  4.118944  0.0
C  C41  1  0.41091647  0.79239278  0.39498736  1  0.72847  -0.000464  3.812413  -0.001  0.695974  -0.000108  4.114648  0.0  0.736587  -0.000168  4.10773  0.0  0.213837  0.668296  -5.3e-05  4.118812  0.0
C  C42  1  0.64488508  0.32740127  0.66595402  1  -0.45507  -0.001127  3.619942  -0.001  -0.530979  -0.000717  3.850114  -0.001  -0.540142  -0.000435  3.852712  -0.001  -0.24562  -0.523258  -0.000858  3.847763  -0.001
C  C43  1  0.35510154  0.67260125  0.33405443  1  -0.454966  0.001114  3.620057  0.001  -0.530819  0.000713  3.850294  0.001  -0.539985  0.000435  3.852882  0.001  -0.245585  -0.5231  0.000854  3.847948  0.001
C  C44  1  0.85208283  0.71621753  0.59005432  1  0.727048  4.3e-05  3.817088  0.0  0.69698  0.0  4.119689  0.0  0.738034  9e-06  4.113037  0.0  0.211651  0.669009  1e-06  4.123619  0.0
C  C45  1  0.14792042  0.28378500  0.40994175  1  0.726986  -5.8e-05  3.817025  0.0  0.696968  -1e-06  4.119568  0.0  0.738023  -1.1e-05  4.11292  0.0  0.211754  0.668997  -0.0  4.123498  0.0
C  C46  1  0.05745895  0.54941906  0.64243093  1  -0.454347  -0.00056  3.61637  -0.001  -0.52907  -0.000421  3.845211  -0.001  -0.539081  -0.000227  3.848455  0.0  -0.247626  -0.520786  -0.000562  3.842281  -0.001
C  C47  1  0.94254772  0.45058202  0.35756625  1  -0.45422  0.000569  3.616423  0.001  -0.528978  0.00042  3.845243  0.001  -0.538991  0.000227  3.848494  0.0  -0.247606  -0.520693  0.000559  3.842319  0.001
N  N48  1  0.71472135  0.17695042  0.24591850  1  -0.376478  -0.001434  3.169192  -0.001  -0.333725  -0.000885  3.47275  0.0  -0.357362  -0.00089  3.482863  0.0  -0.353457  -0.31849  -0.000826  3.466714  0.0
N  N49  1  0.28528448  0.82304630  0.75408563  1  -0.376703  0.001445  3.169159  0.001  -0.333983  0.000884  3.472737  0.0  -0.357612  0.00089  3.482842  0.0  -0.353598  -0.318733  0.000823  3.466676  0.0
N  N50  1  0.95345247  0.22282116  0.13632749  1  0.040841  -3.2e-05  3.572925  0.0  0.161446  -6.7e-05  3.75719  0.0  0.151314  -5.1e-05  3.781048  0.0  -0.134983  0.166663  -7.5e-05  3.743467  0.0
N  N51  1  0.04655055  0.77717553  0.86366980  1  0.040887  4.8e-05  3.572816  0.0  0.161511  6.5e-05  3.757036  0.0  0.151382  5.3e-05  3.780886  0.0  -0.134952  0.166729  7.5e-05  3.74331  0.0
N  N52  1  0.77342679  0.35082879  0.06658868  1  -0.302918  4e-05  2.872549  0.0  -0.298152  -2.6e-05  3.138184  0.0  -0.305612  -1.3e-05  3.149545  0.0  -0.227486  -0.292843  -3.2e-05  3.130524  0.0
N  N53  1  0.22657130  0.64916644  0.93340987  1  -0.302955  -3.5e-05  2.872555  0.0  -0.298216  2.6e-05  3.138207  0.0  -0.305679  1.3e-05  3.149571  0.0  -0.227485  -0.292913  3.3e-05  3.130549  0.0
O  O54  1  0.63857900  0.21577212  0.49769901  1  -0.59722  0.069679  2.089233  0.092  -0.568407  0.048533  2.364206  0.07  -0.612732  0.038661  2.357535  0.059  -0.314128  -0.539338  0.050677  2.369425  0.07
O  O55  1  0.36142215  0.78422897  0.50230431  1  -0.597121  -0.069675  2.089202  -0.092  -0.568364  -0.048534  2.364294  -0.07  -0.612674  -0.038661  2.357624  -0.059  -0.314171  -0.53929  -0.050679  2.369501  -0.07
O  O56  1  0.49688862  0.10670063  0.66498988  1  -0.585763  -0.078129  2.097205  -0.103  -0.558756  -0.053649  2.373068  -0.078  -0.603902  -0.042324  2.367118  -0.065  -0.311863  -0.529304  -0.056206  2.377817  -0.078
O  O57  1  0.50309200  0.89330915  0.33500942  1  -0.585756  0.078139  2.096784  0.103  -0.558785  0.053651  2.372747  0.078  -0.603945  0.042326  2.366804  0.065  -0.311861  -0.52932  0.056202  2.377464  0.078
O  O58  1  0.84157728  0.83219465  0.48386297  1  -0.587558  0.078068  2.042604  0.103  -0.565625  0.052978  2.318091  0.077  -0.610475  0.041721  2.310706  0.064  -0.317058  -0.536354  0.05593  2.323773  0.078
O  O59  1  0.15843555  0.16780497  0.51612750  1  -0.587488  -0.07806  2.04275  -0.103  -0.565593  -0.052976  2.318254  -0.077  -0.610436  -0.04172  2.310873  -0.064  -0.317125  -0.536312  -0.055931  2.32392  -0.078
O  O60  1  0.70442190  0.72774773  0.65521834  1  -0.589585  -0.0782  2.049251  -0.103  -0.566635  -0.05318  2.325129  -0.077  -0.612357  -0.041754  2.319183  -0.064  -0.318172  -0.53661  -0.056332  2.32957  -0.078
O  O61  1  0.29558779  0.27225919  0.34477671  1  -0.589558  0.078218  2.049063  0.103  -0.566587  0.05319  2.324855  0.077  -0.61232  0.041761  2.318912  0.064  -0.318194  -0.53657  0.056336  2.329311  0.078
