# generated using pymatgen
data_Cd3HC5N5O
_symmetry_space_group_name_H-M   'P 1'
_cell_length_a   10.70202537
_cell_length_b   11.90551464
_cell_length_c   12.13868058
_cell_angle_alpha   89.99626177
_cell_angle_beta   90.00329714
_cell_angle_gamma   108.71708736
_symmetry_Int_Tables_number   1
_chemical_formula_structural   Cd3HC5N5O
_chemical_formula_sum   'Cd12 H4 C20 N20 O4'
_cell_volume   1464.83319158
_cell_formula_units_Z   4
loop_
 _symmetry_equiv_pos_site_id
 _symmetry_equiv_pos_as_xyz
  1  'x, y, z'
loop_
 _atom_site_type_symbol
 _atom_site_label
 _atom_site_symmetry_multiplicity
 _atom_site_fract_x
 _atom_site_fract_y
 _atom_site_fract_z
 _atom_site_occupancy
 _atom_site_pbe_bader_charge
 _atom_site_pbe_bader_spin_density
 _atom_site_pbe_cm5_charge
 _atom_site_pbe_ddec_charge
 _atom_site_pbe_ddec_spin_density
 _atom_site_pbe_ddec_sum_bond_order
 _atom_site_pbe_magmom
Cd  Cd0  1  0.52325101  0.01760363  0.35051729  1  1.167173  0  0.647136  0.771962  0  2.519429  0
Cd  Cd1  1  0.32306351  0.19206264  0.98716971  1  1.117654  0  0.66614  0.726311  0  2.544983  0
Cd  Cd2  1  0.75981854  0.48860809  0.21942310  1  1.219745  0  0.813869  0.872351  0  2.329224  0
Cd  Cd3  1  0.97680720  0.98239040  0.85052924  1  1.167711  0  0.647043  0.771919  0  2.519509  0
Cd  Cd4  1  0.17697724  0.80791333  0.48715019  1  1.118521  0  0.666234  0.726332  0  2.545575  0
Cd  Cd5  1  0.74018692  0.51141356  0.71944832  1  1.220169  0  0.813881  0.872259  0  2.329319  0
Cd  Cd6  1  0.47672614  0.98242866  0.64947313  1  1.167003  0  0.647176  0.772151  0  2.519193  0
Cd  Cd7  1  0.67691873  0.80791998  0.01284295  1  1.118252  0  0.666131  0.726292  0  2.544864  0
Cd  Cd8  1  0.24021094  0.51144205  0.78059533  1  1.219955  0  0.813943  0.872317  0  2.329148  0
Cd  Cd9  1  0.02321455  0.01757194  0.14951720  1  1.166983  0  0.647122  0.772111  0  2.51934  0
Cd  Cd10  1  0.82304790  0.19211389  0.51286742  1  1.118393  0  0.666254  0.726261  0  2.545253  0
Cd  Cd11  1  0.25980705  0.48856166  0.28054210  1  1.220261  0  0.813875  0.872107  0  2.329475  0
H  H12  1  0.67869098  0.96399901  0.52574708  1  0.584523  0  0.291354  0.373222  0  0.918162  0
H  H13  1  0.82136095  0.03608992  0.02572062  1  0.584096  0  0.291693  0.373719  0  0.917676  0
H  H14  1  0.32132986  0.03607440  0.47422769  1  0.584204  0  0.291622  0.373593  0  0.917514  0
H  H15  1  0.17865156  0.96388780  0.97428793  1  0.584735  0  0.291608  0.373657  0  0.918054  0
C  C16  1  0.63155943  0.20787171  0.30700527  1  0.790889  0  0.0198  -0.054946  0  3.503392  0
C  C17  1  0.28989704  0.36291666  0.97453850  1  0.779935  0  0.015987  -0.050474  0  3.545353  0
C  C18  1  0.47419330  0.53358424  0.27131228  1  0.756653  0  0.028735  -0.06219  0  3.497542  0
C  C19  1  0.38004337  0.10676395  0.12754134  1  0.728029  0  -0.015676  -0.107846  0  3.609754  0
C  C20  1  0.56303762  0.87971197  0.24935555  1  0.791042  0  0.010962  -0.065541  0  3.510574  0
C  C21  1  0.86834257  0.79215482  0.80699144  1  0.791644  0  0.019739  -0.055197  0  3.503651  0
C  C22  1  0.21014560  0.63707685  0.47447305  1  0.779496  0  0.015978  -0.050388  0  3.545569  0
C  C23  1  0.02581748  0.46643117  0.77137339  1  0.757039  0  0.028634  -0.062301  0  3.496889  0
C  C24  1  0.11998986  0.89308784  0.62757190  1  0.729903  0  -0.015445  -0.107434  0  3.609603  0
C  C25  1  0.93706188  0.12020647  0.74925383  1  0.790788  0  0.011395  -0.065113  0  3.510804  0
C  C26  1  0.36838019  0.79213020  0.69296538  1  0.791068  0  0.019782  -0.05502  0  3.503144  0
C  C27  1  0.71007964  0.63706311  0.02548240  1  0.779838  0  0.015868  -0.050561  0  3.545558  0
C  C28  1  0.52579151  0.46643961  0.72871521  1  0.755958  0  0.028741  -0.062154  0  3.497404  0
C  C29  1  0.61995549  0.89319397  0.87243261  1  0.726983  0  -0.015614  -0.107575  0  3.608997  0
C  C30  1  0.43693456  0.12028337  0.75063981  1  0.790026  0  0.011087  -0.065456  0  3.510474  0
C  C31  1  0.13161876  0.20785671  0.19295779  1  0.790575  0  0.019571  -0.055326  0  3.503098  0
C  C32  1  0.78996585  0.36299321  0.52542757  1  0.778925  0  0.015865  -0.050406  0  3.546196  0
C  C33  1  0.97419424  0.53361301  0.22867304  1  0.757317  0  0.028528  -0.062556  0  3.497209  0
C  C34  1  0.87998946  0.10692442  0.37241769  1  0.729081  0  -0.015474  -0.107527  0  3.609787  0
C  C35  1  0.06301957  0.87972239  0.25067975  1  0.790476  0  0.011034  -0.065489  0  3.511053  0
N  N36  1  0.67549359  0.30110430  0.26607027  1  -1.38389  0  -0.38769  -0.341948  0  3.3978  0
N  N37  1  0.27448736  0.45367680  0.95375580  1  -1.361379  0  -0.385176  -0.349426  0  3.259362  0
N  N38  1  0.58480881  0.53819227  0.27369252  1  -1.295551  0  -0.362862  -0.295196  0  3.3348  0
N  N39  1  0.38329978  0.05003658  0.20545504  1  -1.327907  0  -0.365972  -0.32313  0  3.278263  0
N  N40  1  0.58659607  0.82897047  0.17391934  1  -1.372695  0  -0.382214  -0.316748  0  3.389435  0
N  N41  1  0.82445949  0.69890514  0.76609052  1  -1.385053  0  -0.3877  -0.34174  0  3.398132  0
N  N42  1  0.22554629  0.54631599  0.45368863  1  -1.361111  0  -0.385205  -0.34951  0  3.259462  0
N  N43  1  0.91518779  0.46180529  0.77373188  1  -1.295943  0  -0.362798  -0.295133  0  3.334361  0
N  N44  1  0.11669219  0.94981448  0.70546508  1  -1.330291  0  -0.366245  -0.323576  0  3.277911  0
N  N45  1  0.91343647  0.17101506  0.67389687  1  -1.372717  0  -0.38259  -0.316997  0  3.389392  0
N  N46  1  0.32443325  0.69892860  0.73396381  1  -1.384347  0  -0.387768  -0.341984  0  3.397926  0
N  N47  1  0.72549950  0.54630863  0.04626345  1  -1.361185  0  -0.38505  -0.349321  0  3.259617  0
N  N48  1  0.41515346  0.46177731  0.72631932  1  -1.294909  0  -0.362886  -0.295272  0  3.334819  0
N  N49  1  0.61667650  0.94992393  0.79452467  1  -1.327306  0  -0.366043  -0.323359  0  3.277687  0
N  N50  1  0.41337926  0.17103200  0.82607519  1  -1.37152  0  -0.382292  -0.316755  0  3.388927  0
N  N51  1  0.17555247  0.30107080  0.23392790  1  -1.38404  0  -0.387563  -0.341621  0  3.397758  0
N  N52  1  0.77454764  0.45372186  0.54631497  1  -1.360451  0  -0.385124  -0.349476  0  3.260498  0
N  N53  1  0.08479402  0.53815195  0.22626760  1  -1.296181  0  -0.362668  -0.294831  0  3.334167  0
N  N54  1  0.88333844  0.05016134  0.29455994  1  -1.32936  0  -0.366193  -0.323402  0  3.278239  0
N  N55  1  0.08653456  0.82894961  0.32612815  1  -1.372123  0  -0.38227  -0.316739  0  3.389448  0
O  O56  1  0.63882849  0.02692685  0.52429590  1  -1.194412  0  -0.594345  -0.77632  0  2.136574  0
O  O57  1  0.86116021  0.97311851  0.02429587  1  -1.194034  0  -0.59472  -0.777012  0  2.136349  0
O  O58  1  0.36117747  0.97312584  0.47569534  1  -1.193986  0  -0.594621  -0.776717  0  2.136281  0
O  O59  1  0.13883088  0.02685046  0.97573657  1  -1.194656  0  -0.594582  -0.776849  0  2.13691  0
