# generated using pymatgen
data_CuH28C22S2(N2O)4
_symmetry_space_group_name_H-M   'P 1'
_cell_length_a   9.00536888
_cell_length_b   9.05699070
_cell_length_c   12.70017936
_cell_angle_alpha   78.27430841
_cell_angle_beta   69.79851065
_cell_angle_gamma   63.94669594
_symmetry_Int_Tables_number   1
_chemical_formula_structural   CuH28C22S2(N2O)4
_chemical_formula_sum   'Cu1 H28 C22 S2 N8 O4'
_cell_volume   871.70898100
_cell_formula_units_Z   1
loop_
 _symmetry_equiv_pos_site_id
 _symmetry_equiv_pos_as_xyz
  1  'x, y, z'
loop_
 _atom_site_type_symbol
 _atom_site_label
 _atom_site_symmetry_multiplicity
 _atom_site_fract_x
 _atom_site_fract_y
 _atom_site_fract_z
 _atom_site_occupancy
 _atom_site_pbe_bader_charge
 _atom_site_pbe_bader_spin_density
 _atom_site_pbe_cm5_charge
 _atom_site_pbe_ddec_charge
 _atom_site_pbe_ddec_spin_density
 _atom_site_pbe_ddec_sum_bond_order
 _atom_site_pbe_magmom
Cu  Cu0  1  0.00000118  0.49998994  0.99998915  1  1.079812  0.557788  0.800892  0.78853  0.720791  2.373385  0.556
H  H1  1  0.59362299  0.27663889  0.32344667  1  0.438552  9.6e-05  0.329597  0.287006  5.2e-05  0.91208  0.0
H  H2  1  0.40634984  0.72340496  0.67657756  1  0.438213  9.6e-05  0.329529  0.286861  5.2e-05  0.912063  0.0
H  H3  1  0.45479764  0.10606336  0.39564579  1  0.072076  9.8e-05  0.094649  0.10185  3.9e-05  1.028252  0.0
H  H4  1  0.54517634  0.89396130  0.60435118  1  0.072021  9.8e-05  0.09474  0.101983  3.9e-05  1.028465  0.0
H  H5  1  0.40439541  0.18207315  0.52746738  1  0.066869  0.000162  0.100923  0.121325  0.000114  0.986572  0.0
H  H6  1  0.59562792  0.81791174  0.47254619  1  0.066951  0.000162  0.100965  0.121357  0.000114  0.986294  0.0
H  H7  1  0.74661355  0.38957461  0.16786374  1  0.120968  0.002875  0.122483  0.108956  0.001342  1.020721  0.002
H  H8  1  0.25336346  0.61043828  0.83215009  1  0.121136  0.002879  0.122444  0.108861  0.001344  1.02067  0.002
H  H9  1  0.22254704  0.36681095  0.14996416  1  0.108646  0.002529  0.118712  0.095641  0.001171  1.030298  0.002
H  H10  1  0.77743010  0.63320348  0.85002026  1  0.108312  0.002531  0.118758  0.095711  0.001172  1.030103  0.002
H  H11  1  0.21664558  0.20393048  0.33907187  1  0.106746  0.001587  0.103946  0.109858  0.000823  1.025362  0.001
H  H12  1  0.78337110  0.79605320  0.66089698  1  0.107025  0.001587  0.103892  0.10985  0.000822  1.025409  0.001
H  H13  1  0.96773831  0.13052396  0.44055404  1  0.184043  0.000103  0.116837  0.137284  2.1e-05  1.022044  0.0
H  H14  1  0.03227282  0.86947265  0.55943382  1  0.183937  0.000103  0.116825  0.137311  2.1e-05  1.022003  0.0
H  H15  1  0.95786763  0.24283330  0.87516886  1  0.073493  -0.0  0.11379  0.041858  -4.3e-05  1.002863  0.0
H  H16  1  0.04212203  0.75719784  0.12485259  1  0.073024  0.0  0.113682  0.041783  -4.3e-05  1.002732  0.0
H  H17  1  0.75216584  0.04479556  0.83475037  1  0.089798  -1.6e-05  0.08833  0.103759  -7.6e-05  1.051558  0.0
H  H18  1  0.24789951  0.95516105  0.16525061  1  0.092502  -1.6e-05  0.088416  0.103781  -7.6e-05  1.051526  0.0
H  H19  1  0.84174666  0.92838158  0.94599497  1  0.089442  -0.000125  0.097156  0.123743  -0.000136  1.030779  0.0
H  H20  1  0.15829594  0.07161739  0.05401508  1  0.089542  -0.000125  0.097193  0.123756  -0.000136  1.030715  0.0
H  H21  1  0.95836175  0.02760123  0.83392939  1  0.060202  2e-06  0.101072  0.111047  -5e-06  1.009995  0.0
H  H22  1  0.04168408  0.97239187  0.16609105  1  0.060141  2e-06  0.101074  0.111108  -5e-06  1.009945  0.0
H  H23  1  0.49267855  0.21054109  0.98157541  1  0.069391  -2.2e-05  0.103809  0.129436  -4.5e-05  1.003585  0.0
H  H24  1  0.50734102  0.78940749  0.01840602  1  0.069888  -2.2e-05  0.103815  0.129471  -4.5e-05  1.003662  0.0
H  H25  1  0.51726532  0.34701492  0.05124396  1  0.093825  3.6e-05  0.104288  0.124857  5.2e-05  1.01904  0.0
H  H26  1  0.48270545  0.65298953  0.94872851  1  0.093553  3.6e-05  0.104234  0.124831  5.2e-05  1.019169  0.0
H  H27  1  0.57660218  0.13229680  0.09913774  1  0.071605  0.000157  0.088621  0.098033  0.000147  1.032133  0.0
H  H28  1  0.42339291  0.86770938  0.90087051  1  0.071645  0.000157  0.088594  0.098012  0.000147  1.032218  0.0
C  C29  1  0.30345354  0.24103112  0.85070207  1  0.50453  0.006609  0.13796  0.268265  0.005577  4.367829  0.01
C  C30  1  0.69657290  0.75895047  0.14928607  1  0.505226  0.006597  0.138017  0.268233  0.005571  4.368327  0.01
C  C31  1  0.67276681  0.09050298  0.43949145  1  1.382026  0.000402  0.247093  0.543385  0.000376  4.048233  0.0
C  C32  1  0.32724961  0.90948272  0.56050313  1  1.382443  0.000402  0.247158  0.543451  0.000376  4.048349  0.0
C  C33  1  0.49791304  0.08265929  0.47083127  1  -0.051908  0.000415  -0.163267  -0.28433  0.000276  3.975933  0.0
C  C34  1  0.50207892  0.91734235  0.52918551  1  -0.032196  0.000414  -0.16341  -0.28453  0.000276  3.976147  0.0
C  C35  1  0.83598666  0.25302837  0.31262199  1  0.30745  0.005941  0.104191  0.207265  0.003993  4.042899  0.005
C  C36  1  0.16398272  0.74700497  0.68737552  1  0.307858  0.005942  0.104227  0.207451  0.003994  4.042706  0.005
C  C37  1  0.84705802  0.34655791  0.20982865  1  0.53047  -0.00151  0.042303  -0.028971  -0.001557  3.911882  -0.001
C  C38  1  0.15291312  0.65346804  0.79016800  1  0.530227  -0.001511  0.042304  -0.028952  -0.001559  3.911838  -0.001
C  C39  1  0.11527335  0.33325446  0.19986062  1  0.482693  -0.001066  0.039395  0.058725  -0.001259  3.934781  -0.001
C  C40  1  0.88473356  0.66673755  0.80013286  1  0.483421  -0.001065  0.03928  0.058416  -0.001259  3.935037  -0.001
C  C41  1  0.11037084  0.24436399  0.30314834  1  -0.010934  0.006446  -0.078856  -0.097168  0.004382  3.990335  0.005
C  C42  1  0.88961114  0.75563123  0.69685050  1  -0.011228  0.006446  -0.078673  -0.096915  0.004382  3.990416  0.005
C  C43  1  0.97044152  0.20250228  0.36103379  1  -0.010063  -0.004057  -0.067863  -0.12364  -0.004437  3.890919  -0.003
C  C44  1  0.02953775  0.79750280  0.63896574  1  -0.010562  -0.004056  -0.067935  -0.123882  -0.004436  3.891263  -0.003
C  C45  1  0.82688949  0.28584493  0.93585348  1  1.360915  -8.9e-05  0.161242  0.285427  -0.000146  4.150301  0.0
C  C46  1  0.17309480  0.71416504  0.06415042  1  1.361816  -8.8e-05  0.161289  0.285358  -0.000145  4.15014  0.0
C  C47  1  0.82965629  0.03790272  0.88757400  1  0.219454  -0.000164  -0.143712  -0.283969  -0.000194  3.921009  0.0
C  C48  1  0.17037852  0.96209780  0.11244079  1  0.21602  -0.000164  -0.143729  -0.283936  -0.000194  3.92053  0.0
C  C49  1  0.57333387  0.22091179  0.02535911  1  0.232547  0.000114  -0.140045  -0.266927  0.000111  3.882342  0.0
C  C50  1  0.42665687  0.77907941  0.97463514  1  0.23237  0.000114  -0.139971  -0.267017  0.000111  3.882665  0.0
S  S51  1  0.46735315  0.15522283  0.74637021  1  0.102343  0.035884  -0.176109  -0.337131  0.020622  2.260056  0.021
S  S52  1  0.53266846  0.84476156  0.25362572  1  0.102147  0.035887  -0.176239  -0.337336  0.020623  2.259751  0.021
N  N53  1  0.18460429  0.29951087  0.93042146  1  -1.312161  0.065186  -0.435682  -0.53172  0.042447  3.344268  0.052
N  N54  1  0.81537787  0.70048158  0.06956672  1  -1.312614  0.065196  -0.435595  -0.531439  0.042455  3.344766  0.052
N  N55  1  0.98393855  0.38332764  0.15539718  1  -1.204412  0.098467  -0.334737  -0.184062  0.065833  3.644372  0.086
N  N56  1  0.01605388  0.61668918  0.84459747  1  -1.204653  0.098454  -0.334749  -0.183979  0.065826  3.644756  0.086
N  N57  1  0.69056010  0.21521806  0.35982531  1  -1.215201  0.001283  -0.399118  -0.389359  0.000724  3.561829  0.001
N  N58  1  0.30941298  0.78481344  0.64019445  1  -1.214928  0.001282  -0.399081  -0.389235  0.000724  3.561494  0.001
N  N59  1  0.74669661  0.18578743  0.94938790  1  -1.199931  -0.0  -0.283723  0.036522  1e-06  3.713918  0.0
N  N60  1  0.25330169  0.81421372  0.05061802  1  -1.199585  -0.0  -0.283783  0.036565  1e-06  3.71341  0.0
O  O61  1  0.78780459  0.99611301  0.48222404  1  -1.146641  0.000523  -0.28004  -0.462458  0.000295  2.109722  0.0
O  O62  1  0.21222770  0.00385720  0.51775582  1  -1.146954  0.000523  -0.280083  -0.462463  0.000295  2.109715  0.0
O  O63  1  0.76569098  0.41503421  0.98546270  1  -1.166538  -0.000757  -0.313671  -0.498791  -0.000893  2.314102  0.0
O  O64  1  0.23426330  0.58497676  0.01454966  1  -1.166805  -0.000757  -0.313655  -0.498711  -0.000893  2.314199  0.0
