# generated using pymatgen
data_Cu3H9(C8N7)2
_symmetry_space_group_name_H-M   'P 1'
_cell_length_a   9.65962734
_cell_length_b   10.04663825
_cell_length_c   10.96242452
_cell_angle_alpha   108.30678050
_cell_angle_beta   90.91548653
_cell_angle_gamma   108.82331288
_symmetry_Int_Tables_number   1
_chemical_formula_structural   Cu3H9(C8N7)2
_chemical_formula_sum   'Cu6 H18 C32 N28'
_cell_volume   947.82269003
_cell_formula_units_Z   2
loop_
 _symmetry_equiv_pos_site_id
 _symmetry_equiv_pos_as_xyz
  1  'x, y, z'
loop_
 _atom_site_type_symbol
 _atom_site_label
 _atom_site_symmetry_multiplicity
 _atom_site_fract_x
 _atom_site_fract_y
 _atom_site_fract_z
 _atom_site_occupancy
 _atom_site_hle17_bader_spin_density
 _atom_site_hle17_ddec_charge
 _atom_site_hle17_ddec_spin_density
 _atom_site_hle17_ddec_sum_bond_order
 _atom_site_hle17_magmom
 _atom_site_hse06_10hf_bader_spin_density
 _atom_site_hse06_10hf_ddec_charge
 _atom_site_hse06_10hf_ddec_spin_density
 _atom_site_hse06_10hf_ddec_sum_bond_order
 _atom_site_hse06_10hf_magmom
 _atom_site_hse06_bader_spin_density
 _atom_site_hse06_ddec_charge
 _atom_site_hse06_ddec_spin_density
 _atom_site_hse06_ddec_sum_bond_order
 _atom_site_hse06_magmom
 _atom_site_pbe_bader_spin_density
 _atom_site_pbe_cm5_charge
 _atom_site_pbe_ddec_charge
 _atom_site_pbe_ddec_spin_density
 _atom_site_pbe_ddec_sum_bond_order
 _atom_site_pbe_magmom
Cu  Cu0  1  0.28409685  0.84125292  0.65301351  1  0  0.501364  0  1.983435  0  0  0.3699  0  2.494243  0  0  0.362516  0  2.455204  0  0  0.600873  0.383446  0  2.513654  0
Cu  Cu1  1  0.71590862  0.15873558  0.34698107  1  0  0.501381  0  1.983571  0  0  0.369991  0  2.494412  0  0  0.362541  0  2.455353  0  0  0.600926  0.383502  0  2.513801  0
Cu  Cu2  1  0.45168085  0.41587563  0.56353063  1  0  0.340878  0  2.304475  0  0  0.251499  0  2.801773  0  0  0.24266  0  2.756353  0  0  0.476022  0.258476  0  2.832917  0
Cu  Cu3  1  0.54832967  0.58411844  0.43646650  1  0  0.340859  0  2.304571  0  0  0.251464  0  2.801867  0  0  0.242637  0  2.756455  0  0  0.475994  0.258449  0  2.833011  0
Cu  Cu4  1  0.91280922  0.95594575  0.71592841  1  0  0.445133  0  1.961902  0  0  0.305268  0  2.466522  0  0  0.291134  0  2.431588  0  0  0.599535  0.318776  0  2.485822  0
Cu  Cu5  1  0.08719047  0.04405291  0.28407075  1  0  0.44522  0  1.961762  0  0  0.305267  0  2.466344  0  0  0.291202  0  2.431449  0  0  0.599551  0.318813  0  2.485673  0
H  H6  1  0.88328449  0.47100941  0.89837882  1  0  0.122767  0  0.949286  0  0  0.130112  0  1.011565  0  0  0.133927  0  1.010825  0  0  0.111757  0.127633  0  1.011735  0
H  H7  1  0.11671406  0.52899487  0.10162282  1  0  0.122806  0  0.949288  0  0  0.130141  0  1.011577  0  0  0.133955  0  1.010836  0  0  0.11176  0.127663  0  1.011747  0
H  H8  1  0.58911901  0.94717742  0.79386368  1  0  0.082119  0  0.965478  0  0  0.083122  0  1.043659  0  0  0.088287  0  1.036686  0  0  0.116036  0.079848  0  1.048016  0
H  H9  1  0.41088107  0.05282233  0.20613305  1  0  0.082114  0  0.965398  0  0  0.08308  0  1.043636  0  0  0.088246  0  1.036663  0  0  0.116004  0.079809  0  1.047991  0
H  H10  1  0.42926750  0.82491394  0.93588807  1  0  0.115682  0  0.982634  0  0  0.114842  0  1.059173  0  0  0.118986  0  1.057844  0  0  0.106499  0.109122  0  1.064688  0
H  H11  1  0.57073026  0.17508807  0.06410927  1  0  0.115692  0  0.982565  0  0  0.114851  0  1.059108  0  0  0.118996  0  1.057778  0  0  0.106483  0.109132  0  1.064621  0
H  H12  1  0.75646607  0.56374154  0.75583580  1  0  0.07886  0  0.94085  0  0  0.090417  0  0.999294  0  0  0.093027  0  0.996779  0  0  0.12037  0.087898  0  1.001875  0
H  H13  1  0.24352963  0.43626049  0.24416151  1  0  0.078849  0  0.940943  0  0  0.090424  0  0.999343  0  0  0.093033  0  0.996827  0  0  0.120359  0.087903  0  1.001927  0
H  H14  1  0.54640905  0.71335840  0.06913703  1  0  0.068218  0  0.948595  0  0  0.079817  0  1.005699  0  0  0.08152  0  1.004386  0  0  0.111766  0.078775  0  1.006358  0
H  H15  1  0.45358885  0.28664701  0.93086491  1  0  0.068194  0  0.948613  0  0  0.079787  0  1.00572  0  0  0.08149  0  1.004406  0  0  0.111729  0.078741  0  1.006389  0
H  H16  1  0.92743261  0.48899046  0.40141742  1  0  0.083784  0  0.92729  0  0  0.09344  0  0.986595  0  0  0.096201  0  0.984115  0  0  0.118369  0.091226  0  0.988505  0
H  H17  1  0.07256167  0.51101053  0.59858596  1  0  0.083816  0  0.927279  0  0  0.093458  0  0.986595  0  0  0.096223  0  0.984109  0  0  0.118374  0.091244  0  0.988507  0
H  H18  1  0.84618333  0.71511424  0.14485741  1  0  0.081192  0  0.990617  0  0  0.080705  0  1.066838  0  0  0.08559  0  1.060938  0  0  0.111389  0.077528  0  1.070151  0
H  H19  1  0.15382255  0.28488434  0.85513909  1  0  0.08113  0  0.990629  0  0  0.080679  0  1.066813  0  0  0.085562  0  1.060918  0  0  0.111378  0.077504  0  1.070128  0
H  H20  1  0.78513167  0.47704958  0.20243652  1  0  0.118961  0  0.955754  0  0  0.126946  0  1.015836  0  0  0.12992  0  1.016045  0  0  0.110282  0.12476  0  1.016088  0
H  H21  1  0.21486738  0.52295020  0.79756295  1  0  0.118946  0  0.955764  0  0  0.12692  0  1.01586  0  0  0.129896  0  1.016062  0  0  0.110285  0.124734  0  1.016111  0
H  H22  1  0.76647952  0.20054754  0.88142565  1  0  0.081488  0  0.966568  0  0  0.082059  0  1.045154  0  0  0.086199  0  1.039998  0  0  0.114986  0.078378  0  1.049783  0
H  H23  1  0.23352418  0.79945668  0.11857423  1  0  0.081481  0  0.96658  0  0  0.082042  0  1.045166  0  0  0.086181  0  1.040013  0  0  0.114993  0.078362  0  1.049794  0
C  C24  1  0.78048278  0.39860241  0.83582289  1  0  -0.174567  0  3.696443  0  0  -0.185732  0  3.944906  0  0  -0.196078  0  3.967127  0  0  -0.085337  -0.180327  0  3.930547  0
C  C25  1  0.21951705  0.60139963  0.16417814  1  0  -0.174683  0  3.696557  0  0  -0.185853  0  3.945028  0  0  -0.196194  0  3.967241  0  0  -0.085355  -0.180443  0  3.930657  0
C  C26  1  0.19239106  0.97181115  0.48309915  1  0  0.211341  0  3.801166  0  0  0.186695  0  4.064665  0  0  0.194016  0  4.077908  0  0  0.196464  0.182118  0  4.056724  0
C  C27  1  0.80760657  0.02818757  0.51690364  1  0  0.211293  0  3.801005  0  0  0.186753  0  4.064472  0  0  0.194071  0  4.077713  0  0  0.196408  0.182174  0  4.056529  0
C  C28  1  0.96543485  0.82055040  0.89086352  1  0  0.169752  0  3.826726  0  0  0.151128  0  4.09648  0  0  0.154682  0  4.113315  0  0  0.197589  0.14888  0  4.084988  0
C  C29  1  0.03456523  0.17944940  0.10913779  1  0  0.169651  0  3.826908  0  0  0.15105  0  4.096685  0  0  0.154601  0  4.113509  0  0  0.19756  0.1488  0  4.085198  0
C  C30  1  0.38529463  0.13640596  0.60003177  1  0  0.214004  0  3.752518  0  0  0.192363  0  4.010549  0  0  0.197262  0  4.028083  0  0  0.201639  0.188838  0  4.00032  0
C  C31  1  0.61470364  0.86359163  0.39997072  1  0  0.214063  0  3.7526  0  0  0.192452  0  4.010609  0  0  0.197354  0  4.028142  0  0  0.201654  0.188924  0  4.000382  0
C  C32  1  0.81977533  0.82708813  0.91440798  1  0  0.311247  0  3.792584  0  0  0.291282  0  4.049159  0  0  0.305895  0  4.060946  0  0  0.238884  0.280616  0  4.042411  0
C  C33  1  0.18022385  0.17291502  0.08559243  1  0  0.311281  0  3.792538  0  0  0.291227  0  4.04925  0  0  0.305866  0  4.061  0  0  0.238843  0.280565  0  4.042503  0
C  C34  1  0.63027530  0.89417671  0.85217630  1  0  0.192038  0  3.638605  0  0  0.16051  0  3.884222  0  0  0.169518  0  3.898653  0  0  0.066634  0.154772  0  3.874364  0
C  C35  1  0.36972389  0.10582644  0.14782412  1  0  0.192107  0  3.638616  0  0  0.160617  0  3.884195  0  0  0.169621  0  3.898637  0  0  0.066684  0.154879  0  3.874339  0
C  C36  1  0.52389864  0.22187635  0.68394688  1  0  0.318761  0  3.771414  0  0  0.29932  0  4.028629  0  0  0.315589  0  4.037499  0  0  0.242177  0.287717  0  4.023574  0
C  C37  1  0.47610066  0.77812123  0.31605562  1  0  0.318768  0  3.771309  0  0  0.299328  0  4.028515  0  0  0.315594  0  4.037392  0  0  0.242248  0.287729  0  4.023458  0
C  C38  1  0.54305266  0.82836883  0.93192198  1  0  -0.163743  0  3.690288  0  0  -0.169632  0  3.933998  0  0  -0.180779  0  3.95654  0  0  -0.081544  -0.162535  0  3.92181  0
C  C39  1  0.45694368  0.17163212  0.06807959  1  0  -0.16389  0  3.690308  0  0  -0.169767  0  3.933993  0  0  -0.180919  0  3.956545  0  0  -0.081599  -0.162669  0  3.921805  0
C  C40  1  0.70981884  0.45105767  0.75932536  1  0  0.185581  0  3.675636  0  0  0.151728  0  3.924829  0  0  0.161363  0  3.939596  0  0  0.066472  0.145672  0  3.916102  0
C  C41  1  0.29017854  0.54894327  0.24067531  1  0  0.185655  0  3.675928  0  0  0.151808  0  3.925095  0  0  0.161444  0  3.939857  0  0  0.066522  0.145753  0  3.91637  0
C  C42  1  0.60689623  0.76539602  0.00329679  1  0  0.16707  0  3.709831  0  0  0.13532  0  3.96666  0  0  0.146387  0  3.980993  0  0  0.058563  0.128274  0  3.956272  0
C  C43  1  0.39310374  0.23460935  0.99670335  1  0  0.167154  0  3.709794  0  0  0.135409  0  3.966614  0  0  0.146476  0  3.980949  0  0  0.058645  0.12836  0  3.95623  0
C  C44  1  0.07743720  0.83340382  0.41049438  1  0  0.301613  0  3.814724  0  0  0.281574  0  4.071469  0  0  0.296852  0  4.080574  0  0  0.231197  0.270939  0  4.065872  0
C  C45  1  0.92255837  0.16659489  0.58950564  1  0  0.301733  0  3.814659  0  0  0.281659  0  4.071419  0  0  0.296937  0  4.080527  0  0  0.231262  0.271023  0  4.065823  0
C  C46  1  0.94859021  0.58765219  0.37259289  1  0  0.1842  0  3.674527  0  0  0.155121  0  3.930482  0  0  0.164892  0  3.944589  0  0  0.06485  0.148808  0  3.921246  0
C  C47  1  0.05140755  0.41234987  0.62740902  1  0  0.184089  0  3.6747  0  0  0.155023  0  3.93064  0  0  0.164798  0  3.944742  0  0  0.06479  0.148711  0  3.921403  0
C  C48  1  0.90151931  0.71091457  0.23072121  1  0  0.173495  0  3.652745  0  0  0.140445  0  3.905156  0  0  0.149655  0  3.918138  0  0  0.0563  0.135043  0  3.895721  0
C  C49  1  0.09848283  0.28908516  0.76927555  1  0  0.173597  0  3.652572  0  0  0.140524  0  3.904979  0  0  0.149739  0  3.917954  0  0  0.056338  0.13512  0  3.895545  0
C  C50  1  0.86873779  0.58120455  0.26220527  1  0  -0.17355  0  3.706438  0  0  -0.185117  0  3.95749  0  0  -0.194826  0  3.978926  0  0  -0.08467  -0.179028  0  3.94319  0
C  C51  1  0.13126164  0.41879634  0.73779269  1  0  -0.173515  0  3.706365  0  0  -0.185082  0  3.957441  0  0  -0.194784  0  3.978862  0  0  -0.084674  -0.178992  0  3.943141  0
C  C52  1  0.71449760  0.24942058  0.82641471  1  0  0.167447  0  3.683993  0  0  0.138604  0  3.944056  0  0  0.148301  0  3.958273  0  0  0.060638  0.13266  0  3.935299  0
C  C53  1  0.28550365  0.75058257  0.17358756  1  0  0.167463  0  3.683925  0  0  0.138629  0  3.94399  0  0  0.148326  0  3.958207  0  0  0.06061  0.132681  0  3.935246  0
C  C54  1  0.40539125  0.58836486  0.59608556  1  0  -0.12499  0  3.663837  0  0  -0.130842  0  4.063471  0  0  -0.108902  0  4.045409  0  0  -0.093817  -0.144831  0  4.075021  0
C  C55  1  0.59462468  0.41163577  0.40390256  1  0  -0.12495  0  3.663283  0  0  -0.13079  0  4.062902  0  0  -0.108844  0  4.044857  0  0  -0.093861  -0.144784  0  4.074454  0
N  N56  1  0.02935639  0.86813422  0.79598708  1  0  -0.267427  0  3.286129  0  0  -0.220776  0  3.61289  0  0  -0.22216  0  3.613255  0  0  -0.270659  -0.219611  0  3.611906  0
N  N57  1  0.97064291  0.13186331  0.20401085  1  0  -0.267367  0  3.286213  0  0  -0.220712  0  3.612948  0  0  -0.222119  0  3.613354  0  0  -0.27067  -0.219559  0  3.611984  0
N  N58  1  0.29840072  0.99254414  0.57631554  1  0  -0.391342  0  3.320107  0  0  -0.332056  0  3.640949  0  0  -0.340859  0  3.643601  0  0  -0.378524  -0.328044  0  3.639185  0
N  N59  1  0.70159961  0.00745343  0.42368606  1  0  -0.391331  0  3.320163  0  0  -0.332151  0  3.64106  0  0  -0.340942  0  3.643694  0  0  -0.378547  -0.328131  0  3.639278  0
N  N60  1  0.33310141  0.20105770  0.52679017  1  0  -0.197744  0  3.222012  0  0  -0.149719  0  3.525552  0  0  -0.155809  0  3.53474  0  0  -0.261235  -0.147097  0  3.521345  0
N  N61  1  0.66689725  0.79894103  0.47321539  1  0  -0.197835  0  3.222029  0  0  -0.149749  0  3.525538  0  0  -0.15584  0  3.534718  0  0  -0.261198  -0.147129  0  3.521332  0
N  N62  1  0.15813717  0.84405640  0.79482728  1  0  -0.089476  0  3.265132  0  0  -0.044931  0  3.596741  0  0  -0.043629  0  3.59791  0  0  -0.153002  -0.045705  0  3.595283  0
N  N63  1  0.84186212  0.15594112  0.20516973  1  0  -0.089461  0  3.265077  0  0  -0.044895  0  3.596669  0  0  -0.04358  0  3.597826  0  0  -0.152984  -0.045659  0  3.595192  0
N  N64  1  0.21041215  0.09591784  0.45194968  1  0  -0.231131  0  3.223664  0  0  -0.180857  0  3.539188  0  0  -0.184885  0  3.545031  0  0  -0.265242  -0.179711  0  3.536094  0
N  N65  1  0.78958483  0.90408204  0.54805616  1  0  -0.230958  0  3.223524  0  0  -0.180816  0  3.539147  0  0  -0.184822  0  3.544946  0  0  -0.265251  -0.179659  0  3.536036  0
N  N66  1  0.76934149  0.89511726  0.84295973  1  0  -0.354319  0  3.232853  0  0  -0.289826  0  3.526202  0  0  -0.299478  0  3.530617  0  0  -0.341857  -0.28318  0  3.52312  0
N  N67  1  0.23065769  0.10488590  0.15704160  1  0  -0.35435  0  3.232814  0  0  -0.289819  0  3.526144  0  0  -0.299494  0  3.530592  0  0  -0.341849  -0.283181  0  3.523078  0
N  N68  1  0.58095922  0.36527909  0.68495831  1  0  -0.334582  0  3.242525  0  0  -0.267948  0  3.518545  0  0  -0.279865  0  3.524561  0  0  -0.337831  -0.261196  0  3.515332  0
N  N69  1  0.41903827  0.63471622  0.31503896  1  0  -0.334639  0  3.24271  0  0  -0.268026  0  3.518739  0  0  -0.27994  0  3.524753  0  0  -0.337879  -0.261276  0  3.515529  0
N  N70  1  0.17086027  0.78402073  0.88595292  1  0  -0.105285  0  2.955439  0  0  -0.086498  0  3.246183  0  0  -0.090082  0  3.260702  0  0  -0.097711  -0.083091  0  3.237589  0
N  N71  1  0.82914019  0.21598016  0.11404596  1  0  -0.105318  0  2.955408  0  0  -0.086539  0  3.246161  0  0  -0.090132  0  3.260682  0  0  -0.097721  -0.083134  0  3.237563  0
N  N72  1  0.05113465  0.76779662  0.94681225  1  0  -0.272896  0  2.954708  0  0  -0.253974  0  3.245274  0  0  -0.263034  0  3.260257  0  0  -0.210501  -0.247174  0  3.233621  0
N  N73  1  0.94886557  0.23220650  0.05318726  1  0  -0.272869  0  2.95466  0  0  -0.253945  0  3.245215  0  0  -0.263006  0  3.260198  0  0  -0.210496  -0.247145  0  3.23356  0
N  N74  1  0.58681414  0.15998026  0.75022196  1  0  -0.367082  0  3.021596  0  0  -0.331226  0  3.29374  0  0  -0.343354  0  3.301037  0  0  -0.307663  -0.323776  0  3.289362  0
N  N75  1  0.41318840  0.84002064  0.24978061  1  0  -0.367094  0  3.021409  0  0  -0.331238  0  3.293549  0  0  -0.343363  0  3.300846  0  0  -0.307689  -0.323789  0  3.289169  0
N  N76  1  0.74462752  0.76359242  0.99477303  1  0  -0.354222  0  3.060191  0  0  -0.314759  0  3.322754  0  0  -0.329784  0  3.334242  0  0  -0.303557  -0.304698  0  3.314585  0
N  N77  1  0.25537167  0.23641074  0.00522830  1  0  -0.354188  0  3.060098  0  0  -0.314705  0  3.322696  0  0  -0.329742  0  3.33418  0  0  -0.303519  -0.304642  0  3.314522  0
N  N78  1  0.00693539  0.83883889  0.30445038  1  0  -0.354303  0  3.258652  0  0  -0.286391  0  3.556522  0  0  -0.296586  0  3.561245  0  0  -0.346536  -0.280209  0  3.552549  0
N  N79  1  0.99306365  0.16116089  0.69554817  1  0  -0.354426  0  3.258756  0  0  -0.286538  0  3.55671  0  0  -0.296723  0  3.561401  0  0  -0.346597  -0.280346  0  3.55272  0
N  N80  1  0.05330107  0.71378681  0.44766818  1  0  -0.36675  0  3.057357  0  0  -0.32894  0  3.337642  0  0  -0.339009  0  3.342327  0  0  -0.308541  -0.323235  0  3.334899  0
N  N81  1  0.94669424  0.28621418  0.55233612  1  0  -0.366712  0  3.05741  0  0  -0.328894  0  3.337679  0  0  -0.338962  0  3.342367  0  0  -0.308477  -0.323184  0  3.334929  0
N  N82  1  0.36363936  0.69120626  0.62294334  1  0  -0.39362  0  3.34681  0  0  -0.332925  0  3.705276  0  0  -0.345261  0  3.705397  0  0  -0.451041  -0.326706  0  3.70223  0
N  N83  1  0.63637216  0.30877885  0.37705313  1  0  -0.393724  0  3.34641  0  0  -0.333131  0  3.705138  0  0  -0.345382  0  3.70504  0  0  -0.451059  -0.326901  0  3.702074  0
