# generated using pymatgen
data_ZnH9(CN)7
_symmetry_space_group_name_H-M   'P 1'
_cell_length_a   6.12179928
_cell_length_b   10.83640162
_cell_length_c   16.02847695
_cell_angle_alpha   90.00010547
_cell_angle_beta   90.00001796
_cell_angle_gamma   103.27838998
_symmetry_Int_Tables_number   1
_chemical_formula_structural   ZnH9(CN)7
_chemical_formula_sum   'Zn4 H36 C28 N28'
_cell_volume   1034.87476155
_cell_formula_units_Z   4
loop_
 _symmetry_equiv_pos_site_id
 _symmetry_equiv_pos_as_xyz
  1  'x, y, z'
loop_
 _atom_site_type_symbol
 _atom_site_label
 _atom_site_symmetry_multiplicity
 _atom_site_fract_x
 _atom_site_fract_y
 _atom_site_fract_z
 _atom_site_occupancy
 _atom_site_hle17_bader_spin_density
 _atom_site_hle17_ddec_charge
 _atom_site_hle17_ddec_spin_density
 _atom_site_hle17_ddec_sum_bond_order
 _atom_site_hle17_magmom
 _atom_site_hse06_10hf_bader_spin_density
 _atom_site_hse06_10hf_ddec_charge
 _atom_site_hse06_10hf_ddec_spin_density
 _atom_site_hse06_10hf_ddec_sum_bond_order
 _atom_site_hse06_10hf_magmom
 _atom_site_hse06_bader_spin_density
 _atom_site_hse06_ddec_charge
 _atom_site_hse06_ddec_spin_density
 _atom_site_hse06_ddec_sum_bond_order
 _atom_site_hse06_magmom
 _atom_site_pbe_bader_spin_density
 _atom_site_pbe_cm5_charge
 _atom_site_pbe_ddec_charge
 _atom_site_pbe_ddec_spin_density
 _atom_site_pbe_ddec_sum_bond_order
 _atom_site_pbe_magmom
Zn  Zn0  1  0.01555027  0.21267126  0.21223865  1  0  0.94364  0  2.036123  0  0  0.775631  0  2.512521  0  0  0.81173  0  2.472656  0  0  0.71743  0.750879  0  2.539586  0
Zn  Zn1  1  0.48445948  0.78733241  0.71224100  1  0  0.94363  0  2.036053  0  0  0.775648  0  2.512443  0  0  0.811755  0  2.472579  0  0  0.717449  0.750911  0  2.539501  0
Zn  Zn2  1  0.98445580  0.78732901  0.78776161  1  0  0.943669  0  2.036088  0  0  0.775651  0  2.512475  0  0  0.811756  0  2.472611  0  0  0.71742  0.750914  0  2.539537  0
Zn  Zn3  1  0.51554810  0.21267166  0.28775800  1  0  0.943648  0  2.036025  0  0  0.775683  0  2.512424  0  0  0.811787  0  2.472557  0  0  0.717445  0.750932  0  2.539489  0
H  H4  1  0.21081582  0.19742353  0.89924465  1  0  0.114825  0  0.972376  0  0  0.12211  0  1.037163  0  0  0.124983  0  1.03679  0  0  0.104447  0.120039  0  1.037587  0
H  H5  1  0.28918493  0.80258160  0.39924870  1  0  0.114807  0  0.972442  0  0  0.122166  0  1.037114  0  0  0.125046  0  1.036748  0  0  0.10444  0.120091  0  1.03755  0
H  H6  1  0.78918571  0.80257767  0.10075310  1  0  0.114808  0  0.97246  0  0  0.12214  0  1.037175  0  0  0.125016  0  1.036808  0  0  0.104437  0.120068  0  1.037602  0
H  H7  1  0.71080843  0.19741958  0.60075155  1  0  0.114822  0  0.972434  0  0  0.12217  0  1.037126  0  0  0.125048  0  1.036758  0  0  0.104432  0.120092  0  1.037557  0
H  H8  1  0.72495752  0.41305256  0.96626802  1  0  0.116181  0  0.96501  0  0  0.121184  0  1.033376  0  0  0.124311  0  1.032752  0  0  0.106872  0.119008  0  1.03387  0
H  H9  1  0.77503284  0.58693816  0.46627241  1  0  0.11623  0  0.964977  0  0  0.121217  0  1.03336  0  0  0.12435  0  1.032717  0  0  0.106869  0.119036  0  1.033857  0
H  H10  1  0.27503408  0.58694009  0.03372974  1  0  0.116214  0  0.965008  0  0  0.1212  0  1.03339  0  0  0.12433  0  1.032754  0  0  0.106875  0.119008  0  1.033893  0
H  H11  1  0.22496870  0.41306304  0.53372660  1  0  0.116236  0  0.964984  0  0  0.121225  0  1.033361  0  0  0.124359  0  1.032712  0  0  0.106861  0.11904  0  1.033866  0
H  H12  1  0.76953636  0.35143910  0.11341465  1  0  0.066635  0  0.980974  0  0  0.071767  0  1.055235  0  0  0.073558  0  1.053663  0  0  0.110508  0.070405  0  1.056452  0
H  H13  1  0.73045693  0.64856009  0.61341681  1  0  0.066747  0  0.98098  0  0  0.071849  0  1.055266  0  0  0.07364  0  1.053688  0  0  0.110525  0.070476  0  1.056482  0
H  H14  1  0.23045499  0.64856113  0.88658436  1  0  0.066613  0  0.980997  0  0  0.071748  0  1.055262  0  0  0.073538  0  1.053693  0  0  0.110506  0.070408  0  1.056465  0
H  H15  1  0.26954989  0.35144208  0.38658157  1  0  0.066699  0  0.98096  0  0  0.07182  0  1.055222  0  0  0.073613  0  1.053642  0  0  0.110522  0.070466  0  1.056434  0
H  H16  1  0.15993666  0.02243232  0.08363554  1  0  0.120607  0  0.949444  0  0  0.139008  0  1.01487  0  0  0.14013  0  1.01552  0  0  0.093147  0.138115  0  1.014557  0
H  H17  1  0.34006536  0.97757285  0.58363751  1  0  0.120662  0  0.949388  0  0  0.139017  0  1.01486  0  0  0.140141  0  1.01551  0  0  0.09318  0.138124  0  1.014546  0
H  H18  1  0.84005104  0.97756696  0.91636596  1  0  0.120601  0  0.949519  0  0  0.13898  0  1.014968  0  0  0.140103  0  1.015619  0  0  0.093118  0.138086  0  1.014651  0
H  H19  1  0.65993907  0.02242741  0.41636399  1  0  0.120651  0  0.949392  0  0  0.139059  0  1.014811  0  0  0.140181  0  1.01546  0  0  0.093166  0.138164  0  1.014498  0
H  H20  1  0.35227122  0.08197196  0.00181246  1  0  0.126845  0  0.947358  0  0  0.145705  0  1.008112  0  0  0.147264  0  1.007889  0  0  0.096383  0.144559  0  1.008289  0
H  H21  1  0.14773350  0.91803204  0.50181372  1  0  0.126867  0  0.947299  0  0  0.145707  0  1.008094  0  0  0.147264  0  1.007881  0  0  0.096384  0.14456  0  1.008267  0
H  H22  1  0.64771976  0.91802733  0.99819028  1  0  0.126844  0  0.947274  0  0  0.145728  0  1.008008  0  0  0.147288  0  1.007787  0  0  0.096412  0.144585  0  1.008182  0
H  H23  1  0.85227949  0.08196920  0.49818715  1  0  0.126845  0  0.947244  0  0  0.145736  0  1.007972  0  0  0.147293  0  1.007758  0  0  0.096411  0.144588  0  1.008146  0
H  H24  1  0.38399831  0.15483761  0.10199858  1  0  0.112278  0  0.972425  0  0  0.12936  0  1.043502  0  0  0.130575  0  1.043852  0  0  0.091332  0.128419  0  1.043306  0
H  H25  1  0.11599922  0.84516854  0.60200161  1  0  0.112147  0  0.972579  0  0  0.129309  0  1.043562  0  0  0.130524  0  1.043913  0  0  0.091354  0.12837  0  1.043369  0
H  H26  1  0.61600034  0.84516453  0.89800230  1  0  0.112244  0  0.972457  0  0  0.129353  0  1.043514  0  0  0.130568  0  1.043863  0  0  0.091341  0.128414  0  1.043324  0
H  H27  1  0.88399615  0.15483359  0.39800114  1  0  0.11231  0  0.972571  0  0  0.129404  0  1.043616  0  0  0.13062  0  1.043966  0  0  0.091341  0.128462  0  1.043424  0
H  H28  1  0.81599775  0.27342071  0.79944485  1  0  0.120067  0  0.964522  0  0  0.137249  0  1.034553  0  0  0.138451  0  1.034129  0  0  0.094143  0.136458  0  1.034867  0
H  H29  1  0.68399284  0.72657521  0.29944629  1  0  0.120145  0  0.964488  0  0  0.137343  0  1.034497  0  0  0.138546  0  1.034075  0  0  0.094181  0.136551  0  1.034816  0
H  H30  1  0.18399637  0.72658237  0.20055291  1  0  0.120098  0  0.964527  0  0  0.137296  0  1.034535  0  0  0.138499  0  1.03411  0  0  0.094179  0.136509  0  1.03485  0
H  H31  1  0.31600844  0.27342126  0.70055334  1  0  0.120134  0  0.964536  0  0  0.13734  0  1.034532  0  0  0.138543  0  1.034106  0  0  0.094196  0.136546  0  1.03485  0
H  H32  1  0.10722463  0.34697893  0.79699423  1  0  0.114806  0  0.968533  0  0  0.133002  0  1.035475  0  0  0.134047  0  1.035934  0  0  0.092407  0.132271  0  1.035167  0
H  H33  1  0.39276771  0.65301357  0.29699622  1  0  0.114819  0  0.968541  0  0  0.133008  0  1.035501  0  0  0.134053  0  1.035959  0  0  0.092383  0.132282  0  1.035194  0
H  H34  1  0.89277251  0.65301942  0.20300664  1  0  0.114842  0  0.968487  0  0  0.133024  0  1.035446  0  0  0.134071  0  1.035901  0  0  0.092422  0.132295  0  1.035139  0
H  H35  1  0.60723019  0.34698668  0.70300403  1  0  0.114844  0  0.968549  0  0  0.13301  0  1.035529  0  0  0.134055  0  1.035987  0  0  0.092399  0.132278  0  1.035225  0
H  H36  1  0.90621677  0.43678164  0.82367184  1  0  0.112526  0  0.957588  0  0  0.130827  0  1.022874  0  0  0.131787  0  1.023856  0  0  0.089913  0.130147  0  1.022171  0
H  H37  1  0.59377476  0.56321246  0.32367431  1  0  0.112564  0  0.95754  0  0  0.130884  0  1.022792  0  0  0.13184  0  1.023777  0  0  0.089951  0.130207  0  1.022085  0
H  H38  1  0.09378477  0.56321956  0.17632842  1  0  0.112541  0  0.957572  0  0  0.130842  0  1.02285  0  0  0.131793  0  1.023843  0  0  0.089916  0.130162  0  1.022143  0
H  H39  1  0.40621394  0.43678113  0.67632470  1  0  0.11255  0  0.957507  0  0  0.130854  0  1.022786  0  0  0.131803  0  1.02378  0  0  0.089917  0.130173  0  1.022084  0
C  C40  1  0.11646301  0.19584090  0.02795475  1  0  0.324107  0  3.71763  0  0  0.33105  0  3.956341  0  0  0.341076  0  3.976567  0  0  0.12009  0.324254  0  3.942515  0
C  C41  1  0.38353812  0.80416222  0.52795837  1  0  0.324247  0  3.717513  0  0  0.331098  0  3.956411  0  0  0.341123  0  3.976638  0  0  0.120091  0.324313  0  3.942571  0
C  C42  1  0.88353602  0.80416220  0.97204550  1  0  0.324196  0  3.717468  0  0  0.331067  0  3.956288  0  0  0.341092  0  3.97652  0  0  0.120083  0.324283  0  3.942453  0
C  C43  1  0.61645738  0.19583613  0.47204063  1  0  0.324305  0  3.717452  0  0  0.331102  0  3.956447  0  0  0.341128  0  3.976671  0  0  0.12007  0.324313  0  3.942608  0
C  C44  1  0.10479791  0.23087067  0.94462203  1  0  -0.230399  0  3.649306  0  0  -0.250187  0  3.88207  0  0  -0.260891  0  3.904052  0  0  -0.085629  -0.243103  0  3.867198  0
C  C45  1  0.39520836  0.76913176  0.44463103  1  0  -0.230459  0  3.649368  0  0  -0.250254  0  3.882092  0  0  -0.260973  0  3.904086  0  0  -0.085628  -0.243169  0  3.867215  0
C  C46  1  0.89520815  0.76912960  0.05537697  1  0  -0.230424  0  3.649416  0  0  -0.25024  0  3.882129  0  0  -0.260954  0  3.904122  0  0  -0.085614  -0.243153  0  3.867249  0
C  C47  1  0.60478789  0.23086848  0.55537234  1  0  -0.230449  0  3.649235  0  0  -0.250259  0  3.881956  0  0  -0.260974  0  3.903947  0  0  -0.085601  -0.243175  0  3.867074  0
C  C48  1  0.96454795  0.30932717  0.91943194  1  0  0.234318  0  3.719239  0  0  0.254537  0  3.955255  0  0  0.261626  0  3.976471  0  0  0.023783  0.250241  0  3.940608  0
C  C49  1  0.53545186  0.69067103  0.41943520  1  0  0.234321  0  3.719297  0  0  0.254554  0  3.955292  0  0  0.261641  0  3.976513  0  0  0.023849  0.250256  0  3.940644  0
C  C50  1  0.03545006  0.69066929  0.08056893  1  0  0.234267  0  3.719473  0  0  0.254541  0  3.955403  0  0  0.261629  0  3.976623  0  0  0.023804  0.250252  0  3.940748  0
C  C51  1  0.46454477  0.30933017  0.58056505  1  0  0.234319  0  3.719437  0  0  0.254665  0  3.955282  0  0  0.261753  0  3.976501  0  0  0.023865  0.250367  0  3.940627  0
C  C52  1  0.83777756  0.35173881  0.98141290  1  0  -0.18007  0  3.693983  0  0  -0.197841  0  3.937696  0  0  -0.207968  0  3.960795  0  0  -0.085831  -0.191219  0  3.9222  0
C  C53  1  0.66222039  0.64825861  0.48141362  1  0  -0.1801  0  3.694064  0  0  -0.197865  0  3.937727  0  0  -0.207988  0  3.960829  0  0  -0.085867  -0.191237  0  3.922226  0
C  C54  1  0.16221479  0.64825574  0.01858860  1  0  -0.180084  0  3.694015  0  0  -0.197833  0  3.937649  0  0  -0.207957  0  3.960746  0  0  -0.085852  -0.191192  0  3.922158  0
C  C55  1  0.33778153  0.35174354  0.51858663  1  0  -0.180065  0  3.694025  0  0  -0.197876  0  3.937678  0  0  -0.207998  0  3.960782  0  0  -0.085866  -0.191253  0  3.922182  0
C  C56  1  0.85936826  0.31634071  0.06338679  1  0  0.13638  0  3.730453  0  0  0.105458  0  3.982788  0  0  0.11395  0  4.001157  0  0  0.037115  0.099678  0  3.97049  0
C  C57  1  0.64063271  0.68365741  0.56339211  1  0  0.136148  0  3.730407  0  0  0.105296  0  3.982724  0  0  0.113787  0  4.001095  0  0  0.037122  0.099531  0  3.97044  0
C  C58  1  0.14062523  0.68365669  0.93661346  1  0  0.136436  0  3.730346  0  0  0.105498  0  3.982681  0  0  0.113993  0  4.001045  0  0  0.037167  0.099704  0  3.970382  0
C  C59  1  0.35937172  0.31634286  0.43660876  1  0  0.136194  0  3.730309  0  0  0.105341  0  3.982631  0  0  0.113831  0  4.000998  0  0  0.037136  0.099556  0  3.970343  0
C  C60  1  0.26110267  0.10910907  0.05500655  1  0  -0.381444  0  3.711072  0  0  -0.462614  0  3.947466  0  0  -0.465868  0  3.955127  0  0  -0.244503  -0.460082  0  3.94208  0
C  C61  1  0.23890293  0.89089698  0.55501028  1  0  -0.381486  0  3.711016  0  0  -0.46262  0  3.947465  0  0  -0.46588  0  3.955121  0  0  -0.244583  -0.460098  0  3.942076  0
C  C62  1  0.73889850  0.89089119  0.94499370  1  0  -0.381425  0  3.711046  0  0  -0.462598  0  3.947473  0  0  -0.465857  0  3.955132  0  0  -0.244501  -0.460069  0  3.942083  0
C  C63  1  0.76110415  0.10910993  0.44499122  1  0  -0.381636  0  3.711065  0  0  -0.462778  0  3.947522  0  0  -0.466034  0  3.95518  0  0  -0.244575  -0.460254  0  3.942137  0
C  C64  1  0.94955682  0.34453852  0.82992003  1  0  -0.355822  0  3.711347  0  0  -0.439353  0  3.950079  0  0  -0.44224  0  3.958457  0  0  -0.242057  -0.437221  0  3.943963  0
C  C65  1  0.55043208  0.65546128  0.32992449  1  0  -0.355928  0  3.711426  0  0  -0.439484  0  3.950112  0  0  -0.442365  0  3.95849  0  0  -0.242091  -0.437346  0  3.943997  0
C  C66  1  0.05043780  0.65546172  0.17008022  1  0  -0.355897  0  3.711435  0  0  -0.439462  0  3.950172  0  0  -0.442339  0  3.958549  0  0  -0.242108  -0.437334  0  3.944055  0
C  C67  1  0.44956342  0.34453707  0.67007576  1  0  -0.355958  0  3.711462  0  0  -0.43953  0  3.950148  0  0  -0.442406  0  3.958528  0  0  -0.24213  -0.4374  0  3.944038  0
N  N68  1  0.17419139  0.09295569  0.27153741  1  0  -0.632626  0  2.888841  0  0  -0.584842  0  3.226959  0  0  -0.60992  0  3.229413  0  0  -0.335324  -0.567793  0  3.225088  0
N  N69  1  0.32581334  0.90704340  0.77154116  1  0  -0.632781  0  2.888866  0  0  -0.585033  0  3.227016  0  0  -0.610108  0  3.229467  0  0  -0.335487  -0.567988  0  3.225151  0
N  N70  1  0.82581934  0.90705217  0.72846222  1  0  -0.632842  0  2.888768  0  0  -0.58508  0  3.227022  0  0  -0.610128  0  3.229415  0  0  -0.335399  -0.568051  0  3.225177  0
N  N71  1  0.67418795  0.09295307  0.22845722  1  0  -0.632807  0  2.888781  0  0  -0.585105  0  3.226978  0  0  -0.610156  0  3.229375  0  0  -0.335463  -0.568061  0  3.225124  0
N  N72  1  0.08913771  0.99412890  0.30601850  1  0  0.414186  0  4.19467  0  0  0.44808  0  4.469733  0  0  0.463285  0  4.498079  0  0  0.096272  0.437935  0  4.450519  0
N  N73  1  0.41086421  0.00587123  0.80602170  1  0  0.414276  0  4.193903  0  0  0.448212  0  4.468917  0  0  0.463415  0  4.497263  0  0  0.096402  0.438069  0  4.449708  0
N  N74  1  0.91086861  0.00587610  0.69398238  1  0  0.414553  0  4.193852  0  0  0.44838  0  4.468984  0  0  0.463586  0  4.497326  0  0  0.096373  0.438235  0  4.449775  0
N  N75  1  0.58913418  0.99412618  0.19397730  1  0  0.414332  0  4.194417  0  0  0.448282  0  4.469397  0  0  0.463487  0  4.497741  0  0  0.09638  0.438136  0  4.450187  0
N  N76  1  0.01118540  0.89940090  0.33966293  1  0  -0.329816  0  2.395287  0  0  -0.327135  0  2.608026  0  0  -0.331917  0  2.618441  0  0  -0.14899  -0.323977  0  2.601366  0
N  N77  1  0.48882289  0.10060692  0.83966876  1  0  -0.329809  0  2.394594  0  0  -0.327124  0  2.607294  0  0  -0.331907  0  2.617706  0  0  -0.148965  -0.323963  0  2.600632  0
N  N78  1  0.98882646  0.10060981  0.66033545  1  0  -0.330005  0  2.394598  0  0  -0.327289  0  2.607372  0  0  -0.33208  0  2.617786  0  0  -0.149009  -0.324122  0  2.600707  0
N  N79  1  0.51117739  0.89939522  0.16033212  1  0  -0.329849  0  2.395145  0  0  -0.327178  0  2.607843  0  0  -0.331965  0  2.618255  0  0  -0.148973  -0.324023  0  2.601187  0
N  N80  1  0.35520341  0.33306442  0.22655263  1  0  -0.63413  0  2.869071  0  0  -0.587986  0  3.209768  0  0  -0.612884  0  3.212409  0  0  -0.33552  -0.570945  0  3.207886  0
N  N81  1  0.14479995  0.66693549  0.72655668  1  0  -0.634251  0  2.868991  0  0  -0.588097  0  3.209679  0  0  -0.612998  0  3.212322  0  0  -0.335561  -0.571052  0  3.207788  0
N  N82  1  0.64479825  0.66693300  0.77344325  1  0  -0.634002  0  2.869221  0  0  -0.587823  0  3.209844  0  0  -0.612713  0  3.212486  0  0  -0.3355  -0.570772  0  3.207933  0
N  N83  1  0.85520486  0.33306573  0.27344232  1  0  -0.634126  0  2.869135  0  0  -0.587978  0  3.209789  0  0  -0.61287  0  3.212428  0  0  -0.335523  -0.57092  0  3.207871  0
N  N84  1  0.43575579  0.41894515  0.17938290  1  0  0.406824  0  4.191949  0  0  0.4365  0  4.47609  0  0  0.451781  0  4.504076  0  0  0.092572  0.426238  0  4.45713  0
N  N85  1  0.06424620  0.58105557  0.67938558  1  0  0.406904  0  4.191841  0  0  0.436583  0  4.475971  0  0  0.451864  0  4.503955  0  0  0.092607  0.426319  0  4.457014  0
N  N86  1  0.56425003  0.58106270  0.82060862  1  0  0.406712  0  4.19159  0  0  0.436409  0  4.475707  0  0  0.45169  0  4.503699  0  0  0.092551  0.426148  0  4.456746  0
N  N87  1  0.93575395  0.41893806  0.32061155  1  0  0.406845  0  4.191526  0  0  0.43655  0  4.475635  0  0  0.45183  0  4.503627  0  0  0.09261  0.426289  0  4.456671  0
N  N88  1  0.50881659  0.50145422  0.13390015  1  0  -0.321003  0  2.37505  0  0  -0.314996  0  2.590127  0  0  -0.319544  0  2.600519  0  0  -0.146601  -0.311847  0  2.583389  0
N  N89  1  0.99118656  0.49854506  0.63390151  1  0  -0.321004  0  2.37508  0  0  -0.314989  0  2.590135  0  0  -0.319541  0  2.600527  0  0  -0.146571  -0.311833  0  2.583394  0
N  N90  1  0.49117979  0.49854224  0.86609885  1  0  -0.321067  0  2.374507  0  0  -0.315087  0  2.589586  0  0  -0.319647  0  2.599987  0  0  -0.146645  -0.311925  0  2.582846  0
N  N91  1  0.00881837  0.50145237  0.36610186  1  0  -0.32111  0  2.374626  0  0  -0.315127  0  2.589705  0  0  -0.319684  0  2.600105  0  0  -0.146675  -0.311969  0  2.582962  0
N  N92  1  0.99447698  0.23994941  0.08692485  1  0  -0.39887  0  3.286604  0  0  -0.316473  0  3.550125  0  0  -0.337295  0  3.565545  0  0  -0.341968  -0.302438  0  3.539551  0
N  N93  1  0.50552028  0.76005161  0.58692652  1  0  -0.398697  0  3.286299  0  0  -0.31639  0  3.549979  0  0  -0.33721  0  3.565396  0  0  -0.341979  -0.302361  0  3.539399  0
N  N94  1  0.00552054  0.76004989  0.91307353  1  0  -0.398884  0  3.286462  0  0  -0.316465  0  3.55002  0  0  -0.337283  0  3.565433  0  0  -0.341965  -0.302435  0  3.539459  0
N  N95  1  0.49448063  0.23994391  0.41307248  1  0  -0.398783  0  3.286464  0  0  -0.316465  0  3.550155  0  0  -0.337287  0  3.565581  0  0  -0.342  -0.302436  0  3.539582  0
