# generated using pymatgen
data_MnH4C7NO5
_symmetry_space_group_name_H-M   'P 1'
_cell_length_a   5.34265810
_cell_length_b   11.25849659
_cell_length_c   12.95193420
_cell_angle_alpha   104.21038393
_cell_angle_beta   89.99309772
_cell_angle_gamma   89.99981638
_symmetry_Int_Tables_number   1
_chemical_formula_structural   MnH4C7NO5
_chemical_formula_sum   'Mn4 H16 C28 N4 O20'
_cell_volume   755.22405944
_cell_formula_units_Z   4
loop_
 _symmetry_equiv_pos_site_id
 _symmetry_equiv_pos_as_xyz
  1  'x, y, z'
loop_
 _atom_site_type_symbol
 _atom_site_label
 _atom_site_symmetry_multiplicity
 _atom_site_fract_x
 _atom_site_fract_y
 _atom_site_fract_z
 _atom_site_occupancy
 _atom_site_hle17_ddec_charge
 _atom_site_hle17_ddec_spin_density
 _atom_site_hle17_ddec_sum_bond_order
 _atom_site_hle17_magmom
 _atom_site_hse06_10hf_ddec_charge
 _atom_site_hse06_10hf_ddec_spin_density
 _atom_site_hse06_10hf_ddec_sum_bond_order
 _atom_site_hse06_10hf_magmom
 _atom_site_hse06_ddec_charge
 _atom_site_hse06_ddec_spin_density
 _atom_site_hse06_ddec_sum_bond_order
 _atom_site_hse06_magmom
 _atom_site_pbe_cm5_charge
 _atom_site_pbe_ddec_charge
 _atom_site_pbe_ddec_spin_density
 _atom_site_pbe_ddec_sum_bond_order
 _atom_site_pbe_magmom
Mn  Mn0  1  0.73565505  0.07599649  0.09047847  1  1.205514  4.802859  1.674055  4.691  1.042997  4.728451  2.145489  4.552  1.102914  4.769684  2.075908  4.613  0.595261  0.997759  4.683311  2.196777  4.488
Mn  Mn1  1  0.23549993  0.42393450  0.40950105  1  1.205337  4.80256  1.674485  4.691  1.04279  4.728241  2.145948  4.552  1.102689  4.769498  2.076375  4.613  0.595242  0.997559  4.683066  2.197243  4.488
Mn  Mn2  1  0.26428129  0.92405165  0.90948658  1  1.205359  4.802246  1.674366  4.691  1.04302  4.7281  2.145629  4.552  1.102893  4.769325  2.076097  4.613  0.595304  0.9978  4.682969  2.196904  4.488
Mn  Mn3  1  0.76439521  0.57602360  0.59058751  1  1.205427  4.801771  1.674479  4.691  1.042968  4.727522  2.145847  4.552  1.102829  4.768798  2.076289  4.613  0.595345  0.997787  4.682293  2.19711  4.488
H  H4  1  0.26233034  0.16564370  0.02917964  1  0.437708  -0.000827  0.829696  0.001  0.406238  0.000151  0.905262  0.002  0.416145  -0.000271  0.894696  0.002  0.315882  0.39919  0.000577  0.912664  0.002
H  H5  1  0.76248331  0.33437925  0.47083517  1  0.437995  -0.000828  0.828715  0.001  0.406473  0.00015  0.904413  0.002  0.416375  -0.000272  0.89386  0.002  0.316043  0.399428  0.000577  0.911812  0.002
H  H6  1  0.73761161  0.83436499  0.97080551  1  0.437632  -0.000824  0.829391  0.001  0.406115  0.000153  0.905125  0.002  0.416016  -0.00027  0.894564  0.002  0.315758  0.399066  0.000579  0.912532  0.002
H  H7  1  0.23765516  0.66565048  0.52917611  1  0.437731  -0.000825  0.829376  0.001  0.40621  0.00015  0.905055  0.002  0.416112  -0.000272  0.894489  0.002  0.315766  0.399163  0.000576  0.912455  0.002
H  H8  1  0.48561944  0.15575655  0.93687086  1  0.421359  -0.000202  0.885083  0.0  0.386494  0.000947  0.95815  0.001  0.399085  0.000558  0.940211  0.001  0.295555  0.377679  0.001305  0.970648  0.002
H  H9  1  0.98605722  0.34430347  0.56318029  1  0.421186  -0.000204  0.885635  0.0  0.386266  0.000945  0.958573  0.001  0.398857  0.000557  0.940644  0.001  0.295381  0.377459  0.001303  0.971052  0.002
H  H10  1  0.51436369  0.84424755  0.06311717  1  0.421306  -0.000202  0.885169  0.0  0.386277  0.000944  0.958459  0.001  0.398854  0.000556  0.94055  0.001  0.295429  0.377469  0.001303  0.97094  0.002
H  H11  1  0.01433019  0.65566301  0.43683439  1  0.421382  -0.000201  0.885189  0.0  0.386284  0.000946  0.958483  0.001  0.398862  0.000557  0.94057  0.001  0.29538  0.377479  0.001304  0.970962  0.002
H  H12  1  0.25264861  0.88472649  0.35565177  1  0.120306  0.000196  0.941674  0.0  0.129359  0.000256  1.002116  0.0  0.133465  0.00018  0.999404  0.0  0.115755  0.126332  0.000347  1.00431  0.0
H  H13  1  0.75251034  0.61526423  0.14431962  1  0.120065  0.000202  0.942115  0.0  0.129248  0.000256  1.002459  0.0  0.133353  0.00018  0.999741  0.0  0.115637  0.126222  0.000347  1.004661  0.0
H  H14  1  0.74727275  0.11528035  0.64434842  1  0.120536  0.000197  0.941704  0.0  0.129515  0.000256  1.0022  0.0  0.133622  0.00018  0.999489  0.0  0.115817  0.12649  0.000347  1.004391  0.0
H  H15  1  0.24742225  0.38473256  0.85566066  1  0.120321  0.000203  0.941854  0.0  0.129489  0.000256  1.002198  0.0  0.133596  0.00018  0.999478  0.0  0.115777  0.126464  0.000347  1.004398  0.0
H  H16  1  0.65182894  0.13226356  0.49873734  1  0.117639  9.9e-05  0.949248  0.0  0.128323  0.000193  1.007306  0.0  0.132329  5.4e-05  1.004712  0.0  0.115331  0.125338  0.000352  1.009426  0.0
H  H17  1  0.15194307  0.36776079  0.00120019  1  0.118125  0.0001  0.948604  0.0  0.128767  0.000193  1.00665  0.0  0.132773  5.4e-05  1.004068  0.0  0.115429  0.125777  0.000352  1.008787  0.0
H  H18  1  0.34810554  0.86774431  0.50119127  1  0.118076  0.000103  0.948625  0.0  0.128621  0.000194  1.006768  0.0  0.132609  5.4e-05  1.004226  0.0  0.11537  0.125634  0.000352  1.008891  0.0
H  H19  1  0.84802320  0.63228264  0.99883950  1  0.118087  0.000107  0.948599  0.0  0.12869  0.000194  1.006724  0.0  0.132706  5.5e-05  1.004098  0.0  0.115384  0.125693  0.000353  1.008873  0.0
C  C20  1  0.02026192  0.96054126  0.25531216  1  0.129681  0.005193  3.715449  0.005  0.131383  0.00814  3.962778  0.008  0.133646  0.006543  3.97919  0.006  0.127048  0.128914  0.010583  3.952788  0.009
C  C21  1  0.52016954  0.53948567  0.24470978  1  0.129299  0.005226  3.715441  0.006  0.131168  0.00814  3.962664  0.008  0.13343  0.006546  3.979079  0.006  0.126916  0.128689  0.010591  3.952694  0.009
C  C22  1  0.97973992  0.03948211  0.74466455  1  0.12949  0.005256  3.716024  0.006  0.131229  0.008145  3.963431  0.008  0.133485  0.006557  3.979851  0.006  0.127032  0.128765  0.010591  3.953454  0.009
C  C23  1  0.47987909  0.46051289  0.75530794  1  0.129926  0.005293  3.715745  0.006  0.131843  0.008179  3.962769  0.008  0.134111  0.006588  3.979187  0.006  0.127032  0.129373  0.010635  3.952791  0.009
C  C24  1  0.09300071  0.94417691  0.35408569  1  -0.11458  -0.000909  3.618698  -0.001  -0.148774  0.001457  3.869845  0.001  -0.151909  -0.000333  3.886476  0.0  -0.060846  -0.146931  0.003376  3.859609  0.002
C  C25  1  0.59290329  0.55582903  0.14591297  1  -0.114464  -0.000964  3.618928  -0.001  -0.148889  0.001463  3.870131  0.001  -0.152017  -0.000331  3.886761  0.0  -0.060905  -0.147054  0.003385  3.859909  0.002
C  C26  1  0.90699177  0.05586385  0.64590479  1  -0.114859  -0.001016  3.618898  -0.001  -0.148946  0.001449  3.870097  0.001  -0.152078  -0.000351  3.886732  0.0  -0.060994  -0.147102  0.003368  3.859863  0.002
C  C27  1  0.40702742  0.44418696  0.85409305  1  -0.114829  -0.001089  3.618257  -0.001  -0.149282  0.001435  3.869483  0.001  -0.15241  -0.00038  3.88611  0.0  -0.060952  -0.147437  0.003355  3.859259  0.002
C  C28  1  0.96326110  0.00541992  0.44631139  1  0.104726  0.003631  3.715682  0.003  0.117296  0.006244  3.951277  0.005  0.120605  0.005017  3.971116  0.004  0.01959  0.114529  0.008729  3.938685  0.007
C  C29  1  0.46325522  0.49454983  0.05369245  1  0.104912  0.003635  3.716292  0.003  0.117468  0.006238  3.951845  0.005  0.120767  0.005013  3.971705  0.004  0.019464  0.11471  0.008725  3.939248  0.007
C  C30  1  0.03676694  0.99458326  0.55368570  1  0.105018  0.003705  3.715407  0.003  0.117454  0.006254  3.951087  0.005  0.120762  0.005032  3.970925  0.004  0.019634  0.114683  0.008739  3.938502  0.007
C  C31  1  0.53672416  0.50546064  0.94632164  1  0.104976  0.003758  3.715454  0.003  0.117523  0.006284  3.951109  0.005  0.120815  0.00506  3.970957  0.004  0.01949  0.114741  0.008787  3.938528  0.007
C  C32  1  0.76259249  0.08031611  0.43242552  1  -0.138286  -0.003711  3.648802  -0.002  -0.170222  -0.001781  3.896465  -0.001  -0.173853  -0.003127  3.913438  -0.002  -0.068304  -0.168153  -9.2e-05  3.886274  0.0
C  C33  1  0.26267413  0.41963173  0.06755926  1  -0.138992  -0.003716  3.649748  -0.002  -0.170734  -0.001762  3.89735  -0.001  -0.174377  -0.003117  3.914314  -0.002  -0.06823  -0.168671  -6.7e-05  3.887166  0.0
C  C34  1  0.23737006  0.91963394  0.56754473  1  -0.138986  -0.003812  3.648538  -0.002  -0.17073  -0.001791  3.89627  -0.001  -0.174365  -0.003145  3.913227  -0.002  -0.068279  -0.16866  -9.7e-05  3.886073  0.0
C  C35  1  0.73730711  0.58042455  0.93247007  1  -0.139132  -0.003867  3.649411  -0.002  -0.171056  -0.001803  3.897072  -0.001  -0.174659  -0.003169  3.91401  -0.002  -0.068267  -0.168991  -0.000107  3.886888  0.0
C  C36  1  0.70276573  0.09189242  0.33086867  1  0.122416  0.005258  3.756517  0.005  0.122956  0.007411  4.006513  0.007  0.125257  0.006093  4.023059  0.006  0.123799  0.120477  0.009242  3.996655  0.008
C  C37  1  0.20290125  0.40803628  0.16912043  1  0.122457  0.005264  3.75702  0.005  0.122739  0.007406  4.007292  0.007  0.12505  0.006089  4.023787  0.006  0.123782  0.120262  0.009239  3.997449  0.008
C  C38  1  0.29712007  0.90804021  0.66910865  1  0.122764  0.005307  3.756108  0.005  0.123322  0.00742  4.006127  0.007  0.125617  0.006104  4.022657  0.006  0.124037  0.120847  0.009248  3.996282  0.008
C  C39  1  0.79713241  0.59199159  0.83090434  1  0.122897  0.005336  3.756945  0.006  0.123592  0.007447  4.006798  0.007  0.125894  0.006133  4.023305  0.006  0.123987  0.121113  0.009285  3.996953  0.008
C  C40  1  0.16691957  0.90910170  0.15491705  1  0.628793  0.000748  3.882524  0.002  0.57363  0.00439  4.180685  0.004  0.607911  0.002662  4.173394  0.003  0.225227  0.550323  0.006125  4.184717  0.005
C  C41  1  0.66686962  0.59091991  0.34507697  1  0.628607  0.000728  3.882779  0.002  0.573345  0.004367  4.181044  0.004  0.607611  0.002646  4.173761  0.003  0.225018  0.550056  0.006099  4.185073  0.005
C  C42  1  0.83306169  0.09091619  0.84504845  1  0.628848  0.00075  3.88242  0.002  0.5737  0.004395  4.180685  0.004  0.607968  0.002665  4.173408  0.003  0.225243  0.550394  0.00613  4.184715  0.005
C  C43  1  0.33326511  0.40906216  0.65493180  1  0.628214  0.000727  3.882852  0.002  0.573107  0.004383  4.180931  0.004  0.607372  0.002655  4.173668  0.003  0.225022  0.549795  0.006121  4.184947  0.005
C  C44  1  0.50971373  0.18109816  0.31116199  1  0.631298  0.005819  3.925341  0.006  0.574454  0.012194  4.228366  0.011  0.609102  0.008919  4.221178  0.008  0.222815  0.550767  0.015562  4.231831  0.013
C  C45  1  0.00989073  0.31888383  0.18884716  1  0.631494  0.005827  3.925001  0.006  0.574698  0.012213  4.228054  0.011  0.609372  0.008932  4.220816  0.008  0.222882  0.551005  0.015587  4.231524  0.013
C  C46  1  0.49018517  0.81886558  0.68884362  1  0.63116  0.00582  3.925335  0.006  0.574343  0.012184  4.228358  0.011  0.609018  0.008914  4.221128  0.008  0.222705  0.550659  0.015553  4.231821  0.013
C  C47  1  0.99017101  0.68113948  0.81116583  1  0.631549  0.005819  3.924781  0.006  0.574454  0.012203  4.22818  0.011  0.609137  0.008925  4.220952  0.008  0.22275  0.550762  0.015577  4.231648  0.013
N  N48  1  0.82617964  0.03173270  0.24380036  1  -0.342615  0.025745  3.268309  0.012  -0.290233  0.02912  3.532259  0.011  -0.305317  0.024501  3.545793  0.008  -0.304026  -0.27986  0.03478  3.524311  0.016
N  N49  1  0.32621658  0.46818206  0.25619815  1  -0.34232  0.025737  3.267748  0.012  -0.289955  0.029133  3.531803  0.011  -0.305035  0.024506  3.545323  0.008  -0.30403  -0.2796  0.034804  3.523877  0.016
N  N50  1  0.17372675  0.96823478  0.75616668  1  -0.342363  0.025689  3.267662  0.012  -0.290214  0.029121  3.531976  0.011  -0.305304  0.024494  3.545519  0.008  -0.304176  -0.27986  0.034782  3.524062  0.016
N  N51  1  0.67389007  0.53177980  0.74383794  1  -0.34273  0.025714  3.268421  0.012  -0.290475  0.029138  3.532399  0.011  -0.305596  0.024499  3.54595  0.008  -0.304192  -0.280111  0.034812  3.524482  0.016
O  O52  1  0.34101602  0.83378999  0.15693822  1  -0.587751  0.001569  1.928547  0.003  -0.541324  0.004532  2.144682  0.006  -0.565734  0.002976  2.135548  0.004  -0.310265  -0.523906  0.006426  2.150266  0.008
O  O53  1  0.84100433  0.66619367  0.34302638  1  -0.587646  0.001558  1.928439  0.003  -0.541196  0.004508  2.144559  0.006  -0.565608  0.002959  2.135445  0.004  -0.310238  -0.523788  0.0064  2.150125  0.008
O  O54  1  0.65893904  0.16619586  0.84300033  1  -0.587777  0.001569  1.928359  0.003  -0.541415  0.004534  2.144506  0.006  -0.565841  0.002979  2.13537  0.004  -0.310273  -0.523999  0.006428  2.150121  0.008
O  O55  1  0.15910607  0.33379664  0.65698957  1  -0.587432  0.001577  1.928674  0.003  -0.541078  0.004523  2.144685  0.006  -0.565519  0.002975  2.135573  0.004  -0.31015  -0.523651  0.006421  2.150258  0.008
O  O56  1  0.40455015  0.11731405  0.99293818  1  -0.848855  0.048343  2.001746  0.026  -0.774971  0.064791  2.245236  0.037  -0.803032  0.058465  2.211069  0.032  -0.539524  -0.753648  0.070632  2.268567  0.042
O  O57  1  0.90467180  0.38268529  0.50712588  1  -0.848848  0.048387  2.001215  0.026  -0.774912  0.064837  2.244739  0.037  -0.802954  0.0585  2.210501  0.033  -0.539391  -0.753574  0.070683  2.268058  0.042
O  O58  1  0.59533378  0.88268919  0.00701723  1  -0.8488  0.048316  2.001249  0.026  -0.774686  0.064755  2.244849  0.037  -0.802803  0.058433  2.210828  0.032  -0.539278  -0.753364  0.070596  2.268156  0.042
O  O59  1  0.09533189  0.61736350  0.49299680  1  -0.848938  0.048301  2.001406  0.026  -0.774693  0.064733  2.244797  0.037  -0.802805  0.058411  2.21076  0.032  -0.539108  -0.75338  0.070571  2.268105  0.042
O  O60  1  0.10456697  0.95195709  0.07577652  1  -0.645597  0.045703  2.130425  0.03  -0.569161  0.057619  2.398212  0.04  -0.602267  0.051683  2.386376  0.035  -0.284848  -0.544862  0.06359  2.405501  0.046
O  O61  1  0.60459513  0.54799132  0.42418711  1  -0.64554  0.045599  2.129728  0.03  -0.568975  0.057518  2.397217  0.04  -0.60205  0.051584  2.385393  0.035  -0.284663  -0.544658  0.06348  2.404404  0.046
O  O62  1  0.89537311  0.04805987  0.92419419  1  -0.645606  0.04572  2.130228  0.03  -0.569098  0.057634  2.397898  0.04  -0.602196  0.051696  2.386061  0.035  -0.284847  -0.544819  0.063605  2.405241  0.046
O  O63  1  0.39554710  0.45194224  0.57578499  1  -0.645416  0.045685  2.130136  0.03  -0.568846  0.05759  2.397357  0.04  -0.601927  0.051653  2.385522  0.035  -0.284708  -0.544664  0.063561  2.404893  0.046
O  O64  1  0.43782648  0.26057540  0.39436300  1  -0.645362  0.035621  2.075324  0.024  -0.577145  0.04222  2.342765  0.026  -0.608011  0.037252  2.328094  0.022  -0.306892  -0.553819  0.046736  2.351636  0.03
O  O65  1  0.93814384  0.23935093  0.10563679  1  -0.64539  0.035602  2.074824  0.024  -0.577179  0.042216  2.342215  0.026  -0.608055  0.037249  2.327543  0.022  -0.306763  -0.553857  0.046735  2.351078  0.03
O  O66  1  0.56199568  0.73937278  0.60562770  1  -0.6453  0.035598  2.075492  0.024  -0.577116  0.0422  2.342915  0.026  -0.607997  0.037239  2.328251  0.022  -0.306801  -0.553791  0.046706  2.35175  0.03
O  O67  1  0.06190666  0.76064945  0.89438132  1  -0.645444  0.035583  2.075199  0.024  -0.577141  0.042198  2.342666  0.026  -0.60802  0.037233  2.328001  0.022  -0.30661  -0.553825  0.046716  2.351521  0.03
O  O68  1  0.44322503  0.17227991  0.21639474  1  -0.596506  0.025446  2.017997  0.019  -0.541381  0.034059  2.272321  0.025  -0.570376  0.029537  2.264296  0.021  -0.281655  -0.52019  0.038813  2.277028  0.03
O  O69  1  0.94324755  0.32776747  0.28361622  1  -0.596359  0.025476  2.017835  0.019  -0.541276  0.034082  2.272228  0.025  -0.570278  0.029559  2.264179  0.021  -0.281709  -0.520081  0.038838  2.276935  0.03
O  O70  1  0.55683109  0.82772418  0.78359946  1  -0.596455  0.025433  2.017777  0.019  -0.541383  0.034051  2.272081  0.025  -0.570339  0.029529  2.263978  0.021  -0.281689  -0.52019  0.038803  2.276781  0.03
O  O71  1  0.05684787  0.67226043  0.71639466  1  -0.596439  0.025476  2.017479  0.019  -0.54136  0.034081  2.272066  0.025  -0.570284  0.029555  2.263861  0.021  -0.281707  -0.52016  0.038841  2.276766  0.03
