# generated using pymatgen
data_Cd2H16C26S2N2O9
_symmetry_space_group_name_H-M   'P 1'
_cell_length_a   10.21634498
_cell_length_b   12.01553776
_cell_length_c   12.01554043
_cell_angle_alpha   71.62022575
_cell_angle_beta   73.74362302
_cell_angle_gamma   73.74357924
_symmetry_Int_Tables_number   1
_chemical_formula_structural   Cd2H16C26S2N2O9
_chemical_formula_sum   'Cd4 H32 C52 S4 N4 O18'
_cell_volume   1313.68673774
_cell_formula_units_Z   2
loop_
 _symmetry_equiv_pos_site_id
 _symmetry_equiv_pos_as_xyz
  1  'x, y, z'
loop_
 _atom_site_type_symbol
 _atom_site_label
 _atom_site_symmetry_multiplicity
 _atom_site_fract_x
 _atom_site_fract_y
 _atom_site_fract_z
 _atom_site_occupancy
 _atom_site_hle17_bader_spin_density
 _atom_site_hle17_ddec_charge
 _atom_site_hle17_ddec_spin_density
 _atom_site_hle17_ddec_sum_bond_order
 _atom_site_hle17_magmom
 _atom_site_hse06_10hf_bader_spin_density
 _atom_site_hse06_10hf_ddec_charge
 _atom_site_hse06_10hf_ddec_spin_density
 _atom_site_hse06_10hf_ddec_sum_bond_order
 _atom_site_hse06_10hf_magmom
 _atom_site_hse06_bader_spin_density
 _atom_site_hse06_ddec_charge
 _atom_site_hse06_ddec_spin_density
 _atom_site_hse06_ddec_sum_bond_order
 _atom_site_hse06_magmom
 _atom_site_pbe_bader_spin_density
 _atom_site_pbe_cm5_charge
 _atom_site_pbe_ddec_charge
 _atom_site_pbe_ddec_spin_density
 _atom_site_pbe_ddec_sum_bond_order
 _atom_site_pbe_magmom
Cd  Cd0  1  0.91800709  0.56825615  0.29602073  1  0  1.19025  0  1.614967  0  0  1.006061  0  2.059148  0  0  1.066499  0  2.000521  0  0  0.775703  0.959805  0  2.10139  0
Cd  Cd1  1  0.58199241  0.70397939  0.43174403  1  0  1.190246  0  1.615004  0  0  1.006047  0  2.059189  0  0  1.066483  0  2.000561  0  0  0.775695  0.959785  0  2.101437  0
Cd  Cd2  1  0.08199313  0.43174384  0.70397826  1  0  1.190224  0  1.614981  0  0  1.006024  0  2.059163  0  0  1.066461  0  2.000537  0  0  0.77569  0.959763  0  2.101404  0
Cd  Cd3  1  0.41800701  0.29601970  0.56825709  1  0  1.19025  0  1.614987  0  0  1.006058  0  2.059177  0  0  1.066495  0  2.000548  0  0  0.775695  0.959797  0  2.101413  0
H  H4  1  0.71507667  0.44551356  0.48916806  1  0  0.437223  0  0.865323  0  0  0.40124  0  0.936028  0  0  0.413667  0  0.918425  0  0  0.287933  0.392251  0  0.948741  0
H  H5  1  0.78492376  0.51083167  0.55448607  1  0  0.437224  0  0.865323  0  0  0.401245  0  0.936019  0  0  0.413672  0  0.918416  0  0  0.287928  0.392257  0  0.948732  0
H  H6  1  0.28492377  0.55448553  0.51083199  1  0  0.437248  0  0.865288  0  0  0.401266  0  0.93599  0  0  0.413693  0  0.918386  0  0  0.287938  0.392278  0  0.948701  0
H  H7  1  0.21507667  0.48916742  0.44551398  1  0  0.437221  0  0.865326  0  0  0.401241  0  0.936025  0  0  0.413667  0  0.918423  0  0  0.287927  0.392251  0  0.948739  0
H  H8  1  0.37917348  0.55809663  0.28723834  1  0  0.108094  0  0.955475  0  0  0.118223  0  1.016479  0  0  0.122054  0  1.013377  0  0  0.107977  0.115472  0  1.018821  0
H  H9  1  0.12082719  0.71276150  0.44190248  1  0  0.108083  0  0.955467  0  0  0.118212  0  1.016475  0  0  0.122043  0  1.013372  0  0  0.107967  0.115463  0  1.018815  0
H  H10  1  0.62082594  0.44190245  0.71276278  1  0  0.108102  0  0.955474  0  0  0.118214  0  1.016494  0  0  0.122043  0  1.013393  0  0  0.107964  0.115463  0  1.018842  0
H  H11  1  0.87917325  0.28723760  0.55809590  1  0  0.108124  0  0.95549  0  0  0.118235  0  1.016508  0  0  0.122065  0  1.013406  0  0  0.107972  0.115484  0  1.018854  0
H  H12  1  0.75803663  0.39897301  0.07912904  1  0  0.104304  0  0.962743  0  0  0.113697  0  1.025869  0  0  0.116292  0  1.024793  0  0  0.104465  0.112199  0  1.026032  0
H  H13  1  0.74196407  0.92086919  0.60102773  1  0  0.104297  0  0.962746  0  0  0.113694  0  1.025867  0  0  0.116289  0  1.024791  0  0  0.104452  0.112194  0  1.026029  0
H  H14  1  0.24196133  0.60102788  0.92087020  1  0  0.104307  0  0.962727  0  0  0.113706  0  1.025851  0  0  0.1163  0  1.024775  0  0  0.104466  0.112208  0  1.026016  0
H  H15  1  0.25803841  0.07912991  0.39897100  1  0  0.104302  0  0.962714  0  0  0.113697  0  1.025841  0  0  0.116291  0  1.024763  0  0  0.104454  0.112199  0  1.026006  0
H  H16  1  0.62559393  0.28771678  0.02162102  1  0  0.092617  0  0.950031  0  0  0.102197  0  1.012016  0  0  0.104708  0  1.012113  0  0  0.099227  0.100338  0  1.012335  0
H  H17  1  0.87440531  0.97837789  0.71228405  1  0  0.092608  0  0.950006  0  0  0.102182  0  1.012003  0  0  0.104692  0  1.012102  0  0  0.099212  0.100324  0  1.012324  0
H  H18  1  0.37440527  0.71228321  0.97837987  1  0  0.092601  0  0.950023  0  0  0.10218  0  1.01201  0  0  0.10469  0  1.012109  0  0  0.099219  0.100318  0  1.012331  0
H  H19  1  0.12559309  0.02162120  0.28771564  1  0  0.092602  0  0.950035  0  0  0.102183  0  1.012022  0  0  0.104694  0  1.01212  0  0  0.099221  0.10032  0  1.012343  0
H  H20  1  0.36295581  0.02909184  0.06855765  1  0  0.107036  0  0.944718  0  0  0.119798  0  0.999045  0  0  0.123011  0  0.998667  0  0  0.103948  0.117407  0  0.999611  0
H  H21  1  0.13704262  0.93144222  0.97090827  1  0  0.107041  0  0.9447  0  0  0.119815  0  0.999013  0  0  0.12302  0  0.998643  0  0  0.10397  0.117416  0  0.999585  0
H  H22  1  0.63704338  0.97090814  0.93144325  1  0  0.107017  0  0.944736  0  0  0.119789  0  0.999053  0  0  0.122995  0  0.998683  0  0  0.10395  0.117395  0  0.999628  0
H  H23  1  0.86295490  0.06856046  0.02909135  1  0  0.107043  0  0.944697  0  0  0.1198  0  0.999027  0  0  0.123015  0  0.998642  0  0  0.103963  0.117395  0  0.999609  0
H  H24  1  0.46239928  0.82469575  0.18618091  1  0  0.086172  0  0.942106  0  0  0.093603  0  1.006651  0  0  0.096758  0  1.003458  0  0  0.11334  0.091163  0  1.009172  0
H  H25  1  0.03760047  0.81381871  0.17530464  1  0  0.086171  0  0.942135  0  0  0.093601  0  1.006678  0  0  0.096757  0  1.003485  0  0  0.113335  0.091163  0  1.009197  0
H  H26  1  0.53759992  0.17530424  0.81381999  1  0  0.086163  0  0.942106  0  0  0.093593  0  1.006658  0  0  0.096748  0  1.003466  0  0  0.113332  0.091156  0  1.009178  0
H  H27  1  0.96239953  0.18618218  0.82469495  1  0  0.086173  0  0.942126  0  0  0.093601  0  1.006677  0  0  0.096756  0  1.003485  0  0  0.113324  0.09116  0  1.009197  0
H  H28  1  0.59673779  0.96813162  0.39528296  1  0  0.091131  0  0.93515  0  0  0.099498  0  0.998324  0  0  0.102145  0  0.995628  0  0  0.116808  0.097365  0  1.000519  0
H  H29  1  0.90326276  0.60471680  0.03186824  1  0  0.091112  0  0.93519  0  0  0.099496  0  0.998336  0  0  0.102145  0  0.99564  0  0  0.116807  0.097363  0  1.000535  0
H  H30  1  0.40326265  0.03186746  0.60471792  1  0  0.091114  0  0.935188  0  0  0.099489  0  0.998347  0  0  0.10214  0  0.995654  0  0  0.116801  0.09736  0  1.000545  0
H  H31  1  0.09673826  0.39528409  0.96813028  1  0  0.091197  0  0.935107  0  0  0.099544  0  0.998283  0  0  0.102187  0  0.995587  0  0  0.116833  0.097412  0  1.000479  0
H  H32  1  0.51141787  0.17505585  0.28699802  1  0  0.129836  0  0.963305  0  0  0.137306  0  1.02528  0  0  0.140901  0  1.02438  0  0  0.108497  0.134508  0  1.026554  0
H  H33  1  0.98858241  0.71300209  0.82494390  1  0  0.129831  0  0.963293  0  0  0.137301  0  1.025271  0  0  0.140896  0  1.024371  0  0  0.108496  0.1345  0  1.026546  0
H  H34  1  0.48858359  0.82494324  0.71300262  1  0  0.129819  0  0.9633  0  0  0.137301  0  1.025257  0  0  0.140896  0  1.024358  0  0  0.108507  0.134504  0  1.026521  0
H  H35  1  0.01141985  0.28699790  0.17505544  1  0  0.129853  0  0.96328  0  0  0.137313  0  1.025278  0  0  0.140907  0  1.02438  0  0  0.108494  0.134515  0  1.026553  0
C  C36  1  0.20036942  0.45809688  0.24200126  1  0  0.643189  0  3.912815  0  0  0.591242  0  4.203567  0  0  0.625581  0  4.198627  0  0  0.198923  0.567995  0  4.205397  0
C  C37  1  0.29962968  0.75799956  0.54190242  1  0  0.643173  0  3.912824  0  0  0.591231  0  4.20357  0  0  0.62557  0  4.19863  0  0  0.198951  0.567983  0  4.205398  0
C  C38  1  0.79962898  0.54190221  0.75800093  1  0  0.643181  0  3.912871  0  0  0.591226  0  4.203639  0  0  0.625565  0  4.198703  0  0  0.198955  0.56798  0  4.205465  0
C  C39  1  0.70037155  0.24200042  0.45809883  1  0  0.643244  0  3.912711  0  0  0.591286  0  4.203482  0  0  0.625627  0  4.198543  0  0  0.198961  0.568042  0  4.205311  0
C  C40  1  0.65709290  0.54019627  0.23445430  1  0  0.664771  0  3.913322  0  0  0.609368  0  4.211177  0  0  0.645791  0  4.203209  0  0  0.207722  0.584358  0  4.215736  0
C  C41  1  0.84290862  0.76554660  0.45980084  1  0  0.664731  0  3.913452  0  0  0.609254  0  4.211411  0  0  0.645678  0  4.203443  0  0  0.207646  0.584242  0  4.21597  0
C  C42  1  0.34290798  0.45980103  0.76554704  1  0  0.664892  0  3.913296  0  0  0.609436  0  4.211224  0  0  0.645861  0  4.203255  0  0  0.207714  0.584418  0  4.215796  0
C  C43  1  0.15709182  0.23445250  0.54019837  1  0  0.664778  0  3.913338  0  0  0.609271  0  4.211338  0  0  0.645695  0  4.203373  0  0  0.207655  0.584248  0  4.215909  0
C  C44  1  0.35583927  0.43399451  0.20104029  1  0  -0.085658  0  3.721499  0  0  -0.066626  0  3.953737  0  0  -0.074597  0  3.975114  0  0  -0.012049  -0.061304  0  3.939201  0
C  C45  1  0.14416052  0.79895916  0.56600662  1  0  -0.085614  0  3.721546  0  0  -0.066608  0  3.953762  0  0  -0.074578  0  3.97514  0  0  -0.01206  -0.061286  0  3.939226  0
C  C46  1  0.64415971  0.56600638  0.79895954  1  0  -0.085569  0  3.721487  0  0  -0.066548  0  3.953697  0  0  -0.074521  0  3.975078  0  0  -0.012047  -0.061229  0  3.939159  0
C  C47  1  0.85583948  0.20104174  0.43399131  1  0  -0.085603  0  3.721629  0  0  -0.066584  0  3.953825  0  0  -0.074556  0  3.975203  0  0  -0.012062  -0.06127  0  3.93929  0
C  C48  1  0.43234671  0.49646396  0.23106295  1  0  -0.070819  0  3.693109  0  0  -0.104512  0  3.938102  0  0  -0.102994  0  3.956936  0  0  -0.077123  -0.10521  0  3.925853  0
C  C49  1  0.06765376  0.76893782  0.50353562  1  0  -0.07086  0  3.693145  0  0  -0.104556  0  3.938147  0  0  -0.103038  0  3.956984  0  0  -0.077142  -0.105259  0  3.925902  0
C  C50  1  0.56765373  0.50353513  0.76893876  1  0  -0.070836  0  3.693193  0  0  -0.10451  0  3.938187  0  0  -0.102994  0  3.957026  0  0  -0.077133  -0.105213  0  3.925945  0
C  C51  1  0.93234522  0.23106308  0.49646255  1  0  -0.070905  0  3.693209  0  0  -0.104587  0  3.938197  0  0  -0.103069  0  3.957034  0  0  -0.077136  -0.105288  0  3.925955  0
C  C52  1  0.57673042  0.48140559  0.19074703  1  0  -0.052823  0  3.744346  0  0  -0.029477  0  3.982104  0  0  -0.037728  0  4.003705  0  0  -0.014222  -0.024127  0  3.967923  0
C  C53  1  0.92327030  0.80925079  0.51859553  1  0  -0.052805  0  3.744306  0  0  -0.029439  0  3.982081  0  0  -0.037691  0  4.003683  0  0  -0.014199  -0.024089  0  3.967898  0
C  C54  1  0.42326957  0.51859530  0.80925256  1  0  -0.05295  0  3.744338  0  0  -0.029602  0  3.982137  0  0  -0.037854  0  4.00374  0  0  -0.01424  -0.02425  0  3.967958  0
C  C55  1  0.07673014  0.19074831  0.48140369  1  0  -0.052783  0  3.744257  0  0  -0.029401  0  3.982014  0  0  -0.037652  0  4.003616  0  0  -0.014195  -0.024048  0  3.967834  0
C  C56  1  0.64618516  0.40758683  0.11335567  1  0  -0.038971  0  3.70567  0  0  -0.069749  0  3.962247  0  0  -0.06725  0  3.980629  0  0  -0.077327  -0.071346  0  3.949697  0
C  C57  1  0.85381459  0.88664346  0.59241333  1  0  -0.038961  0  3.70564  0  0  -0.069743  0  3.962224  0  0  -0.067245  0  3.980607  0  0  -0.077314  -0.071332  0  3.949666  0
C  C58  1  0.35381302  0.59241315  0.88664463  1  0  -0.038943  0  3.705579  0  0  -0.069723  0  3.962158  0  0  -0.067225  0  3.980541  0  0  -0.077322  -0.071318  0  3.949605  0
C  C59  1  0.14618563  0.11335653  0.40758566  1  0  -0.038972  0  3.705647  0  0  -0.069749  0  3.962214  0  0  -0.06725  0  3.980595  0  0  -0.07731  -0.071343  0  3.949663  0
C  C60  1  0.57191224  0.34614459  0.08121263  1  0  -0.103825  0  3.758145  0  0  -0.124788  0  4.015664  0  0  -0.129552  0  4.038044  0  0  -0.08604  -0.121733  0  4.000916  0
C  C61  1  0.92808771  0.91878639  0.65385638  1  0  -0.103732  0  3.758115  0  0  -0.124711  0  4.015607  0  0  -0.129473  0  4.037988  0  0  -0.085985  -0.121663  0  4.000866  0
C  C62  1  0.42808674  0.65385629  0.91878720  1  0  -0.103705  0  3.758095  0  0  -0.124682  0  4.015597  0  0  -0.129448  0  4.037979  0  0  -0.085983  -0.121629  0  4.000846  0
C  C63  1  0.07191353  0.08121361  0.34614153  1  0  -0.103722  0  3.758133  0  0  -0.124711  0  4.015623  0  0  -0.129474  0  4.038002  0  0  -0.086006  -0.121662  0  4.000874  0
C  C64  1  0.42834347  0.35567058  0.12712205  1  0  0.037071  0  3.727591  0  0  0.051952  0  3.975157  0  0  0.054999  0  3.99729  0  0  0.005525  0.049786  0  3.960053  0
C  C65  1  0.07165639  0.87287784  0.64432910  1  0  0.036954  0  3.727765  0  0  0.051919  0  3.975216  0  0  0.054966  0  3.997343  0  0  0.005509  0.049751  0  3.960116  0
C  C66  1  0.57165573  0.64432940  0.87287885  1  0  0.036916  0  3.72772  0  0  0.051857  0  3.975208  0  0  0.054908  0  3.997332  0  0  0.005492  0.049698  0  3.960092  0
C  C67  1  0.92834463  0.12712306  0.35566942  1  0  0.036914  0  3.727749  0  0  0.051873  0  3.975211  0  0  0.054921  0  3.997342  0  0  0.005503  0.049721  0  3.960088  0
C  C68  1  0.42899814  0.12089889  0.16678079  1  0  0.080703  0  3.799922  0  0  0.096087  0  4.057827  0  0  0.103594  0  4.078101  0  0  0.007598  0.090341  0  4.04438  0
C  C69  1  0.07100185  0.83321957  0.87910250  1  0  0.080628  0  3.79987  0  0  0.096003  0  4.057802  0  0  0.103509  0  4.078078  0  0  0.007586  0.090258  0  4.044347  0
C  C70  1  0.57100309  0.87910109  0.83321962  1  0  0.080591  0  3.799974  0  0  0.095993  0  4.057866  0  0  0.103501  0  4.078144  0  0  0.007564  0.09025  0  4.044413  0
C  C71  1  0.92899792  0.16678221  0.12089687  1  0  0.080686  0  3.799896  0  0  0.096052  0  4.057834  0  0  0.103557  0  4.078114  0  0  0.007612  0.090312  0  4.044376  0
C  C72  1  0.41493356  0.01928130  0.13997785  1  0  -0.18867  0  3.758206  0  0  -0.204325  0  4.007521  0  0  -0.213113  0  4.028065  0  0  -0.100532  -0.198636  0  3.994526  0
C  C73  1  0.08506554  0.86002260  0.98071985  1  0  -0.1886  0  3.758211  0  0  -0.204258  0  4.007526  0  0  -0.213038  0  4.02807  0  0  -0.100531  -0.198571  0  3.994537  0
C  C74  1  0.58506665  0.98071869  0.86002281  1  0  -0.188551  0  3.75826  0  0  -0.204215  0  4.007555  0  0  -0.212997  0  4.028102  0  0  -0.1005  -0.198535  0  3.994577  0
C  C75  1  0.91493219  0.13997917  0.01928084  1  0  -0.188606  0  3.758204  0  0  -0.204243  0  4.007519  0  0  -0.21303  0  4.028057  0  0  -0.10053  -0.198557  0  3.99454  0
C  C76  1  0.46902573  0.90573723  0.20519451  1  0  0.129936  0  3.732219  0  0  0.100462  0  3.98182  0  0  0.10916  0  3.9993  0  0  0.037272  0.094516  0  3.970399  0
C  C77  1  0.03097519  0.79480565  0.09426310  1  0  0.129892  0  3.732208  0  0  0.100424  0  3.981811  0  0  0.109122  0  3.999289  0  0  0.037266  0.09448  0  3.970385  0
C  C78  1  0.53097471  0.09426186  0.79480637  1  0  0.129897  0  3.732192  0  0  0.100426  0  3.981802  0  0  0.109125  0  3.99928  0  0  0.037262  0.094479  0  3.97038  0
C  C79  1  0.96902379  0.20519524  0.90573674  1  0  0.129834  0  3.732247  0  0  0.100359  0  3.981846  0  0  0.109056  0  3.99933  0  0  0.037256  0.094421  0  3.970413  0
C  C80  1  0.54682878  0.98514579  0.32064215  1  0  0.142297  0  3.716004  0  0  0.10911  0  3.974136  0  0  0.11897  0  3.989379  0  0  0.043026  0.102847  0  3.96311  0
C  C81  1  0.95317185  0.67935552  0.01485574  1  0  0.142281  0  3.716031  0  0  0.109094  0  3.974171  0  0  0.118952  0  3.989419  0  0  0.043008  0.102821  0  3.963149  0
C  C82  1  0.45317268  0.01485331  0.67935682  1  0  0.142265  0  3.716046  0  0  0.109075  0  3.974166  0  0  0.118926  0  3.989423  0  0  0.043003  0.102794  0  3.96315  0
C  C83  1  0.04682858  0.32064357  0.98514430  1  0  0.142156  0  3.716047  0  0  0.109002  0  3.974184  0  0  0.118869  0  3.989423  0  0  0.042986  0.102727  0  3.963168  0
C  C84  1  0.49825135  0.10178765  0.25919987  1  0  -0.174139  0  3.732486  0  0  -0.194578  0  3.986892  0  0  -0.202323  0  4.005357  0  0  -0.092862  -0.189465  0  3.974332  0
C  C85  1  0.00174940  0.74079981  0.89821253  1  0  -0.174095  0  3.732404  0  0  -0.194548  0  3.986843  0  0  -0.202287  0  4.005298  0  0  -0.092855  -0.189423  0  3.974276  0
C  C86  1  0.50175090  0.89821234  0.74079947  1  0  -0.174104  0  3.732464  0  0  -0.194571  0  3.986902  0  0  -0.202306  0  4.005348  0  0  -0.092866  -0.189452  0  3.974337  0
C  C87  1  0.99825161  0.25920108  0.10178766  1  0  -0.174111  0  3.732438  0  0  -0.19456  0  3.986862  0  0  -0.202304  0  4.005325  0  0  -0.092867  -0.189441  0  3.9743  0
S  S88  1  0.34696351  0.26210720  0.09209423  1  0  0.051511  0  2.478548  0  0  0.042585  0  2.80677  0  0  0.037805  0  2.809828  0  0  0.064026  0.047057  0  2.804121  0
S  S89  1  0.15303665  0.90790565  0.73789246  1  0  0.051575  0  2.478513  0  0  0.042621  0  2.80672  0  0  0.037841  0  2.809778  0  0  0.064037  0.047096  0  2.804064  0
S  S90  1  0.65303591  0.73789189  0.90790689  1  0  0.051587  0  2.478557  0  0  0.042627  0  2.806766  0  0  0.037846  0  2.809823  0  0  0.064038  0.047097  0  2.804111  0
S  S91  1  0.84696232  0.09209524  0.26210654  1  0  0.051566  0  2.478506  0  0  0.042614  0  2.806719  0  0  0.037837  0  2.809777  0  0  0.064029  0.047079  0  2.804059  0
N  N92  1  0.53353943  0.88805854  0.29497076  1  0  -0.358856  0  3.266365  0  0  -0.283284  0  3.533882  0  0  -0.304521  0  3.55154  0  0  -0.344153  -0.268676  0  3.521333  0
N  N93  1  0.96646101  0.70502829  0.11194137  1  0  -0.358839  0  3.266328  0  0  -0.28328  0  3.53386  0  0  -0.304521  0  3.551521  0  0  -0.344153  -0.268671  0  3.52131  0
N  N94  1  0.46646101  0.11194055  0.70502929  1  0  -0.358808  0  3.266294  0  0  -0.28324  0  3.533812  0  0  -0.304479  0  3.551476  0  0  -0.344131  -0.268624  0  3.521257  0
N  N95  1  0.03353898  0.29497259  0.88805823  1  0  -0.358788  0  3.266397  0  0  -0.283207  0  3.533878  0  0  -0.304447  0  3.55154  0  0  -0.344155  -0.268592  0  3.521319  0
O  O96  1  0.12638535  0.44496045  0.18094866  1  0  -0.608611  0  1.961304  0  0  -0.552911  0  2.196917  0  0  -0.580709  0  2.191151  0  0  -0.308003  -0.532241  0  2.200547  0
O  O97  1  0.37361496  0.81905157  0.55503898  1  0  -0.608618  0  1.961259  0  0  -0.552921  0  2.196875  0  0  -0.580722  0  2.191111  0  0  -0.30804  -0.532248  0  2.200496  0
O  O98  1  0.87361486  0.55503954  0.81905283  1  0  -0.608627  0  1.961301  0  0  -0.55292  0  2.196906  0  0  -0.58072  0  2.191144  0  0  -0.30803  -0.532251  0  2.200531  0
O  O99  1  0.62638287  0.18094573  0.44495974  1  0  -0.608683  0  1.961112  0  0  -0.552979  0  2.196732  0  0  -0.580783  0  2.19097  0  0  -0.308042  -0.532297  0  2.20033  0
O  O100  1  0.14507521  0.49975856  0.33595996  1  0  -0.664565  0  2.00066  0  0  -0.587217  0  2.235916  0  0  -0.619118  0  2.225057  0  0  -0.327496  -0.564034  0  2.242334  0
O  O101  1  0.35492517  0.66404046  0.50024118  1  0  -0.664539  0  2.000672  0  0  -0.587191  0  2.235926  0  0  -0.61909  0  2.225066  0  0  -0.327485  -0.564009  0  2.242343  0
O  O102  1  0.85492522  0.50024053  0.66404092  1  0  -0.664549  0  2.000685  0  0  -0.5872  0  2.235942  0  0  -0.6191  0  2.225084  0  0  -0.327484  -0.564019  0  2.242359  0
O  O103  1  0.64507366  0.33595682  0.49976313  1  0  -0.664569  0  2.000674  0  0  -0.587215  0  2.235944  0  0  -0.619114  0  2.225081  0  0  -0.327502  -0.564039  0  2.242367  0
O  O104  1  0.59067359  0.63040090  0.27488612  1  0  -0.670578  0  2.067419  0  0  -0.607089  0  2.333618  0  0  -0.636802  0  2.320513  0  0  -0.333951  -0.585321  0  2.341234  0
O  O105  1  0.90932504  0.72511565  0.36959922  1  0  -0.670553  0  2.067564  0  0  -0.607045  0  2.333809  0  0  -0.636755  0  2.320694  0  0  -0.333935  -0.585279  0  2.341424  0
O  O106  1  0.40932641  0.36959998  0.72511514  1  0  -0.670583  0  2.067531  0  0  -0.607082  0  2.333773  0  0  -0.636787  0  2.320646  0  0  -0.333919  -0.585313  0  2.34139  0
O  O107  1  0.09067314  0.27488435  0.63039942  1  0  -0.670562  0  2.06743  0  0  -0.607043  0  2.333687  0  0  -0.636745  0  2.32056  0  0  -0.333923  -0.585271  0  2.341304  0
O  O108  1  0.78649185  0.49236592  0.22862431  1  0  -0.634163  0  2.011113  0  0  -0.565738  0  2.266996  0  0  -0.59636  0  2.2564  0  0  -0.321868  -0.543758  0  2.274473  0
O  O109  1  0.71350739  0.77137796  0.50763205  1  0  -0.634165  0  2.011153  0  0  -0.565699  0  2.267057  0  0  -0.596323  0  2.256461  0  0  -0.321828  -0.543716  0  2.27453  0
O  O110  1  0.21350756  0.50763317  0.77137597  1  0  -0.634228  0  2.01109  0  0  -0.565786  0  2.267014  0  0  -0.59641  0  2.256416  0  0  -0.32189  -0.5438  0  2.27449  0
O  O111  1  0.28649282  0.22862203  0.49236693  1  0  -0.634153  0  2.011128  0  0  -0.565697  0  2.267065  0  0  -0.596322  0  2.256471  0  0  -0.321825  -0.543714  0  2.274544  0
O  O112  1  0.74999935  0.51971674  0.48028393  1  0  -0.888944  0  1.968658  0  0  -0.804277  0  2.196759  0  0  -0.833747  0  2.157412  0  0  -0.572692  -0.7831  0  2.224748  0
O  O113  1  0.24999984  0.48028324  0.51971613  1  0  -0.888945  0  1.968587  0  0  -0.804276  0  2.196694  0  0  -0.833746  0  2.15735  0  0  -0.572695  -0.7831  0  2.22468  0
