# generated using pymatgen
data_HgH15C22I2(NCl)4
_symmetry_space_group_name_H-M   'P 1'
_cell_length_a   10.03585907
_cell_length_b   11.90906691
_cell_length_c   12.90978280
_cell_angle_alpha   98.83983831
_cell_angle_beta   101.86513703
_cell_angle_gamma   113.55469895
_symmetry_Int_Tables_number   1
_chemical_formula_structural   HgH15C22I2(NCl)4
_chemical_formula_sum   'Hg2 H30 C44 I4 N8 Cl8'
_cell_volume   1335.48040432
_cell_formula_units_Z   2
loop_
 _symmetry_equiv_pos_site_id
 _symmetry_equiv_pos_as_xyz
  1  'x, y, z'
loop_
 _atom_site_type_symbol
 _atom_site_label
 _atom_site_symmetry_multiplicity
 _atom_site_fract_x
 _atom_site_fract_y
 _atom_site_fract_z
 _atom_site_occupancy
 _atom_site_pbe_bader_spin_density
 _atom_site_pbe_cm5_charge
 _atom_site_pbe_ddec_charge
 _atom_site_pbe_ddec_spin_density
 _atom_site_pbe_ddec_sum_bond_order
 _atom_site_pbe_magmom
Hg  Hg0  1  0.81963031  0.93186919  0.31992800  1  0  0.381938  0.35185  0  2.743838  0
Hg  Hg1  1  0.18037149  0.06813135  0.68007114  1  0  0.381952  0.351881  0  2.743745  0
H  H2  1  0.29222896  0.75882774  0.20167810  1  0  0.093762  0.091119  0  1.0313  0
H  H3  1  0.70776979  0.24117090  0.79832416  1  0  0.093757  0.091112  0  1.03132  0
H  H4  1  0.40688340  0.81481644  0.05494651  1  0  0.110272  0.105994  0  0.96947  0
H  H5  1  0.59311229  0.18517651  0.94505213  1  0  0.110273  0.106017  0  0.969385  0
H  H6  1  0.40569279  0.48883484  0.43317018  1  0  0.311058  0.267354  0  1.002222  0
H  H7  1  0.59430951  0.51116475  0.56682814  1  0  0.311051  0.267367  0  1.002226  0
H  H8  1  0.76777351  0.23241677  0.34837060  1  0  0.089712  0.107549  0  1.065057  0
H  H9  1  0.23222727  0.76758377  0.65163071  1  0  0.089717  0.107581  0  1.064927  0
H  H10  1  0.56403235  0.22163064  0.17140533  1  0  0.090516  0.110052  0  1.046864  0
H  H11  1  0.43597301  0.77837084  0.82859607  1  0  0.090507  0.109992  0  1.046907  0
H  H12  1  0.14483650  0.38886764  0.09930066  1  0  0.09075  0.109118  0  1.064813  0
H  H13  1  0.85516378  0.61113765  0.90069893  1  0  0.090762  0.109126  0  1.064813  0
H  H14  1  0.05577863  0.53222276  0.22119073  1  0  0.092322  0.109903  0  1.067924  0
H  H15  1  0.94422470  0.46778063  0.77881216  1  0  0.092384  0.110026  0  1.067868  0
H  H16  1  0.14929519  0.12886946  0.10933109  1  0  0.095769  0.109687  0  1.041497  0
H  H17  1  0.85070457  0.87113109  0.89066774  1  0  0.09577  0.1097  0  1.041473  0
H  H18  1  0.07931751  0.03057900  0.90611072  1  0  0.095326  0.06674  0  1.050302  0
H  H19  1  0.92068276  0.96942250  0.09388909  1  0  0.095322  0.06675  0  1.050281  0
H  H20  1  0.44549753  0.33040798  0.87263503  1  0  0.097817  0.066052  0  1.042417  0
H  H21  1  0.55450019  0.66959067  0.12736320  1  0  0.097822  0.066091  0  1.042381  0
H  H22  1  0.53108227  0.44089063  0.07345845  1  0  0.101123  0.111714  0  1.024267  0
H  H23  1  0.46891698  0.55911087  0.92654043  1  0  0.10112  0.11171  0  1.024275  0
H  H24  1  0.08617228  0.48296113  0.61970744  1  0  0.105069  0.120615  0  1.018955  0
H  H25  1  0.91382545  0.51703751  0.38029312  1  0  0.105062  0.12059  0  1.018971  0
H  H26  1  0.23075982  0.35801421  0.66084595  1  0  0.10399  0.078896  0  1.013214  0
H  H27  1  0.76923740  0.64198538  0.33915466  1  0  0.103972  0.078844  0  1.013241  0
H  H28  1  0.83339475  0.02468875  0.58753450  1  0  0.089754  0.06428  0  1.06143  0
H  H29  1  0.16660552  0.97531084  0.41246660  1  0  0.089756  0.064278  0  1.061402  0
H  H30  1  0.67217229  0.13281334  0.53309584  1  0  0.097794  0.116871  0  1.01664  0
H  H31  1  0.32782645  0.86718531  0.46690333  1  0  0.097787  0.116839  0  1.016705  0
C  C32  1  0.24511971  0.80183207  0.14379170  1  0  -0.031021  0.062859  0  3.909013  0
C  C33  1  0.75488005  0.19816657  0.85620918  1  0  -0.031011  0.062842  0  3.909102  0
C  C34  1  0.28276575  0.77376582  0.03658393  1  0  -0.025322  0.068078  0  3.9106  0
C  C35  1  0.71723146  0.22622997  0.96341459  1  0  -0.025308  0.068086  0  3.910551  0
C  C36  1  0.67847814  0.35331099  0.43921716  1  0  0.089445  0.191273  0  4.054442  0
C  C37  1  0.32152162  0.64668765  0.56078295  1  0  0.089455  0.191286  0  4.054567  0
C  C38  1  0.69009714  0.27528623  0.34581132  1  0  -0.106366  -0.173623  0  3.952743  0
C  C39  1  0.30990517  0.72471145  0.65418827  1  0  -0.106398  -0.173726  0  3.952953  0
C  C40  1  0.58777499  0.27096649  0.25591361  1  0  -0.115184  -0.186805  0  3.979605  0
C  C41  1  0.41222223  0.72903311  0.74408468  1  0  -0.115168  -0.186677  0  3.979799  0
C  C42  1  0.51304376  0.34431671  0.29553541  1  0  0.088727  0.195884  0  4.05849  0
C  C43  1  0.48695396  0.65568194  0.70446515  1  0  0.088675  0.195811  0  4.058568  0
C  C44  1  0.39222883  0.35462429  0.22686288  1  0  -0.000736  -0.080771  0  3.918359  0
C  C45  1  0.60777245  0.64537530  0.77313528  1  0  -0.000711  -0.080795  0  3.918369  0
C  C46  1  0.30772577  0.41568007  0.25893802  1  0  0.09757  0.191049  0  4.015048  0
C  C47  1  0.69227501  0.58432047  0.74106174  1  0  0.097501  0.190951  0  4.015225  0
C  C48  1  0.18888926  0.42974427  0.18721795  1  0  -0.106401  -0.181552  0  3.990609  0
C  C49  1  0.81111254  0.57025817  0.81278069  1  0  -0.106388  -0.181447  0  3.990603  0
C  C50  1  0.14268592  0.50270906  0.24966229  1  0  -0.105013  -0.179103  0  3.972326  0
C  C51  1  0.85731791  0.49729337  0.75033822  1  0  -0.105088  -0.179349  0  3.972452  0
C  C52  1  0.23053190  0.53439925  0.36181913  1  0  0.098122  0.195307  0  4.001908  0
C  C53  1  0.76947244  0.46560414  0.63818006  1  0  0.098142  0.195396  0  4.001918  0
C  C54  1  0.77036614  0.38417314  0.54770323  1  0  0.002193  -0.074679  0  3.90815  0
C  C55  1  0.22963515  0.61582645  0.45229803  1  0  0.002162  -0.074657  0  3.908118  0
C  C56  1  0.34597031  0.29298282  0.10722863  1  0  0.018163  0.142152  0  3.96857  0
C  C57  1  0.65402996  0.70701677  0.89277014  1  0  0.018185  0.142222  0  3.96849  0
C  C58  1  0.21725753  0.17616692  0.05916542  1  0  -0.085462  -0.168176  0  3.919023  0
C  C59  1  0.78274376  0.82383457  0.94083533  1  0  -0.085468  -0.168181  0  3.918968  0
C  C60  1  0.17840458  0.12181775  0.94723189  1  0  0.036825  0.092704  0  3.98588  0
C  C61  1  0.82159366  0.87818375  0.05276683  1  0  0.036823  0.092681  0  3.98591  0
C  C62  1  0.38264960  0.28947540  0.92823093  1  0  0.030872  0.079414  0  3.984895  0
C  C63  1  0.61734914  0.71052515  0.07176851  1  0  0.030886  0.079399  0  3.984882  0
C  C64  1  0.42969482  0.35026736  0.03951729  1  0  -0.091837  -0.185868  0  3.947385  0
C  C65  1  0.57030697  0.64973128  0.96048236  1  0  -0.091828  -0.185863  0  3.947385  0
C  C66  1  0.86615039  0.31759583  0.57212326  1  0  0.013684  0.133834  0  3.969699  0
C  C67  1  0.13384988  0.68240376  0.42787783  1  0  0.013712  0.133807  0  3.969643  0
C  C68  1  0.02544700  0.38122262  0.61010470  1  0  -0.086609  -0.172626  0  3.916637  0
C  C69  1  0.97455174  0.61877602  0.38989757  1  0  -0.086611  -0.172574  0  3.916583  0
C  C70  1  0.10644843  0.31249273  0.63506574  1  0  0.037426  0.091493  0  3.963644  0
C  C71  1  0.89355184  0.68750686  0.36493536  1  0  0.037419  0.091456  0  3.963681  0
C  C72  1  0.88501857  0.12593729  0.59149597  1  0  0.029346  0.073404  0  4.012645  0
C  C73  1  0.11497966  0.87406231  0.40850480  1  0  0.029334  0.073401  0  4.012565  0
C  C74  1  0.79573226  0.18648367  0.56139042  1  0  -0.086846  -0.170298  0  3.929154  0
C  C75  1  0.20426750  0.81351497  0.43861045  1  0  -0.08684  -0.170256  0  3.929194  0
I  I76  1  0.56410620  0.79777101  0.36776353  1  0  -0.165923  -0.289458  0  1.552062  0
I  I77  1  0.43589865  0.20223713  0.63223873  1  0  -0.165939  -0.289489  0  1.552049  0
I  I78  1  0.04109656  0.15511075  0.32501168  1  0  -0.162906  -0.26387  0  1.539079  0
I  I79  1  0.95890574  0.84488883  0.67498896  1  0  -0.162906  -0.263882  0  1.539073  0
N  N80  1  0.57146732  0.39492639  0.40682993  1  0  -0.348511  -0.408363  0  3.187744  0
N  N81  1  0.42853295  0.60507320  0.59316962  1  0  -0.348448  -0.40828  0  3.187721  0
N  N82  1  0.32611973  0.47760923  0.36373294  1  0  -0.38005  -0.263271  0  3.610982  0
N  N83  1  0.67388461  0.52239416  0.63626702  1  0  -0.380031  -0.263245  0  3.610936  0
N  N84  1  0.25934124  0.17706437  0.88295360  1  0  -0.322414  -0.215254  0  3.495131  0
N  N85  1  0.74065903  0.82293713  0.11704699  1  0  -0.322446  -0.215295  0  3.495168  0
N  N86  1  0.03736928  0.18779691  0.62764724  1  0  -0.322001  -0.208805  0  3.548412  0
N  N87  1  0.96262844  0.81220173  0.37235176  1  0  -0.321968  -0.208706  0  3.548327  0
Cl  Cl88  1  0.33711742  0.96796038  0.20446836  1  0  -0.010647  -0.071608  0  1.552298  0
Cl  Cl89  1  0.66288437  0.03203826  0.79552974  1  0  -0.010656  -0.07162  0  1.552252  0
Cl  Cl90  1  0.04629344  0.73752670  0.12560582  1  0  -0.008972  -0.058801  0  1.594536  0
Cl  Cl91  1  0.95370530  0.26247574  0.87439621  1  0  -0.008979  -0.058784  0  1.594587  0
Cl  Cl92  1  0.21464721  0.83854284  0.93529606  1  0  -0.019559  -0.080099  0  1.583579  0
Cl  Cl93  1  0.78534949  0.16145390  0.06470406  1  0  -0.019578  -0.080118  0  1.583589  0
Cl  Cl94  1  0.21076783  0.60623966  0.98545649  1  0  -0.007557  -0.072267  0  1.550864  0
Cl  Cl95  1  0.78922583  0.39375710  0.01454314  1  0  -0.007545  -0.072244  0  1.550826  0
