# generated using pymatgen
data_CuH7C7IN
_symmetry_space_group_name_H-M   'P 1'
_cell_length_a   4.04124029
_cell_length_b   11.94220215
_cell_length_c   16.33974594
_cell_angle_alpha   98.46576035
_cell_angle_beta   89.99929747
_cell_angle_gamma   89.99801684
_symmetry_Int_Tables_number   1
_chemical_formula_structural   CuH7C7IN
_chemical_formula_sum   'Cu4 H28 C28 I4 N4'
_cell_volume   779.98519139
_cell_formula_units_Z   4
loop_
 _symmetry_equiv_pos_site_id
 _symmetry_equiv_pos_as_xyz
  1  'x, y, z'
loop_
 _atom_site_type_symbol
 _atom_site_label
 _atom_site_symmetry_multiplicity
 _atom_site_fract_x
 _atom_site_fract_y
 _atom_site_fract_z
 _atom_site_occupancy
 _atom_site_hle17_bader_spin_density
 _atom_site_hle17_ddec_charge
 _atom_site_hle17_ddec_spin_density
 _atom_site_hle17_ddec_sum_bond_order
 _atom_site_hle17_magmom
 _atom_site_hse06_10hf_bader_spin_density
 _atom_site_hse06_10hf_ddec_charge
 _atom_site_hse06_10hf_ddec_spin_density
 _atom_site_hse06_10hf_ddec_sum_bond_order
 _atom_site_hse06_10hf_magmom
 _atom_site_hse06_bader_spin_density
 _atom_site_hse06_ddec_charge
 _atom_site_hse06_ddec_spin_density
 _atom_site_hse06_ddec_sum_bond_order
 _atom_site_hse06_magmom
 _atom_site_pbe_bader_spin_density
 _atom_site_pbe_cm5_charge
 _atom_site_pbe_ddec_charge
 _atom_site_pbe_ddec_spin_density
 _atom_site_pbe_ddec_sum_bond_order
 _atom_site_pbe_magmom
Cu  Cu0  1  0.41919710  0.69822819  0.70613102  1  0  0.226023  0  2.217031  0  0  0.147259  0  2.704249  0  0  0.160812  0  2.646069  0  0  0.239721  0.140252  0  2.74321  0
Cu  Cu1  1  0.91916241  0.80176988  0.79387548  1  0  0.22607  0  2.216903  0  0  0.147314  0  2.704067  0  0  0.160794  0  2.645902  0  0  0.239703  0.140312  0  2.742997  0
Cu  Cu2  1  0.58078920  0.30176757  0.29386937  1  0  0.226041  0  2.216906  0  0  0.147259  0  2.704078  0  0  0.160755  0  2.645907  0  0  0.239684  0.140262  0  2.743028  0
Cu  Cu3  1  0.08081894  0.19822418  0.20612289  1  0  0.225962  0  2.216871  0  0  0.147181  0  2.704054  0  0  0.160728  0  2.645864  0  0  0.23961  0.140174  0  2.743003  0
H  H4  1  0.13178697  0.49549056  0.76448928  1  0  0.074126  0  0.960366  0  0  0.081492  0  1.030696  0  0  0.084381  0  1.028006  0  0  0.102309  0.079082  0  1.033074  0
H  H5  1  0.63186244  0.00452168  0.73551247  1  0  0.074299  0  0.96033  0  0  0.081515  0  1.030786  0  0  0.084429  0  1.028072  0  0  0.102244  0.079103  0  1.033164  0
H  H6  1  0.86818695  0.50450435  0.23550979  1  0  0.074288  0  0.96035  0  0  0.081627  0  1.030689  0  0  0.084571  0  1.027945  0  0  0.102379  0.079216  0  1.033068  0
H  H7  1  0.36817582  0.99547830  0.26448530  1  0  0.074323  0  0.96037  0  0  0.081573  0  1.0308  0  0  0.08449  0  1.028081  0  0  0.102346  0.079165  0  1.033178  0
H  H8  1  0.11956733  0.28800276  0.72071887  1  0  0.095653  0  0.975344  0  0  0.10689  0  1.038733  0  0  0.10946  0  1.039031  0  0  0.100813  0.105104  0  1.038634  0
H  H9  1  0.61958466  0.21201291  0.77926308  1  0  0.095929  0  0.975168  0  0  0.107092  0  1.038641  0  0  0.109624  0  1.038984  0  0  0.100916  0.105298  0  1.038556  0
H  H10  1  0.88040907  0.71199382  0.27927670  1  0  0.095638  0  0.975322  0  0  0.106852  0  1.038748  0  0  0.109419  0  1.039051  0  0  0.100824  0.105064  0  1.038651  0
H  H11  1  0.38040411  0.78798876  0.22073486  1  0  0.095852  0  0.975226  0  0  0.10705  0  1.038671  0  0  0.109602  0  1.03899  0  0  0.100908  0.105256  0  1.038583  0
H  H12  1  0.73377717  0.33876797  0.51252617  1  0  0.101155  0  0.981449  0  0  0.108445  0  1.051718  0  0  0.112138  0  1.050364  0  0  0.090245  0.105665  0  1.052987  0
H  H13  1  0.23383686  0.16123453  0.98747424  1  0  0.100978  0  0.981441  0  0  0.10832  0  1.051686  0  0  0.112008  0  1.050345  0  0  0.090175  0.105536  0  1.052956  0
H  H14  1  0.26623635  0.66123801  0.48748692  1  0  0.10115  0  0.981491  0  0  0.108512  0  1.051718  0  0  0.112204  0  1.050371  0  0  0.090276  0.10573  0  1.052987  0
H  H15  1  0.76619893  0.83875023  0.01252438  1  0  0.101128  0  0.981577  0  0  0.108422  0  1.051855  0  0  0.11211  0  1.050513  0  0  0.09027  0.10564  0  1.053122  0
H  H16  1  0.72638133  0.54555378  0.56708617  1  0  0.069443  0  0.96433  0  0  0.07736  0  1.032227  0  0  0.079745  0  1.030544  0  0  0.100042  0.075551  0  1.033533  0
H  H17  1  0.22638864  0.95445087  0.93290939  1  0  0.069373  0  0.964226  0  0  0.077259  0  1.032147  0  0  0.07965  0  1.030455  0  0  0.09993  0.075452  0  1.033451  0
H  H18  1  0.27361239  0.45445215  0.43291834  1  0  0.069512  0  0.964473  0  0  0.077413  0  1.032364  0  0  0.079798  0  1.030677  0  0  0.100094  0.075607  0  1.033667  0
H  H19  1  0.77361745  0.04553048  0.06708459  1  0  0.069359  0  0.964521  0  0  0.077263  0  1.032423  0  0  0.079647  0  1.030735  0  0  0.099987  0.075458  0  1.033727  0
H  H20  1  0.60508598  0.14919332  0.52802759  1  0  0.086472  0  0.962866  0  0  0.098386  0  1.022895  0  0  0.100933  0  1.02266  0  0  0.091771  0.096383  0  1.0234  0
H  H21  1  0.10508975  0.35080987  0.97195984  1  0  0.086422  0  0.96292  0  0  0.09835  0  1.022949  0  0  0.10091  0  1.022684  0  0  0.091752  0.096346  0  1.023455  0
H  H22  1  0.39490031  0.85081003  0.47196748  1  0  0.086368  0  0.962779  0  0  0.098305  0  1.022822  0  0  0.100861  0  1.022568  0  0  0.091723  0.096299  0  1.023329  0
H  H23  1  0.89492872  0.64918585  0.02803258  1  0  0.086261  0  0.962628  0  0  0.098156  0  1.022758  0  0  0.100726  0  1.022474  0  0  0.091652  0.09614  0  1.023288  0
H  H24  1  0.09434063  0.10970213  0.66190835  1  0  0.108217  0  0.996339  0  0  0.119615  0  1.06291  0  0  0.121853  0  1.063163  0  0  0.088786  0.118007  0  1.062877  0
H  H25  1  0.59430706  0.39030457  0.83807764  1  0  0.108101  0  0.996093  0  0  0.119519  0  1.062687  0  0  0.12176  0  1.062938  0  0  0.088743  0.117907  0  1.062657  0
H  H26  1  0.90568279  0.89029785  0.33809003  1  0  0.108262  0  0.996385  0  0  0.119694  0  1.062909  0  0  0.12193  0  1.063164  0  0  0.088811  0.118087  0  1.062875  0
H  H27  1  0.40562480  0.60968947  0.16191705  1  0  0.108168  0  0.996499  0  0  0.119606  0  1.063017  0  0  0.121843  0  1.06327  0  0  0.088821  0.118001  0  1.062981  0
H  H28  1  0.29074565  0.00247918  0.58401880  1  0  0.120184  0  0.982894  0  0  0.131722  0  1.04627  0  0  0.135095  0  1.04472  0  0  0.085584  0.12904  0  1.047864  0
H  H29  1  0.79071461  0.49753697  0.91597735  1  0  0.120061  0  0.982673  0  0  0.131502  0  1.046204  0  0  0.134874  0  1.044662  0  0  0.085475  0.12882  0  1.047797  0
H  H30  1  0.70921838  0.99752669  0.41597285  1  0  0.120132  0  0.982932  0  0  0.131697  0  1.046267  0  0  0.135067  0  1.044722  0  0  0.08563  0.12902  0  1.047854  0
H  H31  1  0.20927663  0.50248173  0.08404074  1  0  0.12025  0  0.983143  0  0  0.131816  0  1.046457  0  0  0.135173  0  1.044926  0  0  0.085593  0.129141  0  1.048035  0
C  C32  1  0.26233931  0.45710199  0.70888239  1  0  0.113587  0  3.713689  0  0  0.08506  0  3.960116  0  0  0.091621  0  3.978213  0  0  0.031905  0.080814  0  3.948329  0
C  C33  1  0.76236857  0.04291876  0.79111617  1  0  0.11319  0  3.713417  0  0  0.084795  0  3.959825  0  0  0.091336  0  3.9779  0  0  0.031789  0.080556  0  3.948032  0
C  C34  1  0.73763214  0.54289798  0.29111477  1  0  0.11331  0  3.713981  0  0  0.084804  0  3.960375  0  0  0.09132  0  3.978457  0  0  0.0318  0.080565  0  3.948589  0
C  C35  1  0.23763258  0.95709225  0.20888765  1  0  0.113552  0  3.713964  0  0  0.085149  0  3.960354  0  0  0.091687  0  3.978439  0  0  0.031825  0.080899  0  3.948557  0
C  C36  1  0.25794626  0.34101090  0.68390429  1  0  -0.172073  0  3.717576  0  0  -0.184532  0  3.956617  0  0  -0.192869  0  3.977987  0  0  -0.088122  -0.17915  0  3.942328  0
C  C37  1  0.75799699  0.15902087  0.81608748  1  0  -0.172242  0  3.7172  0  0  -0.18461  0  3.95613  0  0  -0.19292  0  3.977522  0  0  -0.088051  -0.179224  0  3.941837  0
C  C38  1  0.74204251  0.65898741  0.31609698  1  0  -0.171953  0  3.717681  0  0  -0.184384  0  3.956653  0  0  -0.192719  0  3.978038  0  0  -0.088102  -0.178999  0  3.942354  0
C  C39  1  0.24201900  0.84100031  0.18391985  1  0  -0.172373  0  3.717526  0  0  -0.184801  0  3.956492  0  0  -0.193128  0  3.977874  0  0  -0.088191  -0.179413  0  3.942197  0
C  C40  1  0.42763348  0.29370564  0.61174646  1  0  0.131614  0  3.789245  0  0  0.145866  0  4.01541  0  0  0.15316  0  4.0358  0  0  0.001585  0.140988  0  4.001727  0
C  C41  1  0.92764866  0.20631388  0.88824961  1  0  0.131623  0  3.789407  0  0  0.145788  0  4.015681  0  0  0.153078  0  4.036073  0  0  0.001549  0.140906  0  4.001987  0
C  C42  1  0.57235282  0.70629268  0.38825725  1  0  0.131626  0  3.788541  0  0  0.145898  0  4.014702  0  0  0.153189  0  4.035094  0  0  0.001615  0.141018  0  4.001012  0
C  C43  1  0.07235001  0.79369881  0.11175194  1  0  0.131587  0  3.788412  0  0  0.145804  0  4.014626  0  0  0.153095  0  4.03502  0  0  0.001629  0.140926  0  4.000928  0
C  C44  1  0.43951306  0.17252848  0.58067623  1  0  -0.071896  0  3.797648  0  0  -0.080898  0  4.039935  0  0  -0.085039  0  4.061246  0  0  -0.097457  -0.078252  0  4.025798  0
C  C45  1  0.93953900  0.32746972  0.91931696  1  0  -0.071762  0  3.797882  0  0  -0.080757  0  4.040105  0  0  -0.084898  0  4.061432  0  0  -0.097368  -0.078105  0  4.025958  0
C  C46  1  0.56051035  0.82749432  0.41931781  1  0  -0.071603  0  3.797108  0  0  -0.080633  0  4.039382  0  0  -0.084763  0  4.060685  0  0  -0.097326  -0.077992  0  4.025255  0
C  C47  1  0.06050421  0.67249311  0.08069589  1  0  -0.0715  0  3.796775  0  0  -0.080466  0  4.039038  0  0  -0.084598  0  4.060351  0  0  -0.097247  -0.077826  0  4.0249  0
C  C48  1  0.26731693  0.09132829  0.61049284  1  0  -0.225528  0  3.597261  0  0  -0.266073  0  3.83429  0  0  -0.268061  0  3.849085  0  0  -0.170149  -0.2649  0  3.824741  0
C  C49  1  0.76732107  0.40867120  0.88949797  1  0  -0.225318  0  3.596787  0  0  -0.265794  0  3.833839  0  0  -0.267787  0  3.848645  0  0  -0.170012  -0.264619  0  3.824279  0
C  C50  1  0.73267679  0.90867840  0.38949339  1  0  -0.225702  0  3.597623  0  0  -0.266297  0  3.834617  0  0  -0.268291  0  3.849421  0  0  -0.170305  -0.265126  0  3.825062  0
C  C51  1  0.23267512  0.59130178  0.11051594  1  0  -0.225761  0  3.597872  0  0  -0.26639  0  3.834881  0  0  -0.268382  0  3.849698  0  0  -0.170335  -0.265212  0  3.825325  0
C  C52  1  0.59594277  0.36994423  0.56876557  1  0  -0.164679  0  3.709155  0  0  -0.179695  0  3.951592  0  0  -0.18832  0  3.972202  0  0  -0.088351  -0.174318  0  3.938368  0
C  C53  1  0.09597619  0.13007773  0.93122997  1  0  -0.16433  0  3.708798  0  0  -0.179412  0  3.951236  0  0  -0.18804  0  3.971854  0  0  -0.088267  -0.174031  0  3.938004  0
C  C54  1  0.40408807  0.63005244  0.43124715  1  0  -0.164792  0  3.709113  0  0  -0.179924  0  3.95159  0  0  -0.188553  0  3.972202  0  0  -0.088423  -0.174544  0  3.938361  0
C  C55  1  0.90406207  0.86993826  0.06875601  1  0  -0.164523  0  3.708917  0  0  -0.17953  0  3.951333  0  0  -0.18816  0  3.97195  0  0  -0.088314  -0.174151  0  3.938102  0
C  C56  1  0.59126924  0.48496535  0.59829624  1  0  0.121511  0  3.702925  0  0  0.093708  0  3.947842  0  0  0.100928  0  3.965611  0  0  0.033421  0.088872  0  3.936363  0
C  C57  1  0.09131347  0.01505582  0.90169740  1  0  0.12134  0  3.702843  0  0  0.093646  0  3.947688  0  0  0.100867  0  3.965449  0  0  0.033426  0.088809  0  3.936205  0
C  C58  1  0.40875912  0.51503555  0.40171570  1  0  0.121499  0  3.703032  0  0  0.093733  0  3.947935  0  0  0.10095  0  3.965708  0  0  0.033327  0.088902  0  3.936457  0
C  C59  1  0.90870994  0.98495004  0.09829242  1  0  0.121513  0  3.703532  0  0  0.093733  0  3.948426  0  0  0.100949  0  3.966203  0  0  0.03331  0.088891  0  3.936946  0
I  I60  1  0.91726912  0.78716492  0.63135284  1  0  -0.345915  0  1.76255  0  0  -0.292781  0  2.225111  0  0  -0.309332  0  2.182097  0  0  -0.160191  -0.280128  0  2.255317  0
I  I61  1  0.41726731  0.71283741  0.86865411  1  0  -0.345912  0  1.762582  0  0  -0.292785  0  2.225156  0  0  -0.309323  0  2.182133  0  0  -0.160164  -0.280124  0  2.255346  0
I  I62  1  0.08273203  0.21283084  0.36864632  1  0  -0.345932  0  1.762581  0  0  -0.292803  0  2.225154  0  0  -0.309335  0  2.182132  0  0  -0.160218  -0.280159  0  2.255377  0
I  I63  1  0.58271899  0.28716173  0.13134479  1  0  -0.345874  0  1.762539  0  0  -0.29273  0  2.225089  0  0  -0.309274  0  2.182076  0  0  -0.16016  -0.280087  0  2.255301  0
N  N64  1  0.42736264  0.52958887  0.66733684  1  0  -0.267943  0  3.356256  0  0  -0.191839  0  3.636195  0  0  -0.206499  0  3.64753  0  0  -0.361927  -0.183024  0  3.628959  0
N  N65  1  0.92738045  0.97042344  0.83266378  1  0  -0.267767  0  3.356148  0  0  -0.191711  0  3.635984  0  0  -0.206358  0  3.647308  0  0  -0.361818  -0.182902  0  3.628733  0
N  N66  1  0.57259149  0.47041957  0.33266181  1  0  -0.267853  0  3.356179  0  0  -0.191749  0  3.636045  0  0  -0.206402  0  3.64738  0  0  -0.361809  -0.182953  0  3.628817  0
N  N67  1  0.07260090  0.02955451  0.16732862  1  0  -0.26792  0  3.356558  0  0  -0.191853  0  3.636423  0  0  -0.206517  0  3.647768  0  0  -0.36169  -0.183026  0  3.629164  0
