# generated using pymatgen
data_CoH12C12(N3O)2
_symmetry_space_group_name_H-M   'P 1'
_cell_length_a   6.78808291
_cell_length_b   9.57856753
_cell_length_c   11.76880928
_cell_angle_alpha   90.00053433
_cell_angle_beta   97.73176858
_cell_angle_gamma   90.00014598
_symmetry_Int_Tables_number   1
_chemical_formula_structural   CoH12C12(N3O)2
_chemical_formula_sum   'Co2 H24 C24 N12 O4'
_cell_volume   758.25257642
_cell_formula_units_Z   2
loop_
 _symmetry_equiv_pos_site_id
 _symmetry_equiv_pos_as_xyz
  1  'x, y, z'
loop_
 _atom_site_type_symbol
 _atom_site_label
 _atom_site_symmetry_multiplicity
 _atom_site_fract_x
 _atom_site_fract_y
 _atom_site_fract_z
 _atom_site_occupancy
 _atom_site_hle17_ddec_charge
 _atom_site_hle17_ddec_spin_density
 _atom_site_hle17_ddec_sum_bond_order
 _atom_site_hle17_magmom
 _atom_site_hse06_10hf_ddec_charge
 _atom_site_hse06_10hf_ddec_spin_density
 _atom_site_hse06_10hf_ddec_sum_bond_order
 _atom_site_hse06_10hf_magmom
 _atom_site_hse06_ddec_charge
 _atom_site_hse06_ddec_spin_density
 _atom_site_hse06_ddec_sum_bond_order
 _atom_site_hse06_magmom
 _atom_site_pbe_cm5_charge
 _atom_site_pbe_ddec_charge
 _atom_site_pbe_ddec_spin_density
 _atom_site_pbe_ddec_sum_bond_order
 _atom_site_pbe_magmom
Co  Co0  1  0.00000000  0.00000000  0.00000000  1  1.070934  -2.900807  2.235418  -2.608  1.052147  -2.857874  2.65489  -2.656  1.114481  -2.895347  2.580769  -2.728  0.756305  0.992852  -2.814943  2.717342  -2.57
Co  Co1  1  0.49999996  0.49999979  0.50000026  1  1.070904  -2.900782  2.23541  -2.608  1.052154  -2.857876  2.654869  -2.656  1.114497  -2.895349  2.580744  -2.728  0.756293  0.992842  -2.814978  2.717305  -2.57
H  H2  1  0.27031226  0.81094535  0.95805342  1  0.384144  -0.000261  0.907571  0.0  0.357632  -0.000448  0.98332  -0.001  0.367574  -0.000177  0.972589  -0.001  0.300031  0.350039  -0.000683  0.991269  -0.001
H  H3  1  0.22968750  0.31094333  0.54194275  1  0.384047  -0.000261  0.907723  0.0  0.357628  -0.000448  0.983317  -0.001  0.367571  -0.000176  0.972585  -0.001  0.300012  0.350027  -0.000683  0.991269  -0.001
H  H4  1  0.72968766  0.18905422  0.04194624  1  0.384155  -0.000261  0.907575  0.0  0.357645  -0.000448  0.983324  -0.001  0.367587  -0.000177  0.972593  -0.001  0.30004  0.350052  -0.000683  0.991276  -0.001
H  H5  1  0.77031093  0.68905938  0.45805595  1  0.384048  -0.000261  0.907687  0.0  0.357616  -0.000448  0.98331  -0.001  0.367558  -0.000176  0.972578  -0.001  0.300012  0.350014  -0.000684  0.991263  -0.001
H  H6  1  0.31359524  0.07280930  0.84044521  1  0.049861  7e-05  0.922873  0.0  0.065499  -5.7e-05  0.984275  0.0  0.064385  3.3e-05  0.985146  0.0  0.10213  0.066312  -0.000183  0.983819  -0.001
H  H7  1  0.18640620  0.57280984  0.65955098  1  0.049852  7e-05  0.922885  0.0  0.065502  -5.7e-05  0.98429  0.0  0.064389  3.3e-05  0.98516  0.0  0.102126  0.066304  -0.000183  0.983837  -0.001
H  H8  1  0.68640617  0.92718924  0.15955372  1  0.049851  7e-05  0.92285  0.0  0.065484  -5.7e-05  0.984262  0.0  0.064371  3.3e-05  0.985132  0.0  0.102121  0.066294  -0.000183  0.983805  -0.001
H  H9  1  0.81359223  0.42719078  0.34044942  1  0.049844  6.9e-05  0.922925  0.0  0.065483  -5.7e-05  0.984337  0.0  0.06437  3.3e-05  0.985207  0.0  0.102116  0.066286  -0.000183  0.983882  -0.001
H  H10  1  0.51636428  0.96257121  0.89179117  1  0.04691  -0.001288  0.947189  -0.002  0.057738  -0.000927  1.015305  -0.002  0.056647  -0.000471  1.016617  -0.001  0.094957  0.059047  -0.001528  1.01415  -0.003
H  H11  1  0.98363392  0.46257249  0.60820239  1  0.046945  -0.001291  0.947077  -0.002  0.05768  -0.000927  1.015304  -0.002  0.056589  -0.000471  1.016617  -0.001  0.094949  0.058985  -0.001528  1.014141  -0.003
H  H12  1  0.48363416  0.03742732  0.10820668  1  0.046943  -0.00129  0.947113  -0.002  0.05772  -0.000927  1.015281  -0.002  0.05663  -0.000471  1.016592  -0.001  0.094963  0.059029  -0.001528  1.014125  -0.003
H  H13  1  0.01636600  0.53742813  0.39179643  1  0.046931  -0.001292  0.947096  -0.002  0.057709  -0.000927  1.015268  -0.002  0.056618  -0.000471  1.016581  -0.001  0.09496  0.059013  -0.001528  1.014106  -0.003
H  H14  1  0.41570057  0.92107102  0.68256602  1  0.097034  -0.000236  0.970566  0.0  0.11467  -0.000265  1.038482  0.0  0.114111  -0.000163  1.041531  0.0  0.083403  0.115106  -0.000395  1.036201  -0.001
H  H15  1  0.08429832  0.42107293  0.81742838  1  0.097093  -0.000237  0.970479  0.0  0.114717  -0.000264  1.03841  0.0  0.114157  -0.000163  1.041456  0.0  0.083431  0.115152  -0.000395  1.036136  -0.001
H  H16  1  0.58429786  0.07892960  0.31743353  1  0.097061  -0.000238  0.970482  0.0  0.114684  -0.000264  1.038416  0.0  0.114122  -0.000163  1.041466  0.0  0.083408  0.115119  -0.000395  1.036136  -0.001
H  H17  1  0.91570309  0.57892769  0.18257140  1  0.097091  -0.000237  0.970474  0.0  0.114716  -0.000264  1.038403  0.0  0.114156  -0.000163  1.041452  0.0  0.083432  0.11515  -0.000395  1.03613  -0.001
H  H18  1  0.16793029  0.88258397  0.70619836  1  0.100722  0.00014  0.960022  0.0  0.120119  7.2e-05  1.022204  0.0  0.120672  8e-05  1.023574  0.0  0.083417  0.119766  5.9e-05  1.021154  0.0
H  H19  1  0.33206690  0.38258814  0.79379476  1  0.100773  0.00014  0.960005  0.0  0.12019  7.2e-05  1.022165  0.0  0.120733  8e-05  1.023544  0.0  0.083456  0.11983  5.8e-05  1.021125  0.0
H  H20  1  0.83206963  0.11741561  0.29380045  1  0.100731  0.000139  0.960021  0.0  0.120129  7.2e-05  1.022201  0.0  0.120682  8e-05  1.023569  0.0  0.083418  0.119774  5.9e-05  1.021149  0.0
H  H21  1  0.66793302  0.61741456  0.20620406  1  0.100745  0.00014  0.96004  0.0  0.120157  7.2e-05  1.022204  0.0  0.120709  8e-05  1.023573  0.0  0.083446  0.1198  5.8e-05  1.021159  0.0
H  H22  1  0.36641322  0.76943915  0.76064135  1  0.098405  0.00021  0.971093  0.0  0.118162  9.6e-05  1.035007  0.0  0.11874  7.8e-05  1.036078  0.0  0.084184  0.117613  0.000112  1.03445  0.0
H  H23  1  0.13358483  0.26944130  0.73935268  1  0.098417  0.000209  0.971102  0.0  0.118171  9.6e-05  1.035011  0.0  0.118745  7.8e-05  1.036085  0.0  0.084202  0.117621  0.000112  1.034457  0.0
H  H24  1  0.63358670  0.23056043  0.23935662  1  0.098409  0.00021  0.971101  0.0  0.118166  9.6e-05  1.035014  0.0  0.118734  7.8e-05  1.036094  0.0  0.084185  0.117616  0.000112  1.034459  0.0
H  H25  1  0.86641657  0.73056037  0.26064795  1  0.098409  0.000208  0.971084  0.0  0.11816  9.6e-05  1.035005  0.0  0.118732  7.8e-05  1.036081  0.0  0.084198  0.117609  0.000112  1.034451  0.0
C  C26  1  0.23013672  0.91899156  0.37858036  1  -0.238135  -0.009381  4.061111  -0.019  -0.222552  -0.0024  4.306721  -0.007  -0.237545  -0.001052  4.320255  -0.005  -0.032931  -0.207911  -0.00671  4.295322  -0.013
C  C27  1  0.26986850  0.41899887  0.12142009  1  -0.238185  -0.009379  4.061054  -0.019  -0.222627  -0.002395  4.306712  -0.007  -0.237573  -0.00105  4.320179  -0.005  -0.032895  -0.207968  -0.006709  4.295288  -0.013
C  C28  1  0.76986468  0.08100592  0.62142197  1  -0.238072  -0.00938  4.060969  -0.019  -0.22247  -0.0024  4.306551  -0.007  -0.237491  -0.001052  4.320119  -0.005  -0.032893  -0.207825  -0.006709  4.295146  -0.013
C  C29  1  0.73013587  0.58100175  0.87858332  1  -0.238253  -0.009379  4.061155  -0.019  -0.222696  -0.002398  4.306806  -0.007  -0.237705  -0.001051  4.320356  -0.005  -0.032943  -0.208049  -0.006708  4.2954  -0.013
C  C30  1  0.16541021  0.92660575  0.26079270  1  0.340995  0.040448  3.807108  0.023  0.330613  0.011212  4.06784  0.002  0.349664  0.010524  4.08201  0.003  0.206581  0.31415  0.013947  4.05905  0.004
C  C31  1  0.33459059  0.42661035  0.23920492  1  0.340994  0.04044  3.807187  0.023  0.330611  0.011208  4.067933  0.002  0.349647  0.010518  4.082092  0.003  0.206521  0.314136  0.013946  4.059122  0.004
C  C32  1  0.83459119  0.07339487  0.73920793  1  0.340939  0.040441  3.807143  0.023  0.330547  0.011212  4.067876  0.002  0.349608  0.010524  4.08205  0.003  0.206487  0.314084  0.013948  4.059089  0.004
C  C33  1  0.66540932  0.57338818  0.76079644  1  0.341043  0.040436  3.807163  0.023  0.330666  0.011211  4.0679  0.002  0.349722  0.01052  4.082074  0.003  0.206558  0.314194  0.013947  4.059093  0.004
C  C34  1  0.29604675  0.79229238  0.42861703  1  0.351686  0.037913  3.802606  0.022  0.337525  0.010444  4.068798  0.001  0.356812  0.009699  4.082675  0.002  0.205623  0.32102  0.012802  4.059894  0.003
C  C35  1  0.20395629  0.29229587  0.07138059  1  0.351725  0.037917  3.80218  0.022  0.337579  0.010446  4.068383  0.001  0.356851  0.009696  4.082242  0.002  0.205617  0.321076  0.012804  4.059495  0.003
C  C36  1  0.70395614  0.20770720  0.57138201  1  0.351606  0.037902  3.802343  0.022  0.337444  0.010445  4.068534  0.001  0.356739  0.009699  4.082416  0.002  0.205611  0.320938  0.012802  4.059628  0.003
C  C37  1  0.79604511  0.70770371  0.92861834  1  0.351836  0.037917  3.802446  0.022  0.337693  0.010446  4.068633  0.001  0.356986  0.009697  4.082507  0.002  0.20571  0.321193  0.012804  4.059744  0.003
C  C38  1  0.21528198  0.03914847  0.44519942  1  0.312692  0.008597  3.852609  0.006  0.290305  0.001875  4.129046  0.001  0.303452  0.00147  4.147354  0.001  0.192073  0.280646  0.003155  4.115785  0.003
C  C39  1  0.28471968  0.53915321  0.05479872  1  0.312608  0.008603  3.852681  0.006  0.290221  0.001875  4.129133  0.001  0.303354  0.001469  4.147429  0.001  0.192015  0.280561  0.003154  4.115876  0.003
C  C40  1  0.78471645  0.96085215  0.55480183  1  0.312682  0.008607  3.852573  0.006  0.290288  0.001873  4.129007  0.001  0.303445  0.001471  4.147321  0.001  0.192047  0.280628  0.003156  4.115745  0.003
C  C41  1  0.71528469  0.46084532  0.94520299  1  0.312493  0.008603  3.85272  0.006  0.290107  0.001874  4.129161  0.001  0.303259  0.00147  4.147469  0.001  0.191945  0.280453  0.003154  4.115907  0.003
C  C42  1  0.35856527  0.96346974  0.85497041  1  0.197911  -0.001254  3.608553  -0.001  0.149643  -0.00181  3.878315  -0.002  0.159005  -0.001051  3.886554  -0.001  -0.074464  0.142259  -0.002711  3.872405  -0.003
C  C43  1  0.14143236  0.46347186  0.64502335  1  0.19793  -0.00125  3.608449  -0.001  0.149677  -0.001809  3.878274  -0.002  0.15904  -0.001049  3.88651  -0.001  -0.074531  0.142288  -0.002711  3.872362  -0.003
C  C44  1  0.64143465  0.03652984  0.14502840  1  0.197908  -0.001252  3.608483  -0.001  0.149676  -0.00181  3.878238  -0.002  0.159039  -0.00105  3.886474  -0.001  -0.074481  0.142295  -0.002711  3.872322  -0.003
C  C45  1  0.85856310  0.53652875  0.35497511  1  0.197937  -0.001244  3.60846  -0.001  0.149671  -0.001809  3.878275  -0.002  0.159034  -0.001051  3.886513  -0.001  -0.074519  0.142284  -0.002711  3.87236  -0.003
C  C46  1  0.32430375  0.87908485  0.74493949  1  -0.333998  -0.001093  3.716077  -0.002  -0.406677  -0.000899  3.956452  -0.001  -0.410149  -0.000424  3.968531  -0.001  -0.254933  -0.403709  -0.001554  3.947963  -0.002
C  C47  1  0.17569490  0.37908517  0.75505456  1  -0.334103  -0.001091  3.715983  -0.002  -0.406749  -0.0009  3.956333  -0.001  -0.410208  -0.000424  3.968419  -0.001  -0.25497  -0.40378  -0.001555  3.947861  -0.002
C  C48  1  0.67569914  0.12091472  0.25505785  1  -0.334047  -0.00109  3.71606  -0.002  -0.40669  -0.0009  3.956396  -0.001  -0.41015  -0.000424  3.968484  -0.001  -0.254921  -0.403723  -0.001554  3.947907  -0.002
C  C49  1  0.82430353  0.62091545  0.24494498  1  -0.334065  -0.00109  3.716035  -0.002  -0.406711  -0.000899  3.956389  -0.001  -0.410178  -0.000424  3.968471  -0.001  -0.25497  -0.403745  -0.001555  3.947915  -0.002
N  N50  1  0.10790359  0.93709522  0.16277692  1  -0.456844  -0.041212  2.954143  -0.07  -0.442774  -0.026761  3.241616  -0.042  -0.461764  -0.023055  3.243428  -0.036  -0.333184  -0.426935  -0.031454  3.242721  -0.048
N  N51  1  0.39209578  0.43709582  0.33721981  1  -0.456799  -0.041211  2.954088  -0.07  -0.44273  -0.026761  3.241555  -0.042  -0.461721  -0.023054  3.243374  -0.036  -0.333136  -0.426881  -0.031455  3.242642  -0.048
N  N52  1  0.89209930  0.06290435  0.83722297  1  -0.456791  -0.04121  2.954113  -0.07  -0.442722  -0.026761  3.241596  -0.042  -0.461712  -0.023056  3.243406  -0.036  -0.333114  -0.426882  -0.031454  3.242705  -0.048
N  N53  1  0.60790265  0.56290271  0.66278058  1  -0.456819  -0.041208  2.954098  -0.07  -0.442752  -0.026761  3.241565  -0.042  -0.461743  -0.023054  3.243378  -0.036  -0.333134  -0.426904  -0.031455  3.242652  -0.048
N  N54  1  0.14937616  0.18463962  0.03165813  1  -0.459824  -0.039221  2.947124  -0.066  -0.445731  -0.025454  3.237262  -0.039  -0.464639  -0.02177  3.238771  -0.034  -0.334242  -0.429827  -0.030288  3.237825  -0.046
N  N55  1  0.35062629  0.68464295  0.46834203  1  -0.45977  -0.039219  2.947317  -0.066  -0.445674  -0.025451  3.237443  -0.039  -0.464583  -0.021769  3.23895  -0.034  -0.334232  -0.429766  -0.030292  3.237981  -0.046
N  N56  1  0.85062525  0.81535891  0.96833995  1  -0.459886  -0.039222  2.947282  -0.066  -0.4458  -0.025454  3.237422  -0.039  -0.464708  -0.02177  3.238923  -0.034  -0.334304  -0.429894  -0.030289  3.237981  -0.046
N  N57  1  0.64937511  0.31535767  0.53165690  1  -0.459735  -0.039212  2.947256  -0.066  -0.445636  -0.025451  3.237383  -0.039  -0.464544  -0.02177  3.238888  -0.034  -0.334236  -0.429728  -0.030291  3.237917  -0.046
N  N58  1  0.19889728  0.14071092  0.49852984  1  -0.436672  -0.00469  2.699382  -0.007  -0.407974  -0.001315  2.93203  -0.002  -0.420601  -0.000564  2.943361  -0.001  -0.306926  -0.398373  -0.003437  2.924085  -0.005
N  N59  1  0.30110642  0.64071404  0.00147007  1  -0.436603  -0.004694  2.69934  -0.007  -0.407861  -0.001317  2.932  -0.002  -0.42049  -0.000564  2.943339  -0.001  -0.306882  -0.398259  -0.003437  2.924062  -0.005
N  N60  1  0.80110115  0.85928866  0.50146970  1  -0.436676  -0.004695  2.699323  -0.007  -0.407967  -0.001315  2.93198  -0.002  -0.420595  -0.000564  2.943309  -0.001  -0.306893  -0.398366  -0.003437  2.924035  -0.005
N  N61  1  0.69889647  0.35928449  0.99853067  1  -0.436516  -0.004693  2.699425  -0.007  -0.407774  -0.001316  2.932071  -0.002  -0.420401  -0.000564  2.943402  -0.001  -0.306833  -0.398172  -0.003437  2.924133  -0.005
O  O62  1  0.24275603  0.91187263  0.94014969  1  -0.590373  -0.038347  2.271051  -0.069  -0.542329  -0.034427  2.534333  -0.06  -0.573662  -0.025482  2.523754  -0.045  -0.393868  -0.515677  -0.043647  2.541144  -0.074
O  O63  1  0.25724131  0.41187087  0.55984706  1  -0.590353  -0.038348  2.271256  -0.069  -0.542364  -0.034428  2.534476  -0.06  -0.573698  -0.025483  2.523893  -0.045  -0.393844  -0.515709  -0.043652  2.541281  -0.074
O  O64  1  0.75724389  0.08812694  0.05984912  1  -0.590396  -0.038348  2.27107  -0.069  -0.542353  -0.034428  2.534342  -0.06  -0.573689  -0.025482  2.52377  -0.045  -0.393867  -0.5157  -0.043648  2.541153  -0.074
O  O65  1  0.74275712  0.58812871  0.44015334  1  -0.590331  -0.03835  2.271161  -0.069  -0.54233  -0.034428  2.534388  -0.06  -0.573664  -0.025483  2.523806  -0.045  -0.39384  -0.515675  -0.043653  2.541194  -0.074
