# generated using pymatgen
data_AgH9C6N2O5
_symmetry_space_group_name_H-M   'P 1'
_cell_length_a   4.94842368
_cell_length_b   9.17642931
_cell_length_c   20.05791167
_cell_angle_alpha   103.17081375
_cell_angle_beta   89.99991260
_cell_angle_gamma   90.00017153
_symmetry_Int_Tables_number   1
_chemical_formula_structural   AgH9C6N2O5
_chemical_formula_sum   'Ag4 H36 C24 N8 O20'
_cell_volume   886.84821853
_cell_formula_units_Z   4
loop_
 _symmetry_equiv_pos_site_id
 _symmetry_equiv_pos_as_xyz
  1  'x, y, z'
loop_
 _atom_site_type_symbol
 _atom_site_label
 _atom_site_symmetry_multiplicity
 _atom_site_fract_x
 _atom_site_fract_y
 _atom_site_fract_z
 _atom_site_occupancy
 _atom_site_hle17_bader_spin_density
 _atom_site_hle17_ddec_charge
 _atom_site_hle17_ddec_spin_density
 _atom_site_hle17_ddec_sum_bond_order
 _atom_site_hle17_magmom
 _atom_site_hse06_10hf_bader_spin_density
 _atom_site_hse06_10hf_ddec_charge
 _atom_site_hse06_10hf_ddec_spin_density
 _atom_site_hse06_10hf_ddec_sum_bond_order
 _atom_site_hse06_10hf_magmom
 _atom_site_hse06_bader_spin_density
 _atom_site_hse06_ddec_charge
 _atom_site_hse06_ddec_spin_density
 _atom_site_hse06_ddec_sum_bond_order
 _atom_site_hse06_magmom
 _atom_site_pbe_bader_spin_density
 _atom_site_pbe_cm5_charge
 _atom_site_pbe_ddec_charge
 _atom_site_pbe_ddec_spin_density
 _atom_site_pbe_ddec_sum_bond_order
 _atom_site_pbe_magmom
Ag  Ag0  1  0.15998492  0.61848442  0.99444595  1  0  0.59553  0  1.368915  0  0  0.467363  0  1.838582  0  0  0.506924  0  1.770277  0  0  0.407413  0.439438  0  1.88592  0
Ag  Ag1  1  0.65998882  0.88151532  0.50555314  1  0  0.595518  0  1.368918  0  0  0.467364  0  1.838567  0  0  0.506921  0  1.770259  0  0  0.40741  0.439437  0  1.885901  0
Ag  Ag2  1  0.84001602  0.38151202  0.00555400  1  0  0.595554  0  1.368941  0  0  0.467376  0  1.83859  0  0  0.506934  0  1.770281  0  0  0.407426  0.439445  0  1.885942  0
Ag  Ag3  1  0.34001414  0.11848783  0.49444702  1  0  0.595523  0  1.36894  0  0  0.467358  0  1.83861  0  0  0.50692  0  1.770303  0  0  0.407413  0.43943  0  1.885938  0
H  H4  1  0.51794602  0.06492770  0.94287730  1  0  0.136023  0  0.95021  0  0  0.144916  0  1.011842  0  0  0.148398  0  1.010008  0  0  0.121987  0.142315  0  1.01344  0
H  H5  1  0.01794862  0.43507369  0.55712302  1  0  0.136052  0  0.950237  0  0  0.144927  0  1.011837  0  0  0.148416  0  1.010003  0  0  0.12199  0.142326  0  1.013433  0
H  H6  1  0.48204481  0.93507098  0.05712239  1  0  0.136036  0  0.950279  0  0  0.144963  0  1.011847  0  0  0.148447  0  1.010011  0  0  0.122005  0.142363  0  1.013441  0
H  H7  1  0.98205029  0.56492835  0.44287752  1  0  0.13599  0  0.950285  0  0  0.144919  0  1.011846  0  0  0.148405  0  1.010012  0  0  0.121983  0.14232  0  1.013442  0
H  H8  1  0.71813359  0.93783687  0.88193184  1  0  0.130963  0  0.926312  0  0  0.141468  0  0.987661  0  0  0.144828  0  0.985334  0  0  0.119051  0.139147  0  0.989403  0
H  H9  1  0.21813172  0.56216408  0.61806935  1  0  0.130993  0  0.926344  0  0  0.141471  0  0.98767  0  0  0.144837  0  0.985348  0  0  0.119052  0.139153  0  0.989409  0
H  H10  1  0.28186330  0.06216181  0.11806884  1  0  0.131071  0  0.926217  0  0  0.141523  0  0.98761  0  0  0.144885  0  0.985282  0  0  0.119086  0.139206  0  0.98935  0
H  H11  1  0.78186719  0.43783684  0.38193107  1  0  0.131048  0  0.926279  0  0  0.141501  0  0.987659  0  0  0.144865  0  0.985333  0  0  0.11906  0.139181  0  0.989403  0
H  H12  1  0.18443804  0.04251306  0.84623333  1  0  0.271375  0  0.861799  0  0  0.248937  0  0.933519  0  0  0.257867  0  0.925352  0  0  0.320427  0.242395  0  0.939488  0
H  H13  1  0.68443133  0.45748410  0.65376399  1  0  0.271402  0  0.861818  0  0  0.248974  0  0.933545  0  0  0.257906  0  0.925379  0  0  0.320396  0.242433  0  0.939513  0
H  H14  1  0.81556290  0.95748338  0.15376363  1  0  0.271386  0  0.861847  0  0  0.248963  0  0.933559  0  0  0.257894  0  0.925394  0  0  0.320403  0.242425  0  0.939523  0
H  H15  1  0.31556758  0.54251793  0.34623704  1  0  0.271421  0  0.861837  0  0  0.249006  0  0.933551  0  0  0.257936  0  0.925386  0  0  0.320421  0.242464  0  0.939524  0
H  H16  1  0.42902136  0.82872258  0.77245100  1  0  0.12248  0  0.913539  0  0  0.13526  0  0.971156  0  0  0.137609  0  0.970258  0  0  0.124409  0.133665  0  0.971785  0
H  H17  1  0.92901261  0.67127758  0.72754853  1  0  0.122596  0  0.913493  0  0  0.135305  0  0.971099  0  0  0.137657  0  0.970194  0  0  0.124394  0.133711  0  0.971727  0
H  H18  1  0.57098564  0.17127723  0.22754681  1  0  0.12256  0  0.913529  0  0  0.135294  0  0.971134  0  0  0.137645  0  0.970232  0  0  0.124407  0.133699  0  0.971764  0
H  H19  1  0.07099237  0.32872110  0.27245265  1  0  0.12264  0  0.913444  0  0  0.135344  0  0.971046  0  0  0.137694  0  0.970143  0  0  0.124408  0.13375  0  0.971679  0
H  H20  1  0.64642640  0.97071076  0.75322048  1  0  0.133992  0  0.950187  0  0  0.142619  0  1.011437  0  0  0.146158  0  1.009423  0  0  0.121673  0.140147  0  1.012884  0
H  H21  1  0.14641345  0.52928785  0.74678149  1  0  0.134062  0  0.950225  0  0  0.142665  0  1.011408  0  0  0.146202  0  1.009396  0  0  0.121705  0.14019  0  1.012858  0
H  H22  1  0.35357858  0.02928904  0.24677983  1  0  0.134004  0  0.950237  0  0  0.142641  0  1.011415  0  0  0.146179  0  1.0094  0  0  0.121691  0.14017  0  1.012863  0
H  H23  1  0.85358547  0.47070971  0.25321908  1  0  0.134048  0  0.950217  0  0  0.142651  0  1.011391  0  0  0.146188  0  1.009378  0  0  0.12169  0.140181  0  1.012837  0
H  H24  1  0.43984126  0.23350562  0.79842411  1  0  0.136766  0  0.923755  0  0  0.148271  0  0.980704  0  0  0.151108  0  0.979193  0  0  0.125516  0.145954  0  0.981904  0
H  H25  1  0.93983926  0.26649641  0.70157662  1  0  0.136765  0  0.923744  0  0  0.148265  0  0.980694  0  0  0.1511  0  0.979187  0  0  0.125518  0.145947  0  0.981897  0
H  H26  1  0.56015361  0.76649418  0.20157570  1  0  0.136686  0  0.923763  0  0  0.148232  0  0.980673  0  0  0.151069  0  0.979162  0  0  0.125514  0.145916  0  0.981872  0
H  H27  1  0.06015764  0.73350451  0.29842430  1  0  0.136774  0  0.923736  0  0  0.148283  0  0.98068  0  0  0.151118  0  0.979172  0  0  0.125529  0.145965  0  0.981882  0
H  H28  1  0.68930429  0.21222266  0.85961057  1  0  0.13348  0  0.934157  0  0  0.143061  0  0.998136  0  0  0.146055  0  0.996427  0  0  0.120874  0.140599  0  0.999617  0
H  H29  1  0.18929949  0.28778011  0.64039132  1  0  0.133429  0  0.934178  0  0  0.143062  0  0.998076  0  0  0.146058  0  0.996365  0  0  0.120861  0.140601  0  0.999561  0
H  H30  1  0.31069867  0.78777826  0.14038985  1  0  0.133494  0  0.934155  0  0  0.143079  0  0.998126  0  0  0.146074  0  0.996416  0  0  0.120877  0.140615  0  0.999609  0
H  H31  1  0.81070145  0.71221969  0.35960997  1  0  0.133449  0  0.934218  0  0  0.14306  0  0.998157  0  0  0.146055  0  0.996447  0  0  0.120863  0.140596  0  0.999642  0
H  H32  1  0.40861938  0.84830101  0.63858090  1  0  0.34358  0  0.930163  0  0  0.319609  0  1.004303  0  0  0.32939  0  0.99531  0  0  0.290385  0.312628  0  1.010808  0
H  H33  1  0.90860968  0.65169799  0.86141851  1  0  0.343543  0  0.930246  0  0  0.319558  0  1.004399  0  0  0.329348  0  0.995395  0  0  0.290358  0.312578  0  1.010894  0
H  H34  1  0.59138560  0.15169543  0.36141855  1  0  0.343559  0  0.930254  0  0  0.319552  0  1.00443  0  0  0.329355  0  0.995411  0  0  0.290377  0.31257  0  1.010927  0
H  H35  1  0.09138721  0.34830517  0.13858214  1  0  0.343593  0  0.930193  0  0  0.319581  0  1.004376  0  0  0.329387  0  0.99535  0  0  0.290389  0.312599  0  1.010878  0
H  H36  1  0.11773112  0.95113528  0.62281519  1  0  0.350853  0  0.905498  0  0  0.328298  0  0.97552  0  0  0.337289  0  0.967645  0  0  0.301726  0.322015  0  0.980972  0
H  H37  1  0.61771065  0.54886553  0.87718502  1  0  0.350906  0  0.905388  0  0  0.328336  0  0.975446  0  0  0.337331  0  0.967562  0  0  0.301705  0.322052  0  0.9809  0
H  H38  1  0.88227790  0.04886452  0.37718462  1  0  0.350818  0  0.905553  0  0  0.32827  0  0.975559  0  0  0.337262  0  0.967685  0  0  0.301703  0.321988  0  0.981007  0
H  H39  1  0.38228220  0.45113539  0.12281589  1  0  0.350831  0  0.905525  0  0  0.328274  0  0.975549  0  0  0.337266  0  0.967673  0  0  0.301697  0.321992  0  0.980997  0
C  C40  1  0.33740394  0.84839851  0.90928132  1  0  0.678735  0  3.914802  0  0  0.628308  0  4.217922  0  0  0.662056  0  4.212136  0  0  0.200813  0.605382  0  4.221023  0
C  C41  1  0.83740805  0.65160262  0.59071785  1  0  0.678854  0  3.91487  0  0  0.628434  0  4.217923  0  0  0.66219  0  4.212139  0  0  0.200829  0.605516  0  4.221017  0
C  C42  1  0.66258892  0.15160017  0.09071687  1  0  0.678793  0  3.914941  0  0  0.628343  0  4.218065  0  0  0.662093  0  4.212281  0  0  0.20075  0.605429  0  4.221152  0
C  C43  1  0.16259490  0.34840053  0.40928331  1  0  0.678833  0  3.914858  0  0  0.628379  0  4.21799  0  0  0.662133  0  4.212199  0  0  0.20082  0.605458  0  4.221088  0
C  C44  1  0.51088180  0.97606496  0.89571176  1  0  -0.186803  0  3.506306  0  0  -0.239354  0  3.749314  0  0  -0.241954  0  3.75412  0  0  -0.068679  -0.237843  0  3.746509  0
C  C45  1  0.01087980  0.52393568  0.60428848  1  0  -0.186981  0  3.506529  0  0  -0.239395  0  3.749339  0  0  -0.242033  0  3.754209  0  0  -0.06872  -0.237907  0  3.746575  0
C  C46  1  0.48911308  0.02393372  0.10428743  1  0  -0.186987  0  3.506479  0  0  -0.239492  0  3.749436  0  0  -0.242103  0  3.754261  0  0  -0.06875  -0.237989  0  3.746643  0
C  C47  1  0.98911709  0.47606636  0.39571206  1  0  -0.186962  0  3.506556  0  0  -0.239439  0  3.749477  0  0  -0.242057  0  3.754305  0  0  -0.068716  -0.237925  0  3.746653  0
C  C48  1  0.44304435  0.94660283  0.76986957  1  0  -0.170744  0  3.517249  0  0  -0.22642  0  3.76228  0  0  -0.228039  0  3.767932  0  0  -0.058833  -0.225435  0  3.758252  0
C  C49  1  0.94303088  0.55339735  0.73013095  1  0  -0.171134  0  3.517416  0  0  -0.226526  0  3.762073  0  0  -0.228145  0  3.76773  0  0  -0.058899  -0.225537  0  3.758034  0
C  C50  1  0.55696265  0.05339809  0.23012985  1  0  -0.171031  0  3.517356  0  0  -0.226522  0  3.762147  0  0  -0.228141  0  3.767803  0  0  -0.058908  -0.225532  0  3.758113  0
C  C51  1  0.05696803  0.44660133  0.26986973  1  0  -0.171211  0  3.517478  0  0  -0.226574  0  3.762077  0  0  -0.228191  0  3.76773  0  0  -0.058902  -0.225586  0  3.758044  0
C  C52  1  0.47371241  0.20029788  0.84701849  1  0  -0.178225  0  3.508773  0  0  -0.232753  0  3.753365  0  0  -0.235988  0  3.75941  0  0  -0.062111  -0.230337  0  3.74919  0
C  C53  1  0.97370685  0.29970308  0.65298162  1  0  -0.178109  0  3.508767  0  0  -0.232662  0  3.753379  0  0  -0.235896  0  3.759423  0  0  -0.062066  -0.230245  0  3.749207  0
C  C54  1  0.52628853  0.79970416  0.15298105  1  0  -0.178082  0  3.508663  0  0  -0.232669  0  3.753347  0  0  -0.235904  0  3.759393  0  0  -0.062094  -0.230249  0  3.749167  0
C  C55  1  0.02629206  0.70029784  0.34701930  1  0  -0.178088  0  3.508737  0  0  -0.232639  0  3.753367  0  0  -0.235871  0  3.759412  0  0  -0.062073  -0.23022  0  3.749192  0
C  C56  1  0.22320287  0.98302141  0.72267650  1  0  0.634471  0  3.819136  0  0  0.590854  0  4.111161  0  0  0.619567  0  4.11133  0  0  0.23918  0.571563  0  4.110341  0
C  C57  1  0.72317072  0.51698067  0.77732281  1  0  0.634657  0  3.819299  0  0  0.590939  0  4.111344  0  0  0.619651  0  4.111516  0  0  0.239305  0.57165  0  4.110522  0
C  C58  1  0.77682030  0.01697951  0.27732143  1  0  0.63469  0  3.819164  0  0  0.59094  0  4.111313  0  0  0.619653  0  4.111483  0  0  0.239341  0.571651  0  4.110489  0
C  C59  1  0.27683022  0.48301801  0.22267737  1  0  0.634576  0  3.819427  0  0  0.590877  0  4.111432  0  0  0.619589  0  4.111602  0  0  0.239297  0.571586  0  4.110608  0
C  C60  1  0.30066954  0.30126330  0.90141783  1  0  0.68111  0  3.871474  0  0  0.626412  0  4.167729  0  0  0.661535  0  4.163825  0  0  0.212217  0.602456  0  4.169557  0
C  C61  1  0.80067184  0.19873852  0.59858342  1  0  0.681099  0  3.871462  0  0  0.626363  0  4.167761  0  0  0.661486  0  4.163855  0  0  0.212166  0.602407  0  4.169592  0
C  C62  1  0.69932534  0.69873314  0.09858212  1  0  0.681132  0  3.871377  0  0  0.626423  0  4.167655  0  0  0.661542  0  4.163749  0  0  0.212235  0.602476  0  4.169472  0
C  C63  1  0.19933112  0.80126464  0.40141823  1  0  0.681118  0  3.871397  0  0  0.626383  0  4.167726  0  0  0.661505  0  4.163818  0  0  0.21219  0.602429  0  4.169556  0
N  N64  1  0.39322373  0.04031020  0.83985053  1  0  -0.022473  0  3.42292  0  0  0.054807  0  3.632152  0  0  0.04439  0  3.65056  0  0  -0.347726  0.061993  0  3.620067  0
N  N65  1  0.89321902  0.45968952  0.66014898  1  0  -0.022496  0  3.423017  0  0  0.05463  0  3.632236  0  0  0.044213  0  3.650661  0  0  -0.347737  0.061828  0  3.620129  0
N  N66  1  0.60677923  0.95969072  0.16014790  1  0  -0.02251  0  3.423065  0  0  0.054672  0  3.632323  0  0  0.044259  0  3.65072  0  0  -0.347731  0.061857  0  3.620236  0
N  N67  1  0.10678596  0.54031140  0.33985144  1  0  -0.02253  0  3.423184  0  0  0.054597  0  3.632444  0  0  0.044178  0  3.650862  0  0  -0.347755  0.06179  0  3.620353  0
N  N68  1  0.25636903  0.92484694  0.65622530  1  0  -0.68283  0  3.110366  0  0  -0.646355  0  3.351675  0  0  -0.670314  0  3.345328  0  0  -0.563941  -0.630031  0  3.355845  0
N  N69  1  0.75635296  0.57515407  0.84377289  1  0  -0.682849  0  3.110438  0  0  -0.646379  0  3.351828  0  0  -0.67034  0  3.345444  0  0  -0.563898  -0.630052  0  3.35599  0
N  N70  1  0.74363595  0.07515398  0.34377412  1  0  -0.682797  0  3.110439  0  0  -0.646282  0  3.351853  0  0  -0.670265  0  3.345461  0  0  -0.563938  -0.62995  0  3.356014  0
N  N71  1  0.24364192  0.42484573  0.15622741  1  0  -0.682753  0  3.110541  0  0  -0.646266  0  3.351937  0  0  -0.670243  0  3.345528  0  0  -0.563904  -0.629933  0  3.356099  0
O  O72  1  0.42258834  0.79403576  0.95801686  1  0  -0.621733  0  2.02607  0  0  -0.549756  0  2.279535  0  0  -0.579918  0  2.267987  0  0  -0.334181  -0.528214  0  2.286646  0
O  O73  1  0.92258902  0.70596438  0.54198267  1  0  -0.621715  0  2.02617  0  0  -0.549761  0  2.279639  0  0  -0.579918  0  2.268084  0  0  -0.334141  -0.528219  0  2.286749  0
O  O74  1  0.57740250  0.20596180  0.04198122  1  0  -0.621789  0  2.026149  0  0  -0.549759  0  2.27959  0  0  -0.579917  0  2.268038  0  0  -0.334161  -0.528218  0  2.286701  0
O  O75  1  0.07740586  0.29403766  0.45801886  1  0  -0.621764  0  2.02606  0  0  -0.549801  0  2.279562  0  0  -0.579959  0  2.268005  0  0  -0.334208  -0.528259  0  2.286668  0
O  O76  1  0.08406702  0.24633664  0.91888090  1  0  -0.600559  0  2.067506  0  0  -0.527467  0  2.331658  0  0  -0.55875  0  2.319629  0  0  -0.312689  -0.505408  0  2.339072  0
O  O77  1  0.58406368  0.25366149  0.58111955  1  0  -0.600577  0  2.06749  0  0  -0.527484  0  2.331676  0  0  -0.558769  0  2.319649  0  0  -0.312702  -0.505425  0  2.339086  0
O  O78  1  0.91593190  0.75366092  0.08111916  1  0  -0.600583  0  2.067391  0  0  -0.527483  0  2.331552  0  0  -0.558768  0  2.319528  0  0  -0.312719  -0.50543  0  2.338962  0
O  O79  1  0.41593524  0.74633943  0.41888037  1  0  -0.600553  0  2.067457  0  0  -0.527465  0  2.33165  0  0  -0.558747  0  2.319623  0  0  -0.312696  -0.505413  0  2.339065  0
O  O80  1  0.38936070  0.43330030  0.92335627  1  0  -0.633338  0  2.145791  0  0  -0.551598  0  2.421478  0  0  -0.584705  0  2.408308  0  0  -0.312205  -0.528548  0  2.429986  0
O  O81  1  0.88936242  0.06669941  0.57664473  1  0  -0.633321  0  2.145748  0  0  -0.551586  0  2.42145  0  0  -0.584683  0  2.408272  0  0  -0.312176  -0.528537  0  2.429961  0
O  O82  1  0.61063417  0.56669838  0.07664491  1  0  -0.633356  0  2.1458  0  0  -0.551634  0  2.421517  0  0  -0.584746  0  2.408375  0  0  -0.31222  -0.528587  0  2.430023  0
O  O83  1  0.11063650  0.93330039  0.42335408  1  0  -0.633328  0  2.145747  0  0  -0.551604  0  2.421473  0  0  -0.58472  0  2.408333  0  0  -0.312187  -0.528552  0  2.429972  0
O  O84  1  0.13003690  0.81037607  0.87236551  1  0  -0.65553  0  1.939986  0  0  -0.601055  0  2.168368  0  0  -0.626245  0  2.158786  0  0  -0.331161  -0.583417  0  2.174396  0
O  O85  1  0.63003898  0.68962363  0.62763408  1  0  -0.655599  0  1.93994  0  0  -0.601154  0  2.168319  0  0  -0.626336  0  2.15873  0  0  -0.331198  -0.583513  0  2.17435  0
O  O86  1  0.86995595  0.18962485  0.12763191  1  0  -0.65556  0  1.940091  0  0  -0.601066  0  2.168456  0  0  -0.626259  0  2.158875  0  0  -0.331123  -0.583431  0  2.174484  0
O  O87  1  0.36995994  0.31037617  0.37236822  1  0  -0.655575  0  1.940038  0  0  -0.601068  0  2.168402  0  0  -0.626257  0  2.15882  0  0  -0.331163  -0.583434  0  2.174431  0
O  O88  1  0.02815833  0.06395629  0.74857175  1  0  -0.597098  0  1.905241  0  0  -0.545402  0  2.117223  0  0  -0.567245  0  2.110905  0  0  -0.314132  -0.530436  0  2.121333  0
O  O89  1  0.52814484  0.43605071  0.75142566  1  0  -0.597103  0  1.905411  0  0  -0.54536  0  2.117371  0  0  -0.567197  0  2.111044  0  0  -0.314164  -0.530421  0  2.121511  0
O  O90  1  0.97185069  0.93605022  0.25142676  1  0  -0.597129  0  1.905526  0  0  -0.545386  0  2.117543  0  0  -0.567219  0  2.111212  0  0  -0.314172  -0.530447  0  2.121682  0
O  O91  1  0.47185408  0.56394909  0.24857414  1  0  -0.597053  0  1.905475  0  0  -0.545343  0  2.117454  0  0  -0.567178  0  2.111125  0  0  -0.314156  -0.530399  0  2.12159  0
