# generated using pymatgen
data_CdH20C17S(N2O3)2
_symmetry_space_group_name_H-M   'P 1'
_cell_length_a   8.96804504
_cell_length_b   10.89170507
_cell_length_c   12.88165776
_cell_angle_alpha   67.90133518
_cell_angle_beta   75.72476875
_cell_angle_gamma   67.79877994
_symmetry_Int_Tables_number   1
_chemical_formula_structural   CdH20C17S(N2O3)2
_chemical_formula_sum   'Cd2 H40 C34 S2 N8 O12'
_cell_volume   1071.35381917
_cell_formula_units_Z   2
loop_
 _symmetry_equiv_pos_site_id
 _symmetry_equiv_pos_as_xyz
  1  'x, y, z'
loop_
 _atom_site_type_symbol
 _atom_site_label
 _atom_site_symmetry_multiplicity
 _atom_site_fract_x
 _atom_site_fract_y
 _atom_site_fract_z
 _atom_site_occupancy
 _atom_site_hle17_bader_spin_density
 _atom_site_hle17_ddec_charge
 _atom_site_hle17_ddec_spin_density
 _atom_site_hle17_ddec_sum_bond_order
 _atom_site_hle17_magmom
 _atom_site_hse06_10hf_bader_spin_density
 _atom_site_hse06_10hf_ddec_charge
 _atom_site_hse06_10hf_ddec_spin_density
 _atom_site_hse06_10hf_ddec_sum_bond_order
 _atom_site_hse06_10hf_magmom
 _atom_site_hse06_bader_spin_density
 _atom_site_hse06_ddec_charge
 _atom_site_hse06_ddec_spin_density
 _atom_site_hse06_ddec_sum_bond_order
 _atom_site_hse06_magmom
 _atom_site_pbe_bader_spin_density
 _atom_site_pbe_cm5_charge
 _atom_site_pbe_ddec_charge
 _atom_site_pbe_ddec_spin_density
 _atom_site_pbe_ddec_sum_bond_order
 _atom_site_pbe_magmom
Cd  Cd0  1  0.65522689  0.88271717  0.66974930  1  0  1.193141  0  1.651497  0  0  1.013597  0  2.09696  0  0  1.063223  0  2.047423  0  0  0.791385  0.978262  0  2.131033  0
Cd  Cd1  1  0.34477149  0.11728146  0.33025400  1  0  1.193089  0  1.651522  0  0  1.01356  0  2.096957  0  0  1.063187  0  2.047425  0  0  0.79136  0.978225  0  2.131028  0
H  H2  1  0.05807979  0.74348907  0.66621497  1  0  0.098724  0  0.99136  0  0  0.104896  0  1.060699  0  0  0.107998  0  1.056169  0  0  0.132697  0.102468  0  1.06416  0
H  H3  1  0.94191668  0.25651165  0.33378797  1  0  0.098739  0  0.991352  0  0  0.104906  0  1.0607  0  0  0.108011  0  1.056164  0  0  0.132692  0.10248  0  1.064158  0
H  H4  1  0.60505203  0.59430935  0.64344090  1  0  0.116767  0  0.965869  0  0  0.126868  0  1.026169  0  0  0.130157  0  1.024043  0  0  0.101899  0.12453  0  1.02778  0
H  H5  1  0.39494213  0.40569446  0.35655910  1  0  0.116802  0  0.965866  0  0  0.126862  0  1.026213  0  0  0.13015  0  1.02409  0  0  0.101907  0.124527  0  1.027816  0
H  H6  1  0.67192261  0.35457395  0.62718315  1  0  0.082439  0  0.956076  0  0  0.098819  0  1.010823  0  0  0.100936  0  1.010479  0  0  0.09713  0.097239  0  1.011246  0
H  H7  1  0.32807768  0.64542879  0.37281458  1  0  0.082476  0  0.955996  0  0  0.098828  0  1.010769  0  0  0.100945  0  1.010427  0  0  0.097134  0.097251  0  1.01119  0
H  H8  1  0.95241592  0.19308205  0.62942091  1  0  0.094096  0  0.966828  0  0  0.105177  0  1.028311  0  0  0.107759  0  1.027078  0  0  0.099756  0.103137  0  1.029547  0
H  H9  1  0.04758208  0.80692070  0.37057800  1  0  0.094084  0  0.966834  0  0  0.10517  0  1.028328  0  0  0.107751  0  1.027097  0  0  0.099757  0.103129  0  1.029566  0
H  H10  1  0.17984353  0.26238495  0.64125139  1  0  0.107878  0  0.975356  0  0  0.11782  0  1.03999  0  0  0.120863  0  1.03804  0  0  0.102758  0.115792  0  1.04128  0
H  H11  1  0.82015523  0.73761884  0.35874626  1  0  0.107855  0  0.975383  0  0  0.117792  0  1.040017  0  0  0.120835  0  1.038067  0  0  0.102729  0.115763  0  1.041307  0
H  H12  1  0.33393497  0.57641661  0.60296764  1  0  0.09525  0  0.938246  0  0  0.107518  0  1.003045  0  0  0.108615  0  1.00253  0  0  0.112981  0.106586  0  1.003559  0
H  H13  1  0.66606495  0.42358092  0.39703264  1  0  0.095288  0  0.938223  0  0  0.107501  0  1.00306  0  0  0.108631  0  1.0025  0  0  0.112996  0.106572  0  1.003576  0
H  H14  1  0.34018536  0.40440302  0.61933002  1  0  0.08093  0  0.922133  0  0  0.097082  0  0.984709  0  0  0.098037  0  0.984141  0  0  0.113605  0.096288  0  0.985242  0
H  H15  1  0.65981303  0.59559559  0.38067173  1  0  0.080936  0  0.922169  0  0  0.097082  0  0.984735  0  0  0.098035  0  0.984171  0  0  0.113609  0.096287  0  0.985269  0
H  H16  1  0.28519914  0.52572841  0.81185386  1  0  0.087204  0  0.914146  0  0  0.106429  0  0.968395  0  0  0.107477  0  0.968333  0  0  0.1004  0.105703  0  0.968342  0
H  H17  1  0.71479924  0.47427330  0.18814531  1  0  0.087199  0  0.914146  0  0  0.106413  0  0.968398  0  0  0.107463  0  0.968334  0  0  0.100403  0.105687  0  0.968345  0
H  H18  1  0.46839599  0.41045177  0.76877213  1  0  0.086611  0  0.949295  0  0  0.104509  0  1.011818  0  0  0.105047  0  1.012882  0  0  0.101557  0.104103  0  1.011112  0
H  H19  1  0.53160124  0.58954997  0.23122879  1  0  0.0866  0  0.949374  0  0  0.104502  0  1.011879  0  0  0.105033  0  1.012953  0  0  0.101561  0.104096  0  1.011172  0
H  H20  1  0.15157091  0.34105841  0.87797699  1  0  0.073705  0  0.910574  0  0  0.091263  0  0.967442  0  0  0.091787  0  0.96747  0  0  0.113554  0.090757  0  0.967551  0
H  H21  1  0.84842825  0.65894127  0.12202583  1  0  0.073712  0  0.910578  0  0  0.091295  0  0.967428  0  0  0.091822  0  0.967451  0  0  0.113559  0.09079  0  0.967537  0
H  H22  1  0.31633274  0.23432038  0.81064918  1  0  0.082094  0  0.934721  0  0  0.09626  0  1.003088  0  0  0.096538  0  1.003517  0  0  0.112854  0.095914  0  1.002964  0
H  H23  1  0.68366871  0.76567928  0.18935246  1  0  0.082122  0  0.934706  0  0  0.096291  0  1.003081  0  0  0.096571  0  1.003508  0  0  0.112853  0.095946  0  1.002958  0
H  H24  1  0.16669731  0.30734798  0.08080783  1  0  0.090173  0  0.916788  0  0  0.104521  0  0.972001  0  0  0.106954  0  0.968425  0  0  0.139348  0.10272  0  0.9745  0
H  H25  1  0.83330529  0.69265171  0.91919516  1  0  0.090136  0  0.916839  0  0  0.104517  0  0.972016  0  0  0.106951  0  0.968438  0  0  0.13935  0.102704  0  0.974529  0
H  H26  1  0.62818429  0.14454288  0.79508745  1  0  0.113139  0  0.954007  0  0  0.123627  0  1.016579  0  0  0.126437  0  1.015064  0  0  0.105292  0.12158  0  1.017758  0
H  H27  1  0.37181639  0.85545885  0.20491287  1  0  0.113125  0  0.954036  0  0  0.123593  0  1.01663  0  0  0.126401  0  1.015117  0  0  0.105286  0.121549  0  1.0178  0
H  H28  1  0.89294103  0.98877023  0.86140378  1  0  0.099875  0  0.949408  0  0  0.113175  0  1.005775  0  0  0.115523  0  1.005177  0  0  0.102131  0.111437  0  1.006355  0
H  H29  1  0.10705812  0.01122939  0.13859595  1  0  0.099881  0  0.949405  0  0  0.113189  0  1.005763  0  0  0.115538  0  1.005165  0  0  0.102142  0.111452  0  1.006341  0
H  H30  1  0.93513503  0.91692201  0.06169013  1  0  0.085877  0  0.968074  0  0  0.099366  0  1.024488  0  0  0.101523  0  1.024763  0  0  0.098237  0.097795  0  1.024415  0
H  H31  1  0.06486757  0.08307761  0.93830900  1  0  0.085863  0  0.968106  0  0  0.09937  0  1.024493  0  0  0.101532  0  1.024767  0  0  0.098246  0.097799  0  1.02442  0
H  H32  1  0.71512912  0.00342280  0.20211339  1  0  0.115462  0  0.957033  0  0  0.126421  0  1.016597  0  0  0.128851  0  1.015276  0  0  0.10574  0.124528  0  1.017774  0
H  H33  1  0.28487349  0.99657682  0.79788574  1  0  0.115473  0  0.957055  0  0  0.126427  0  1.016633  0  0  0.128856  0  1.015314  0  0  0.105753  0.124534  0  1.017809  0
H  H34  1  0.53805438  0.16066980  0.56534634  1  0  0.408169  0  0.900547  0  0  0.378208  0  0.964428  0  0  0.3889  0  0.948885  0  0  0.284243  0.370668  0  0.975366  0
H  H35  1  0.46194707  0.83932979  0.43465145  1  0  0.408165  0  0.90057  0  0  0.378213  0  0.964435  0  0  0.388888  0  0.948916  0  0  0.284237  0.370673  0  0.975372  0
H  H36  1  0.39328368  0.09798679  0.59100816  1  0  0.413088  0  0.898549  0  0  0.383244  0  0.962229  0  0  0.393646  0  0.947037  0  0  0.283521  0.375848  0  0.973002  0
H  H37  1  0.60671586  0.90201180  0.40899262  1  0  0.413088  0  0.898547  0  0  0.383235  0  0.962244  0  0  0.393638  0  0.94705  0  0  0.283517  0.375839  0  0.973017  0
H  H38  1  0.94751767  0.96661527  0.66315659  1  0  0.428284  0  0.873557  0  0  0.397385  0  0.93734  0  0  0.408031  0  0.921812  0  0  0.287707  0.389798  0  0.948446  0
H  H39  1  0.05248186  0.03338327  0.33684188  1  0  0.428293  0  0.873539  0  0  0.397393  0  0.937322  0  0  0.408039  0  0.921796  0  0  0.287719  0.389807  0  0.948428  0
H  H40  1  0.81146259  0.07722660  0.58120760  1  0  0.414515  0  0.891976  0  0  0.384137  0  0.95496  0  0  0.394697  0  0.939468  0  0  0.286732  0.376691  0  0.965898  0
H  H41  1  0.18854001  0.92277300  0.41879075  1  0  0.414484  0  0.89202  0  0  0.384135  0  0.954966  0  0  0.39468  0  0.939496  0  0  0.286736  0.37669  0  0.965903  0
C  C42  1  0.01272239  0.66666892  0.66101351  1  0  0.199911  0  3.657652  0  0  0.1353  0  3.92803  0  0  0.152529  0  3.938606  0  0  0.153629  0.124107  0  3.920813  0
C  C43  1  0.98727791  0.33333071  0.33898679  1  0  0.199821  0  3.657486  0  0  0.13519  0  3.927874  0  0  0.152415  0  3.93845  0  0  0.153617  0.123998  0  3.920656  0
C  C44  1  0.85671337  0.56032247  0.65087691  1  0  0.151275  0  3.83539  0  0  0.148581  0  4.079705  0  0  0.151982  0  4.103914  0  0  0.082651  0.146157  0  4.063386  0
C  C45  1  0.14328346  0.43968649  0.34911627  1  0  0.151191  0  3.835487  0  0  0.148651  0  4.079624  0  0  0.152052  0  4.103829  0  0  0.082686  0.146224  0  4.063305  0
C  C46  1  0.72858197  0.52177136  0.64285697  1  0  -0.154836  0  3.739462  0  0  -0.171247  0  3.986858  0  0  -0.173698  0  4.006288  0  0  -0.098554  -0.169586  0  3.97373  0
C  C47  1  0.27141831  0.47823447  0.35713741  1  0  -0.154923  0  3.739504  0  0  -0.171345  0  3.986865  0  0  -0.173796  0  4.006295  0  0  -0.098612  -0.169686  0  3.973743  0
C  C48  1  0.76728012  0.38892291  0.63464575  1  0  -0.080553  0  3.794621  0  0  -0.101145  0  4.058214  0  0  -0.10348  0  4.081193  0  0  -0.101271  -0.099551  0  4.042675  0
C  C49  1  0.23272017  0.61107981  0.36535043  1  0  -0.080536  0  3.794512  0  0  -0.101103  0  4.058108  0  0  -0.103438  0  4.081083  0  0  -0.10124  -0.099511  0  4.042573  0
C  C50  1  0.92770655  0.29640807  0.63483731  1  0  -0.053496  0  3.753879  0  0  -0.072588  0  4.01256  0  0  -0.074211  0  4.034931  0  0  -0.096222  -0.071403  0  3.997576  0
C  C51  1  0.07229259  0.70359779  0.36515881  1  0  -0.053497  0  3.753917  0  0  -0.072602  0  4.012576  0  0  -0.074224  0  4.034949  0  0  -0.09625  -0.071417  0  3.997597  0
C  C52  1  0.05608606  0.33382512  0.64202416  1  0  -0.14746  0  3.757437  0  0  -0.166489  0  4.010969  0  0  -0.169719  0  4.03187  0  0  -0.097569  -0.164203  0  3.996474  0
C  C53  1  0.94391499  0.66618177  0.35797051  1  0  -0.147471  0  3.757617  0  0  -0.166459  0  4.011147  0  0  -0.169689  0  4.032046  0  0  -0.097545  -0.164175  0  3.996649  0
C  C54  1  0.01784085  0.46719873  0.64938904  1  0  0.09189  0  3.792387  0  0  0.082642  0  4.032978  0  0  0.086059  0  4.056581  0  0  0.091235  0.080471  0  4.016843  0
C  C55  1  0.98215561  0.53280504  0.35060824  1  0  0.091978  0  3.792491  0  0  0.082594  0  4.033145  0  0  0.086011  0  4.056749  0  0  0.091221  0.080431  0  4.016998  0
C  C56  1  0.28870155  0.48924602  0.65704383  1  0  0.003674  0  3.618432  0  0  -0.059236  0  3.881846  0  0  -0.055117  0  3.893127  0  0  -0.051581  -0.061723  0  3.874004  0
C  C57  1  0.71129645  0.51075360  0.34295611  1  0  0.003643  0  3.618436  0  0  -0.059231  0  3.881793  0  0  -0.055127  0  3.893057  0  0  -0.051591  -0.061725  0  3.873956  0
C  C58  1  0.33580909  0.43924914  0.77574534  1  0  -0.153306  0  3.67064  0  0  -0.200262  0  3.939432  0  0  -0.202096  0  3.951808  0  0  -0.160432  -0.198889  0  3.930751  0
C  C59  1  0.66418852  0.56075152  0.22425432  1  0  -0.153297  0  3.670711  0  0  -0.200216  0  3.939424  0  0  -0.202054  0  3.951816  0  0  -0.16046  -0.198848  0  3.930753  0
C  C60  1  0.28341239  0.31288003  0.85356366  1  0  0.007733  0  3.646835  0  0  -0.057998  0  3.915251  0  0  -0.05296  0  3.926303  0  0  -0.051567  -0.061242  0  3.907653  0
C  C61  1  0.71658752  0.68712067  0.14643791  1  0  0.007664  0  3.646905  0  0  -0.058122  0  3.915344  0  0  -0.053084  0  3.926397  0  0  -0.051581  -0.061367  0  3.907747  0
C  C62  1  0.29380189  0.25126541  0.06208218  1  0  0.200643  0  3.701684  0  0  0.134024  0  3.977559  0  0  0.151651  0  3.98837  0  0  0.156808  0.122572  0  3.969709  0
C  C63  1  0.70619841  0.74873111  0.93792070  1  0  0.200678  0  3.701667  0  0  0.134028  0  3.977554  0  0  0.151654  0  3.988366  0  0  0.156752  0.122587  0  3.969703  0
C  C64  1  0.52256030  0.16262253  0.96320695  1  0  0.095709  0  3.775113  0  0  0.087498  0  4.01346  0  0  0.09102  0  4.036493  0  0  0.090754  0.085104  0  3.997977  0
C  C65  1  0.47744193  0.83737504  0.03679525  1  0  0.095645  0  3.775094  0  0  0.087419  0  4.013427  0  0  0.090941  0  4.036459  0  0  0.090727  0.085025  0  3.997947  0
C  C66  1  0.64555295  0.11674377  0.88275303  1  0  -0.140533  0  3.757471  0  0  -0.163527  0  4.018258  0  0  -0.16658  0  4.039529  0  0  -0.094935  -0.161448  0  4.004003  0
C  C67  1  0.35444659  0.88325482  0.11724775  1  0  -0.140457  0  3.757481  0  0  -0.16343  0  4.018268  0  0  -0.166481  0  4.039537  0  0  -0.094904  -0.161352  0  4.004016  0
C  C68  1  0.79360812  0.02775463  0.92119814  1  0  -0.073663  0  3.776415  0  0  -0.091577  0  4.03554  0  0  -0.093551  0  4.058017  0  0  -0.097793  -0.090192  0  4.020347  0
C  C69  1  0.20639295  0.97224292  0.07880271  1  0  -0.073713  0  3.7764  0  0  -0.091635  0  4.035536  0  0  -0.09361  0  4.058014  0  0  -0.097816  -0.09025  0  4.020345  0
C  C70  1  0.81742723  0.98708672  0.03513395  1  0  -0.088737  0  3.803481  0  0  -0.106602  0  4.060831  0  0  -0.10926  0  4.083405  0  0  -0.102205  -0.104755  0  4.045415  0
C  C71  1  0.18257384  0.01291081  0.96486613  1  0  -0.088658  0  3.803467  0  0  -0.106527  0  4.060811  0  0  -0.109189  0  4.083388  0  0  -0.102187  -0.10468  0  4.045395  0
C  C72  1  0.69507103  0.03383081  0.11484146  1  0  -0.129198  0  3.726994  0  0  -0.147679  0  3.975167  0  0  -0.149499  0  3.994732  0  0  -0.090935  -0.146249  0  3.961805  0
C  C73  1  0.30493197  0.96616464  0.88515975  1  0  -0.129236  0  3.727019  0  0  -0.147743  0  3.975192  0  0  -0.149564  0  3.994761  0  0  -0.090936  -0.146313  0  3.961831  0
C  C74  1  0.54496135  0.12189007  0.07785704  1  0  0.151822  0  3.828584  0  0  0.149596  0  4.071921  0  0  0.15276  0  4.095977  0  0  0.084921  0.147375  0  4.055554  0
C  C75  1  0.45504049  0.87810538  0.92214437  1  0  0.151787  0  3.82861  0  0  0.149614  0  4.07188  0  0  0.152781  0  4.095935  0  0  0.084909  0.147393  0  4.055516  0
S  S76  1  0.28878624  0.88831645  0.61167527  1  0  1.562781  0  5.846493  0  0  1.438033  0  6.388714  0  0  1.492879  0  6.35479  0  0  0.555078  1.400048  0  6.411065  0
S  S77  1  0.71121331  0.11167900  0.38832654  1  0  1.562839  0  5.846237  0  0  1.438008  0  6.388525  0  0  1.492917  0  6.354569  0  0  0.555132  1.400021  0  6.410871  0
N  N78  1  0.85852776  0.68361478  0.65904648  1  0  -0.450169  0  3.210845  0  0  -0.379595  0  3.496779  0  0  -0.402632  0  3.512219  0  0  -0.358917  -0.363928  0  3.48599  0
N  N79  1  0.14147215  0.31638903  0.34095252  1  0  -0.450007  0  3.210681  0  0  -0.379474  0  3.496572  0  0  -0.402509  0  3.512011  0  0  -0.358871  -0.363809  0  3.485782  0
N  N80  1  0.11314656  0.53879701  0.65560435  1  0  -0.121127  0  3.519589  0  0  -0.029937  0  3.740506  0  0  -0.046817  0  3.765615  0  0  -0.243769  -0.018685  0  3.723241  0
N  N81  1  0.88685489  0.46120573  0.34439318  1  0  -0.121132  0  3.519504  0  0  -0.029877  0  3.740362  0  0  -0.046757  0  3.765481  0  0  -0.243753  -0.018627  0  3.723096  0
N  N82  1  0.36126523  0.24573449  0.95632481  1  0  -0.118883  0  3.53701  0  0  -0.027954  0  3.758497  0  0  -0.044815  0  3.783416  0  0  -0.23946  -0.01674  0  3.741393  0
N  N83  1  0.63873545  0.75426412  0.04367731  1  0  -0.11885  0  3.536998  0  0  -0.027918  0  3.758509  0  0  -0.044779  0  3.783429  0  0  -0.239437  -0.016703  0  3.741403  0
N  N84  1  0.39894067  0.17915388  0.13713234  1  0  -0.440489  0  3.206967  0  0  -0.374254  0  3.49446  0  0  -0.39667  0  3.509899  0  0  -0.354556  -0.35887  0  3.483476  0
N  N85  1  0.60106079  0.82084263  0.86286956  1  0  -0.440445  0  3.206981  0  0  -0.374234  0  3.494484  0  0  -0.396651  0  3.509924  0  0  -0.354516  -0.358848  0  3.483494  0
O  O86  1  0.43685669  0.81514391  0.67041306  1  0  -0.745489  0  1.981162  0  0  -0.683529  0  2.255967  0  0  -0.706552  0  2.235405  0  0  -0.373841  -0.667094  0  2.26935  0
O  O87  1  0.56314170  0.18485157  0.32959050  1  0  -0.745473  0  1.981121  0  0  -0.683539  0  2.255982  0  0  -0.706564  0  2.235396  0  0  -0.373846  -0.667103  0  2.269362  0
O  O88  1  0.14138739  0.88848070  0.69447650  1  0  -0.715322  0  1.921225  0  0  -0.662389  0  2.1602  0  0  -0.683328  0  2.141845  0  0  -0.359535  -0.647458  0  2.172301  0
O  O89  1  0.85861216  0.11150842  0.30552352  1  0  -0.715306  0  1.921108  0  0  -0.662362  0  2.160103  0  0  -0.683298  0  2.141726  0  0  -0.359548  -0.64743  0  2.172201  0
O  O90  1  0.28422724  0.03621497  0.54300602  1  0  -0.784757  0  1.991968  0  0  -0.71645  0  2.251428  0  0  -0.740229  0  2.232966  0  0  -0.371518  -0.699447  0  2.263469  0
O  O91  1  0.71576962  0.96378157  0.45699824  1  0  -0.784719  0  1.99192  0  0  -0.716433  0  2.251451  0  0  -0.7402  0  2.232936  0  0  -0.371498  -0.699429  0  2.263492  0
O  O92  1  0.29637189  0.81270160  0.53262947  1  0  -0.760301  0  1.957536  0  0  -0.692477  0  2.18863  0  0  -0.71523  0  2.171399  0  0  -0.3624  -0.676566  0  2.20026  0
O  O93  1  0.70363341  0.18729385  0.46737134  1  0  -0.760508  0  1.957563  0  0  -0.692508  0  2.188532  0  0  -0.715381  0  2.171354  0  0  -0.362455  -0.6766  0  2.200178  0
O  O94  1  0.46691478  0.11431124  0.62802894  1  0  -0.829362  0  1.851816  0  0  -0.770022  0  2.038794  0  0  -0.792098  0  2.007496  0  0  -0.589672  -0.754342  0  2.060503  0
O  O95  1  0.53308513  0.88568941  0.37196954  1  0  -0.829385  0  1.851821  0  0  -0.770026  0  2.038778  0  0  -0.792107  0  2.007505  0  0  -0.589664  -0.754346  0  2.060484  0
O  O96  1  0.82868685  0.00759563  0.65733037  1  0  -0.845119  0  1.856902  0  0  -0.781016  0  2.046088  0  0  -0.803277  0  2.014583  0  0  -0.591874  -0.765284  0  2.068303  0
O  O97  1  0.17131383  0.99240609  0.34266918  1  0  -0.845105  0  1.856935  0  0  -0.781018  0  2.046104  0  0  -0.803282  0  2.014624  0  0  -0.59188  -0.765285  0  2.068312  0
