# generated using pymatgen
data_ZnH30C34NO6
_symmetry_space_group_name_H-M   'P 1'
_cell_length_a   10.94945885
_cell_length_b   18.57802409
_cell_length_c   19.59765156
_cell_angle_alpha   89.22919032
_cell_angle_beta   91.71961537
_cell_angle_gamma   89.47103872
_symmetry_Int_Tables_number   1
_chemical_formula_structural   ZnH30C34NO6
_chemical_formula_sum   'Zn2 H60 C68 N2 O12'
_cell_volume   3984.19964350
_cell_formula_units_Z   2
loop_
 _symmetry_equiv_pos_site_id
 _symmetry_equiv_pos_as_xyz
  1  'x, y, z'
loop_
 _atom_site_type_symbol
 _atom_site_label
 _atom_site_symmetry_multiplicity
 _atom_site_fract_x
 _atom_site_fract_y
 _atom_site_fract_z
 _atom_site_occupancy
 _atom_site_pbe_bader_charge
 _atom_site_pbe_bader_spin_density
 _atom_site_pbe_cm5_charge
 _atom_site_pbe_ddec_charge
 _atom_site_pbe_ddec_spin_density
 _atom_site_pbe_ddec_sum_bond_order
 _atom_site_pbe_magmom
Zn  Zn0  1  0.50261710  0.41923855  0.50270939  1  1.319712  0  0.68202  0.879744  0  2.330307  0
Zn  Zn1  1  0.49500166  0.57949456  0.49673536  1  1.311966  0  0.681561  0.886018  0  2.314661  0
H  H2  1  0.73134166  0.76968757  0.31845681  1  0.059282  0  0.092668  0.083631  0  1.010032  0
H  H3  1  0.67017104  0.82815877  0.55511073  1  0.065789  0  0.102555  0.118187  0  1.050478  0
H  H4  1  0.60509184  0.16434743  0.59581979  1  0.067481  0  0.104134  0.122915  0  1.042871  0
H  H5  1  0.35017610  0.83366146  0.41937459  1  0.055498  0  0.10316  0.121385  0  1.04945  0
H  H6  1  0.61883309  0.05974884  0.58700222  1  0.044985  0  0.101924  0.10074  0  1.011269  0
H  H7  1  0.38380352  0.93841342  0.40294518  1  0.061653  0  0.102887  0.102427  0  1.007411  0
H  H8  1  0.62581252  0.92967507  0.58071812  1  0.044865  0  0.102758  0.103264  0  1.006682  0
H  H9  1  0.37038576  0.06805212  0.41172519  1  0.06321  0  0.103819  0.102724  0  1.01026  0
H  H10  1  0.70488166  0.64219366  0.28219279  1  0.056831  0  0.095029  0.089369  0  1.02216  0
H  H11  1  0.35149139  0.32467357  0.68539144  1  0.07022  0  0.097175  0.093601  0  1.013999  0
H  H12  1  0.79491357  0.54253519  0.35266205  1  0.064934  0  0.104682  0.106941  0  0.988688  0
H  H13  1  0.27039062  0.20228009  0.66012119  1  0.045786  0  0.092554  0.08691  0  1.006643  0
H  H14  1  0.25846671  0.43213919  0.62999046  1  0.120123  0  0.104428  0.110762  0  1.003993  0
H  H15  1  0.94666403  0.69530001  0.49388298  1  0.034848  0  0.098  0.093063  0  1.008498  0
H  H16  1  0.00064398  0.29839742  0.52155316  1  0.038852  0  0.09813  0.096464  0  1.008855  0
H  H17  1  0.85266849  0.79591206  0.42471327  1  0.044213  0  0.09225  0.083595  0  1.006421  0
H  H18  1  0.09334631  0.18983792  0.57799575  1  0.068569  0  0.092138  0.085306  0  1.007752  0
H  H19  1  0.11474188  0.59640134  0.45598326  1  0.116647  0  0.102339  0.11076  0  1.020068  0
H  H20  1  0.88371924  0.39541779  0.55295783  1  0.0971  0  0.098197  0.097185  0  1.054927  0
H  H21  1  0.47638296  0.61026691  0.28267316  1  0.059073  0  0.100707  0.099857  0  1.027036  0
H  H22  1  0.52708752  0.39503692  0.71366830  1  0.089193  0  0.100611  0.101119  0  1.037691  0
H  H23  1  0.48219126  0.61164220  0.15526365  1  0.055653  0  0.095818  0.093906  0  1.012694  0
H  H24  1  0.52867115  0.38176100  0.28665915  1  0.067349  0  0.105077  0.112341  0  0.997771  0
H  H25  1  0.53614154  0.38972096  0.84147350  1  0.048639  0  0.095646  0.09217  0  1.015327  0
H  H26  1  0.53556668  0.38146772  0.15914168  1  0.060032  0  0.097064  0.095183  0  1.009869  0
H  H27  1  0.50060514  0.62085949  0.84535830  1  0.047437  0  0.096833  0.093949  0  1.013118  0
H  H28  1  0.19749739  0.32051899  0.44522296  1  0.0844  0  0.09861  0.067118  0  1.026245  0
H  H29  1  0.21585567  0.25805166  0.37700685  1  0.021642  0  0.089025  0.042604  0  0.986924  0
H  H30  1  0.25029427  0.42080330  0.36419373  1  0.082547  0  0.099096  0.10748  0  0.978001  0
H  H31  1  0.24853473  0.35942324  0.29595745  1  0.043376  0  0.087944  0.077856  0  0.978739  0
H  H32  1  0.02398895  0.33188975  0.32039489  1  0.03114  0  0.079362  0.099128  0  1.011972  0
H  H33  1  0.04650538  0.42392205  0.29962800  1  0.012646  0  0.088625  0.117204  0  0.996254  0
H  H34  1  0.02982093  0.39719396  0.38594332  1  0.034564  0  0.084485  0.115002  0  1.023173  0
H  H35  1  0.49863610  0.62470459  0.71794784  1  0.075115  0  0.102732  0.106747  0  0.999983  0
H  H36  1  0.69437932  0.73318833  0.64974482  1  0.03032  0  0.09915  0.058623  0  0.97314  0
H  H37  1  0.81545616  0.74779938  0.59163993  1  0.03089  0  0.095406  0.050431  0  0.988769  0
H  H38  1  0.74886812  0.59909245  0.64678470  1  0.084941  0  0.100591  0.107885  0  0.975576  0
H  H39  1  0.88106044  0.62121310  0.60204888  1  0.047443  0  0.094017  0.0913  0  0.98589  0
H  H40  1  0.95133202  0.70003913  0.70255941  1  0.02121  0  0.081637  0.103235  0  1.009033  0
H  H41  1  0.93503285  0.60836896  0.72642558  1  0.024667  0  0.093012  0.124882  0  0.990736  0
H  H42  1  0.82026964  0.67178398  0.74699313  1  0.009159  0  0.081751  0.102719  0  1.014426  0
H  H43  1  0.77785099  0.33621935  0.63133194  1  0.0864  0  0.113302  0.088697  0  0.965811  0
H  H44  1  0.76674881  0.24661094  0.60076251  1  0.055168  0  0.100661  0.059795  0  0.987789  0
H  H45  1  0.65857189  0.29924697  0.73428180  1  0.011586  0  0.096339  0.094531  0  0.985134  0
H  H46  1  0.40894824  0.40082137  0.05938552  1  0.071594  0  0.099435  0.098383  0  1.004755  0
H  H47  1  0.66618818  0.20859697  0.70832555  1  0.018812  0  0.086115  0.074836  0  0.987379  0
H  H48  1  0.90057751  0.21635599  0.71282013  1  0.020312  0  0.08394  0.107904  0  1.012083  0
H  H49  1  0.83683792  0.23365613  0.79336234  1  0.037446  0  0.088743  0.11612  0  0.999968  0
H  H50  1  0.88736384  0.30595595  0.74156660  1  0.044914  0  0.09236  0.121757  0  0.992141  0
H  H51  1  0.29364597  0.66510020  0.31871556  1  0.093915  0  0.112162  0.085179  0  0.965651  0
H  H52  1  0.35227145  0.75385694  0.32770945  1  0.047997  0  0.097959  0.054461  0  0.991031  0
H  H53  1  0.10814248  0.70181224  0.38346640  1  0.049481  0  0.094538  0.094171  0  1.006197  0
H  H54  1  0.15942483  0.79146689  0.38457853  1  0.006038  0  0.085451  0.074529  0  0.988244  0
H  H55  1  0.15318852  0.79391621  0.25428682  1  0.016998  0  0.080147  0.100551  0  1.009914  0
H  H56  1  0.00808176  0.77265076  0.28745094  1  0.057648  0  0.08597  0.115648  0  1.020866  0
H  H57  1  0.62387220  0.59875823  0.94169704  1  0.031094  0  0.098843  0.097007  0  1.007328  0
H  H58  1  0.10134302  0.70349996  0.25499860  1  0.045356  0  0.089042  0.116154  0  0.994812  0
H  H59  1  0.41150607  0.40492670  0.93353779  1  0.037689  0  0.099377  0.098195  0  1.006361  0
H  H60  1  0.62044310  0.59486608  0.06752322  1  0.06973  0  0.099244  0.097769  0  1.005424  0
H  H61  1  0.36960051  0.17273748  0.41362386  1  0.081694  0  0.107329  0.128258  0  1.024911  0
C  C62  1  0.50620449  0.51155027  0.63188952  1  1.529528  0  0.208977  0.579366  0  4.195951  0
C  C63  1  0.52550702  0.44138774  0.81466670  1  -0.097644  0  -0.09769  -0.142671  0  4.005609  0
C  C64  1  0.50999555  0.49664210  0.14813421  1  0.02864  0  -0.009265  0.070517  0  4.014482  0
C  C65  1  0.51798338  0.50494133  0.85267498  1  -0.037854  0  -0.008232  0.071357  0  4.00976  0
C  C66  1  0.52137289  0.43185042  0.18592837  1  -0.045832  0  -0.096276  -0.14342  0  4.001153  0
C  C67  1  0.50911944  0.57108323  0.81687512  1  -0.046509  0  -0.096393  -0.142107  0  4.001536  0
C  C68  1  0.51833135  0.43156883  0.25691261  1  -0.037945  0  -0.084364  -0.087332  0  3.98637  0
C  C69  1  0.50684209  0.57360360  0.74582310  1  -0.008803  0  -0.086887  -0.090901  0  3.997534  0
C  C70  1  0.50235496  0.49604890  0.29192792  1  0.083627  0  -0.018086  -0.028837  0  3.959325  0
C  C71  1  0.51199266  0.50991909  0.70851810  1  0.001056  0  -0.019451  -0.028052  0  3.964126  0
C  C72  1  0.45794747  0.44377050  0.03373029  1  -0.03618  0  -0.094211  -0.130991  0  4.006241  0
C  C73  1  0.49886822  0.49636549  0.36841986  1  1.546018  0  0.208143  0.57887  0  4.203591  0
C  C74  1  0.57485543  0.55575986  0.96725359  1  0.030914  0  -0.094777  -0.130603  0  4.010029  0
C  C75  1  0.45958545  0.44604947  0.96277030  1  -0.046099  0  -0.094797  -0.130083  0  4.004631  0
C  C76  1  0.57293387  0.55358827  0.03817616  1  -0.090281  0  -0.095049  -0.131134  0  4.006788  0
C  C77  1  0.73384389  0.49036621  0.49865122  1  1.616238  0  0.212188  0.589556  0  4.176302  0
C  C78  1  0.26459396  0.49865489  0.50575044  1  1.570916  0  0.21319  0.587302  0  4.188761  0
C  C79  1  0.51783195  0.50217756  0.92794419  1  0.02388  0  -0.011413  0.062891  0  4.01459  0
C  C80  1  0.51403887  0.49770992  0.07295270  1  -0.08312  0  -0.010573  0.065034  0  4.013937  0
C  C81  1  0.42451689  0.27182922  0.45813714  1  1.044211  0  0.224887  0.441951  0  4.060091  0
C  C82  1  0.59289543  0.72742796  0.52399273  1  1.026014  0  0.224155  0.436397  0  4.073599  0
C  C83  1  0.42095530  0.19686191  0.45555655  1  0.049961  0  -0.10882  -0.328158  0  3.953543  0
C  C84  1  0.12772063  0.49564178  0.50939983  1  0.043577  0  -0.007719  -0.047712  0  3.916787  0
C  C85  1  0.59755000  0.80254145  0.52566436  1  0.082788  0  -0.121041  -0.35539  0  3.985972  0
C  C86  1  0.48871986  0.15553017  0.50394763  1  0.024098  0  0.008679  0.155293  0  4.023389  0
C  C87  1  0.50958232  0.84287301  0.48773939  1  -0.025814  0  0.006549  0.158825  0  4.033827  0
C  C88  1  0.55412535  0.19259599  0.55510553  1  0.022002  0  -0.114812  -0.343957  0  3.970774  0
C  C89  1  0.42310583  0.80560998  0.44787880  1  -0.036414  0  -0.120209  -0.352805  0  3.978847  0
C  C90  1  0.55124761  0.26775659  0.55487102  1  1.052335  0  0.220751  0.427763  0  4.079412  0
C  C91  1  0.42504133  0.73029397  0.44921642  1  1.106604  0  0.2229  0.434901  0  4.079616  0
C  C92  1  0.56543159  0.03404688  0.54654305  1  -0.05372  0  -0.087767  -0.119188  0  3.984608  0
C  C93  1  0.43453172  0.96422013  0.44441057  1  -0.12573  0  -0.087336  -0.1196  0  3.983875  0
C  C94  1  0.57078624  0.95948827  0.54247326  1  -0.061437  0  -0.087675  -0.119865  0  3.981509  0
C  C95  1  0.87097090  0.49432501  0.49753661  1  -0.070638  0  -0.013588  -0.067154  0  3.935938  0
C  C96  1  0.42778201  0.03866789  0.44913252  1  -0.043714  0  -0.086814  -0.118498  0  3.981777  0
C  C97  1  0.50568020  0.92239626  0.49118576  1  0.090397  0  -0.004567  0.068385  0  3.968802  0
C  C98  1  0.49335859  0.07591583  0.50019908  1  0.048742  0  -0.005309  0.064481  0  3.968458  0
C  C99  1  0.75736759  0.65438690  0.32870824  1  0.005898  0  -0.095694  -0.078962  0  4.02835  0
C  C100  1  0.27373333  0.31838620  0.64999368  1  -0.004524  0  -0.096299  -0.078027  0  4.020287  0
C  C101  1  0.80835701  0.59817879  0.36811811  1  -0.039011  0  -0.083583  -0.106485  0  3.944929  0
C  C102  1  0.22115828  0.37937079  0.61852382  1  -0.050575  0  -0.084642  -0.104733  0  3.937163  0
C  C103  1  0.87629165  0.61222329  0.42831382  1  0.031314  0  -0.000487  0.085836  0  3.986183  0
C  C104  1  0.12247751  0.37320157  0.57162642  1  -0.020442  0  -0.00762  0.071767  0  3.995017  0
C  C105  1  0.89320074  0.68401218  0.44738612  1  -0.059888  0  -0.094594  -0.137901  0  3.989403  0
C  C106  1  0.06415391  0.43657035  0.53683399  1  0.013028  0  -0.004124  0.042106  0  3.981388  0
C  C107  1  0.07669288  0.30405848  0.55835302  1  -0.036989  0  -0.097766  -0.146274  0  4.007632  0
C  C108  1  0.84046002  0.74039905  0.40850817  1  -0.028707  0  -0.10221  -0.089057  0  4.060924  0
C  C109  1  0.12921493  0.24299025  0.58990583  1  -0.132376  0  -0.1073  -0.101642  0  4.086713  0
C  C110  1  0.77229057  0.72574279  0.34902601  1  -0.142864  0  -0.104284  -0.103417  0  4.054472  0
C  C111  1  0.22846581  0.24992590  0.63576468  1  -0.086124  0  -0.105435  -0.1034  0  4.058771  0
C  C112  1  0.06233213  0.55237985  0.47745803  1  -0.117241  0  -0.085845  -0.153012  0  3.957417  0
C  C113  1  0.93660032  0.43859235  0.53066169  1  -0.083851  0  -0.087798  -0.147886  0  3.984444  0
C  C114  1  0.24166441  0.31157333  0.39637040  1  0.354732  0  -0.062251  0.048696  0  3.859459  0
C  C115  1  0.20801632  0.37118338  0.34539840  1  -0.01502  0  -0.167942  -0.127717  0  3.959978  0
C  C116  1  0.06956485  0.38135926  0.33743869  1  -0.078485  0  -0.24339  -0.347872  0  3.968524  0
C  C117  1  0.93488363  0.55265410  0.46905410  1  0.011972  0  0.000619  0.049813  0  3.978019  0
C  C118  1  0.75097477  0.70753006  0.61102147  1  0.415796  0  -0.057023  0.046421  0  3.881078  0
C  C119  1  0.81747202  0.64122273  0.64003379  1  -0.012789  0  -0.165969  -0.128557  0  3.942956  0
C  C120  1  0.88474158  0.65640200  0.70757749  1  -0.066822  0  -0.242399  -0.352322  0  3.990513  0
C  C121  1  0.72318988  0.28690859  0.63308157  1  0.371021  0  -0.056384  0.043653  0  3.852017  0
C  C122  1  0.71429617  0.26041311  0.70651162  1  0.019582  0  -0.169234  -0.140941  0  3.990935  0
C  C123  1  0.84160604  0.25352528  0.74048434  1  -0.086801  0  -0.240503  -0.351429  0  3.976976  0
C  C124  1  0.29173234  0.71353381  0.35038677  1  0.352816  0  -0.057312  0.041606  0  3.861592  0
C  C125  1  0.16139430  0.74142315  0.35504182  1  -0.0049  0  -0.170598  -0.139719  0  3.984466  0
C  C126  1  0.10298022  0.75379350  0.28399959  1  -0.098458  0  -0.243175  -0.348545  0  3.976138  0
C  C127  1  0.48963936  0.56068537  0.25465993  1  -0.093145  0  -0.089766  -0.09796  0  4.01494  0
C  C128  1  0.52176724  0.44387425  0.74368968  1  -0.033106  0  -0.089159  -0.096558  0  3.99799  0
C  C129  1  0.49402656  0.56110250  0.18383922  1  -0.075163  0  -0.098904  -0.14649  0  4.010577  0
N  N130  1  0.48874082  0.30691993  0.50680759  1  -1.251989  0  -0.321472  -0.385959  0  3.401869  0
N  N131  1  0.50675791  0.69179079  0.48752374  1  -1.233807  0  -0.326143  -0.393417  0  3.401726  0
O  O132  1  0.48699272  0.45160369  0.60303528  1  -1.172881  0  -0.313667  -0.559443  0  2.394931  0
O  O133  1  0.67230116  0.68298929  0.55631498  1  -1.0661  0  -0.147507  -0.184919  0  2.625701  0
O  O134  1  0.60640215  0.30843493  0.60268205  1  -1.06724  0  -0.162594  -0.206356  0  2.561107  0
O  O135  1  0.34384254  0.68926994  0.41541854  1  -1.059284  0  -0.16097  -0.196794  0  2.54867  0
O  O136  1  0.46586289  0.55523800  0.39529156  1  -1.170092  0  -0.320462  -0.560302  0  2.362486  0
O  O137  1  0.52059652  0.57215897  0.60246825  1  -1.163964  0  -0.316126  -0.549751  0  2.34219  0
O  O138  1  0.52881372  0.43831958  0.39975062  1  -1.161694  0  -0.315022  -0.547993  0  2.358865  0
O  O139  1  0.68909452  0.42926900  0.51377268  1  -1.164705  0  -0.321787  -0.547212  0  2.324775  0
O  O140  1  0.31337217  0.55947954  0.51580274  1  -1.155929  0  -0.316748  -0.543687  0  2.318523  0
O  O141  1  0.67427653  0.54809779  0.48628485  1  -1.171068  0  -0.302842  -0.54287  0  2.422555  0
O  O142  1  0.31844683  0.44053241  0.49005013  1  -1.16777  0  -0.305482  -0.547537  0  2.396136  0
O  O143  1  0.37300858  0.31442905  0.40890865  1  -1.074034  0  -0.175976  -0.228858  0  2.54371  0
