# generated using pymatgen
data_AlH24C27NO6
_symmetry_space_group_name_H-M   'P 1'
_cell_length_a   4.12657553
_cell_length_b   13.47366215
_cell_length_c   13.47388478
_cell_angle_alpha   119.99847183
_cell_angle_beta   90.00213626
_cell_angle_gamma   90.00118004
_symmetry_Int_Tables_number   1
_chemical_formula_structural   AlH24C27NO6
_chemical_formula_sum   'Al1 H24 C27 N1 O6'
_cell_volume   648.79216924
_cell_formula_units_Z   1
loop_
 _symmetry_equiv_pos_site_id
 _symmetry_equiv_pos_as_xyz
  1  'x, y, z'
loop_
 _atom_site_type_symbol
 _atom_site_label
 _atom_site_symmetry_multiplicity
 _atom_site_fract_x
 _atom_site_fract_y
 _atom_site_fract_z
 _atom_site_occupancy
 _atom_site_pbe_bader_charge
 _atom_site_pbe_bader_spin_density
 _atom_site_pbe_cm5_charge
 _atom_site_pbe_ddec_charge
 _atom_site_pbe_ddec_spin_density
 _atom_site_pbe_ddec_sum_bond_order
 _atom_site_pbe_magmom
Al  Al0  1  0.99998332  0.49999875  0.49999324  1  2.508486  0  0.436787  1.613648  0  2.549373  0
H  H1  1  0.22914921  0.02917746  0.90067421  1  0.068686  0  0.100871  0.11177  0  1.034004  0
H  H2  1  0.77088927  0.02918821  0.62850166  1  0.066164  0  0.100828  0.111676  0  1.033906  0
H  H3  1  0.77092231  0.09932506  0.97082025  1  0.068302  0  0.100851  0.111743  0  1.034086  0
H  H4  1  0.22911672  0.37149516  0.97080906  1  0.06578  0  0.100858  0.111754  0  1.033865  0
H  H5  1  0.77095881  0.37148499  0.90067747  1  0.05713  0  0.100869  0.111712  0  1.033924  0
H  H6  1  0.22905983  0.09931834  0.62851117  1  0.05715  0  0.100838  0.111681  0  1.033908  0
H  H7  1  0.70476281  0.83654664  0.43226065  1  0.024395  0  0.088117  0.120748  0  0.996464  0
H  H8  1  0.76446227  0.71032489  0.44063574  1  0.063187  0  0.095421  0.137614  0  1.017724  0
H  H9  1  0.06477036  0.81818471  0.49324149  1  0.022807  0  0.091724  0.134367  0  1.020207  0
H  H10  1  0.29527053  0.83652337  0.90427427  1  0.019764  0  0.088133  0.120807  0  0.996632  0
H  H11  1  0.23551354  0.71030100  0.76968543  1  0.009753  0  0.095397  0.137591  0  1.017323  0
H  H12  1  0.93527030  0.81818233  0.82494523  1  0.054059  0  0.091746  0.134379  0  1.0203  0
H  H13  1  0.70472835  0.09571569  0.16347459  1  0.020004  0  0.088122  0.120774  0  0.996505  0
H  H14  1  0.76446816  0.23031020  0.28968711  1  0.009743  0  0.095411  0.137594  0  1.017473  0
H  H15  1  0.06471966  0.17505479  0.18182242  1  0.054104  0  0.091778  0.134463  0  1.020259  0
H  H16  1  0.29522814  0.56772862  0.16344831  1  0.02452  0  0.088067  0.12071  0  0.996454  0
H  H17  1  0.23550325  0.55935728  0.28966632  1  0.063303  0  0.095441  0.137655  0  1.017853  0
H  H18  1  0.93520336  0.50675655  0.18180627  1  0.022645  0  0.09173  0.134343  0  1.020195  0
H  H19  1  0.70478737  0.56773738  0.90426701  1  0.026294  0  0.088161  0.12079  0  0.996655  0
H  H20  1  0.76453299  0.55937339  0.76968418  1  0.059645  0  0.095361  0.137519  0  1.01762  0
H  H21  1  0.06478245  0.50675989  0.82494500  1  0.02517  0  0.091772  0.134377  0  1.02019  0
H  H22  1  0.29525272  0.09572713  0.43226383  1  0.026321  0  0.088162  0.120832  0  0.996566  0
H  H23  1  0.23549883  0.23031224  0.44062231  1  0.059887  0  0.095379  0.137542  0  1.017559  0
H  H24  1  0.93524502  0.17505193  0.49323618  1  0.025062  0  0.091733  0.134358  0  1.020256  0
C  C25  1  0.49994480  0.41219363  0.32438167  1  1.558288  0  0.282492  0.685975  0  4.051973  0
C  C26  1  0.49999242  0.41219802  0.58781345  1  1.548901  0  0.282447  0.685883  0  4.052345  0
C  C27  1  0.50001353  0.67560897  0.58779840  1  1.539386  0  0.282364  0.685793  0  4.052265  0
C  C28  1  0.35312906  0.86365755  0.76064918  1  0.020589  0  -0.005734  0.167502  0  3.984956  0
C  C29  1  0.34921329  0.98316388  0.81786825  1  -0.083676  0  -0.104022  -0.253268  0  3.970913  0
C  C30  1  0.50001542  0.04498530  0.77248740  1  0.311956  0  0.091545  0.197862  0  4.044778  0
C  C31  1  0.65078089  0.98318020  0.66532100  1  -0.067246  0  -0.104096  -0.253265  0  3.971149  0
C  C32  1  0.64691023  0.86366115  0.60301147  1  0.088019  0  -0.00565  0.16751  0  3.984902  0
C  C33  1  0.50001214  0.80397606  0.65199017  1  0.047715  0  -0.021304  -0.180777  0  3.898351  0
C  C34  1  0.65081080  0.18212484  0.01682826  1  -0.083332  0  -0.104077  -0.253352  0  3.970703  0
C  C35  1  0.64687975  0.23934402  0.13634132  1  0.020736  0  -0.005631  0.16763  0  3.984817  0
C  C36  1  0.49995171  0.34800229  0.19601627  1  0.029183  0  -0.021337  -0.180731  0  3.8983  0
C  C37  1  0.35305796  0.39697977  0.13633301  1  0.08811  0  -0.005552  0.167593  0  3.984922  0
C  C38  1  0.34921241  0.33467003  0.01680717  1  -0.067262  0  -0.104223  -0.253525  0  3.971228  0
C  C39  1  0.49999647  0.22750897  0.95500819  1  0.31241  0  0.091566  0.197924  0  4.044802  0
C  C40  1  0.65081413  0.33468205  0.81785980  1  -0.068147  0  -0.104116  -0.253442  0  3.970944  0
C  C41  1  0.64693545  0.39698329  0.76064133  1  0.048285  0  -0.005648  0.167468  0  3.984834  0
C  C42  1  0.49999900  0.34800944  0.65199397  1  -0.034105  0  -0.021338  -0.180577  0  3.898669  0
C  C43  1  0.35308841  0.23935868  0.60301710  1  0.046191  0  -0.005624  0.167609  0  3.985297  0
C  C44  1  0.34920327  0.18214116  0.66531493  1  -0.065925  0  -0.104115  -0.253471  0  3.970999  0
C  C45  1  0.50001680  0.22750375  0.77249272  1  0.381607  0  0.091668  0.198195  0  4.044953  0
C  C46  1  0.80198117  0.80327211  0.48600734  1  -0.043541  0  -0.23964  -0.410794  0  3.947153  0
C  C47  1  0.19802606  0.80327503  0.81727763  1  -0.016662  0  -0.23968  -0.410865  0  3.946629  0
C  C48  1  0.80196167  0.18272413  0.19672774  1  -0.017001  0  -0.239722  -0.410971  0  3.946919  0
C  C49  1  0.19800003  0.51398965  0.19673303  1  -0.043535  0  -0.239669  -0.410816  0  3.947234  0
C  C50  1  0.80202065  0.51400649  0.81727669  1  -0.045018  0  -0.239707  -0.410727  0  3.946697  0
C  C51  1  0.19803066  0.18272743  0.48600366  1  -0.04513  0  -0.239682  -0.410859  0  3.947104  0
N  N52  1  0.50001845  0.16667022  0.83333165  1  -1.32119  0  -0.243292  -0.136518  0  3.595808  0
O  O53  1  0.73516189  0.62522404  0.60591105  1  -1.255497  0  -0.235258  -0.605464  0  2.379347  0
O  O54  1  0.73509677  0.48068723  0.37475623  1  -1.261868  0  -0.235391  -0.605597  0  2.379108  0
O  O55  1  0.73513901  0.39408138  0.51931693  1  -1.253829  0  -0.235379  -0.605667  0  2.37937  0
O  O56  1  0.26483683  0.62523107  0.51930280  1  -1.261832  0  -0.235262  -0.605548  0  2.379324  0
O  O57  1  0.26484447  0.48069203  0.60592239  1  -1.253088  0  -0.235303  -0.605619  0  2.379499  0
O  O58  1  0.26478617  0.39408246  0.37476435  1  -1.255854  0  -0.235186  -0.605539  0  2.379218  0
