# generated using pymatgen
data_ZnH19C15SN3O7
_symmetry_space_group_name_H-M   'P 1'
_cell_length_a   4.87863436
_cell_length_b   10.39946664
_cell_length_c   17.63244304
_cell_angle_alpha   92.17590071
_cell_angle_beta   90.00017872
_cell_angle_gamma   89.99996446
_symmetry_Int_Tables_number   1
_chemical_formula_structural   ZnH19C15SN3O7
_chemical_formula_sum   'Zn2 H38 C30 S2 N6 O14'
_cell_volume   893.94042265
_cell_formula_units_Z   2
loop_
 _symmetry_equiv_pos_site_id
 _symmetry_equiv_pos_as_xyz
  1  'x, y, z'
loop_
 _atom_site_type_symbol
 _atom_site_label
 _atom_site_symmetry_multiplicity
 _atom_site_fract_x
 _atom_site_fract_y
 _atom_site_fract_z
 _atom_site_occupancy
 _atom_site_hle17_bader_spin_density
 _atom_site_hle17_ddec_charge
 _atom_site_hle17_ddec_spin_density
 _atom_site_hle17_ddec_sum_bond_order
 _atom_site_hle17_magmom
 _atom_site_hse06_10hf_bader_spin_density
 _atom_site_hse06_10hf_ddec_charge
 _atom_site_hse06_10hf_ddec_spin_density
 _atom_site_hse06_10hf_ddec_sum_bond_order
 _atom_site_hse06_10hf_magmom
 _atom_site_hse06_bader_spin_density
 _atom_site_hse06_ddec_charge
 _atom_site_hse06_ddec_spin_density
 _atom_site_hse06_ddec_sum_bond_order
 _atom_site_hse06_magmom
 _atom_site_pbe_bader_spin_density
 _atom_site_pbe_cm5_charge
 _atom_site_pbe_ddec_charge
 _atom_site_pbe_ddec_spin_density
 _atom_site_pbe_ddec_sum_bond_order
 _atom_site_pbe_magmom
Zn  Zn0  1  0.92790950  0.77888214  0.86106653  1  0  1.131582  0  1.713074  0  0  0.949338  0  2.175884  0  0  0.999586  0  2.11622  0  0  0.696083  0.913857  0  2.217038  0
Zn  Zn1  1  0.42790727  0.22111850  0.13893366  1  0  1.131584  0  1.713042  0  0  0.949371  0  2.175819  0  0  0.999606  0  2.116165  0  0  0.69611  0.913891  0  2.216968  0
H  H2  1  0.61634138  0.44331468  0.56981283  1  0  0.101533  0  0.965438  0  0  0.10922  0  1.03096  0  0  0.111837  0  1.030308  0  0  0.104473  0.1073  0  1.031533  0
H  H3  1  0.11633994  0.55668508  0.43018764  1  0  0.101544  0  0.96538  0  0  0.109239  0  1.030891  0  0  0.111857  0  1.030239  0  0  0.104462  0.107317  0  1.031469  0
H  H4  1  0.64370915  0.64171463  0.49646830  1  0  0.095285  0  0.971916  0  0  0.104162  0  1.035909  0  0  0.106542  0  1.036292  0  0  0.098468  0.102468  0  1.035733  0
H  H5  1  0.14370470  0.35828706  0.50353337  1  0  0.095326  0  0.971935  0  0  0.104208  0  1.035906  0  0  0.106588  0  1.036289  0  0  0.098493  0.102514  0  1.035729  0
H  H6  1  0.96244855  0.80220152  0.62329172  1  0  0.091226  0  0.970637  0  0  0.101082  0  1.031842  0  0  0.103519  0  1.03269  0  0  0.098172  0.099339  0  1.031384  0
H  H7  1  0.46244698  0.19779911  0.37670736  1  0  0.091212  0  0.970623  0  0  0.101084  0  1.031817  0  0  0.103492  0  1.032696  0  0  0.098168  0.09934  0  1.031358  0
H  H8  1  0.93092593  0.60461323  0.69644992  1  0  0.115972  0  0.972041  0  0  0.121492  0  1.040258  0  0  0.124982  0  1.038166  0  0  0.106418  0.118924  0  1.04183  0
H  H9  1  0.43092327  0.39539031  0.30355146  1  0  0.115987  0  0.972043  0  0  0.12152  0  1.040233  0  0  0.125007  0  1.038146  0  0  0.106422  0.118951  0  1.041805  0
H  H10  1  0.52444405  0.87918095  0.49418418  1  0  0.109935  0  0.954753  0  0  0.131779  0  1.014954  0  0  0.133562  0  1.01419  0  0  0.091642  0.130538  0  1.015408  0
H  H11  1  0.02443994  0.12081786  0.50581449  1  0  0.109948  0  0.954739  0  0  0.131798  0  1.014936  0  0  0.133581  0  1.014171  0  0  0.091663  0.130556  0  1.015391  0
H  H12  1  0.20439360  0.93315798  0.53303022  1  0  0.102296  0  0.96491  0  0  0.123825  0  1.026758  0  0  0.125482  0  1.026159  0  0  0.089461  0.12263  0  1.02714  0
H  H13  1  0.70439233  0.06684270  0.46696807  1  0  0.102273  0  0.96492  0  0  0.123802  0  1.026769  0  0  0.125458  0  1.02617  0  0  0.089445  0.122606  0  1.027151  0
H  H14  1  0.21291403  0.82961474  0.45071548  1  0  0.129018  0  0.948978  0  0  0.150694  0  1.009165  0  0  0.152598  0  1.008372  0  0  0.095388  0.149224  0  1.009861  0
H  H15  1  0.71291355  0.17038305  0.54928277  1  0  0.129055  0  0.948974  0  0  0.150717  0  1.009176  0  0  0.152621  0  1.008384  0  0  0.095384  0.149247  0  1.009875  0
H  H16  1  0.33053776  0.89955670  0.93690751  1  0  0.430984  0  0.872358  0  0  0.398213  0  0.939157  0  0  0.409117  0  0.923153  0  0  0.288782  0.390572  0  0.950351  0
H  H17  1  0.83053189  0.10044396  0.06309203  1  0  0.431013  0  0.872325  0  0  0.398245  0  0.93912  0  0  0.409147  0  0.923118  0  0  0.288784  0.390604  0  0.950314  0
H  H18  1  0.10190270  0.00687931  0.94637106  1  0  0.428557  0  0.872238  0  0  0.397212  0  0.935492  0  0  0.407952  0  0.919942  0  0  0.289335  0.389696  0  0.946368  0
H  H19  1  0.60189759  0.99312044  0.05362883  1  0  0.428544  0  0.87226  0  0  0.397225  0  0.935475  0  0  0.407966  0  0.919925  0  0  0.289342  0.389708  0  0.946354  0
H  H20  1  0.07821672  0.49280684  0.81305473  1  0  0.084827  0  0.954905  0  0  0.092428  0  1.01996  0  0  0.095208  0  1.018059  0  0  0.11582  0.090395  0  1.021436  0
H  H21  1  0.57821376  0.50719291  0.18694401  1  0  0.0848  0  0.954895  0  0  0.09241  0  1.019965  0  0  0.095189  0  1.018067  0  0  0.11582  0.090375  0  1.021449  0
H  H22  1  0.54876913  0.42180744  0.91887471  1  0  0.079841  0  0.927226  0  0  0.096483  0  0.987443  0  0  0.097732  0  0.987226  0  0  0.094928  0.09551  0  0.987746  0
H  H23  1  0.04876987  0.57819137  0.08112569  1  0  0.07988  0  0.927142  0  0  0.096513  0  0.987365  0  0  0.097762  0  0.987148  0  0  0.094945  0.095541  0  0.987667  0
H  H24  1  0.24392161  0.50385558  0.94463244  1  0  0.096971  0  0.920587  0  0  0.113107  0  0.980459  0  0  0.114541  0  0.980261  0  0  0.102705  0.112039  0  0.980672  0
H  H25  1  0.74392128  0.49614414  0.05536758  1  0  0.096966  0  0.920619  0  0  0.113098  0  0.980484  0  0  0.114532  0  0.980287  0  0  0.10269  0.112031  0  0.980697  0
H  H26  1  0.26883616  0.22866195  0.87421981  1  0  0.099984  0  0.933835  0  0  0.114506  0  0.99548  0  0  0.11681  0  0.9942  0  0  0.098594  0.112902  0  0.996335  0
H  H27  1  0.76884035  0.77133777  0.12578080  1  0  0.099974  0  0.933896  0  0  0.114508  0  0.99554  0  0  0.116812  0  0.99426  0  0  0.098602  0.112904  0  0.996393  0
H  H28  1  0.96534879  0.30944933  0.90061021  1  0  0.100897  0  0.920982  0  0  0.119661  0  0.974878  0  0  0.121589  0  0.974313  0  0  0.10095  0.118216  0  0.975378  0
H  H29  1  0.46535164  0.69055034  0.09938999  1  0  0.100876  0  0.920955  0  0  0.119651  0  0.974861  0  0  0.121579  0  0.974296  0  0  0.100946  0.118206  0  0.975361  0
H  H30  1  0.06744964  0.06051949  0.81209909  1  0  0.097279  0  0.962678  0  0  0.106244  0  1.025622  0  0  0.108889  0  1.022286  0  0  0.136276  0.104146  0  1.028158  0
H  H31  1  0.56745227  0.93948124  0.18790193  1  0  0.097269  0  0.962655  0  0  0.106239  0  1.025601  0  0  0.108886  0  1.022263  0  0  0.136275  0.10414  0  1.028139  0
H  H32  1  0.44680488  0.02932883  0.64470704  1  0  0.110131  0  0.970552  0  0  0.12032  0  1.030705  0  0  0.122793  0  1.030039  0  0  0.119121  0.118469  0  1.031402  0
H  H33  1  0.94680730  0.97066795  0.35529139  1  0  0.11015  0  0.970526  0  0  0.120275  0  1.030757  0  0  0.122748  0  1.030091  0  0  0.11912  0.118422  0  1.031455  0
H  H34  1  0.48211182  0.80011979  0.72135369  1  0  0.104776  0  0.985987  0  0  0.110908  0  1.0514  0  0  0.112423  0  1.05239  0  0  0.114824  0.109829  0  1.05065  0
H  H35  1  0.98211029  0.19987892  0.27864708  1  0  0.104766  0  0.985968  0  0  0.110895  0  1.051393  0  0  0.112414  0  1.052368  0  0  0.114818  0.109816  0  1.050644  0
H  H36  1  0.81139692  0.17485731  0.70736891  1  0  0.309276  0  0.909925  0  0  0.288361  0  0.973735  0  0  0.295934  0  0.967925  0  0  0.316449  0.283055  0  0.977742  0
H  H37  1  0.31139767  0.82514335  0.29262948  1  0  0.309272  0  0.909926  0  0  0.288361  0  0.973732  0  0  0.295932  0  0.967925  0  0  0.316462  0.283054  0  0.977741  0
H  H38  1  0.61616210  0.39606407  0.75890188  1  0  0.314374  0  0.901773  0  0  0.295348  0  0.971195  0  0  0.303393  0  0.964094  0  0  0.305095  0.289712  0  0.97618  0
H  H39  1  0.11616052  0.60393569  0.24109859  1  0  0.314403  0  0.901754  0  0  0.295367  0  0.97118  0  0  0.303412  0  0.964082  0  0  0.305106  0.289734  0  0.97617  0
C  C40  1  0.27024691  0.51179476  0.63650865  1  0  -0.151637  0  3.777615  0  0  -0.126617  0  4.031149  0  0  -0.135659  0  4.054355  0  0  -0.028554  -0.120909  0  4.015819  0
C  C41  1  0.77023981  0.48821073  0.36349263  1  0  -0.151535  0  3.777483  0  0  -0.126484  0  4.030979  0  0  -0.135525  0  4.054185  0  0  -0.028509  -0.120791  0  4.015672  0
C  C42  1  0.47351864  0.52216120  0.58108625  1  0  -0.054368  0  3.766423  0  0  -0.078867  0  4.0159  0  0  -0.076829  0  4.035908  0  0  -0.083643  -0.079934  0  4.002313  0
C  C43  1  0.97351013  0.47784041  0.41891627  1  0  -0.054306  0  3.766324  0  0  -0.078825  0  4.015789  0  0  -0.076785  0  4.035797  0  0  -0.083586  -0.079888  0  4.002207  0
C  C44  1  0.48715945  0.63352198  0.54006651  1  0  -0.12636  0  3.716647  0  0  -0.141222  0  3.957363  0  0  -0.146723  0  3.979119  0  0  -0.089655  -0.137642  0  3.942604  0
C  C45  1  0.98716180  0.36647768  0.45993314  1  0  -0.126417  0  3.716528  0  0  -0.141276  0  3.95725  0  0  -0.146774  0  3.978995  0  0  -0.08967  -0.137699  0  3.942497  0
C  C46  1  0.30238644  0.73515160  0.55370540  1  0  0.157894  0  3.742477  0  0  0.18355  0  3.974186  0  0  0.187103  0  3.996892  0  0  0.000266  0.181334  0  3.958667  0
C  C47  1  0.80238057  0.26485003  0.44629471  1  0  0.157846  0  3.742423  0  0  0.183491  0  3.974137  0  0  0.187046  0  3.996838  0  0  0.000178  0.181274  0  3.958619  0
C  C48  1  0.10602649  0.72368765  0.61103426  1  0  -0.123482  0  3.708106  0  0  -0.136851  0  3.945743  0  0  -0.142058  0  3.966756  0  0  -0.088341  -0.13352  0  3.931571  0
C  C49  1  0.60601996  0.27631595  0.38896572  1  0  -0.123453  0  3.708215  0  0  -0.136829  0  3.945835  0  0  -0.142015  0  3.966861  0  0  -0.088304  -0.133495  0  3.931661  0
C  C50  1  0.08713217  0.61261384  0.65262287  1  0  -0.051389  0  3.729801  0  0  -0.076505  0  3.980931  0  0  -0.074529  0  4.000344  0  0  -0.082697  -0.077626  0  3.967869  0
C  C51  1  0.58713117  0.38738977  0.34737765  1  0  -0.051519  0  3.729829  0  0  -0.076648  0  3.98096  0  0  -0.074673  0  4.000371  0  0  -0.082758  -0.077763  0  3.967897  0
C  C52  1  0.31211422  0.85118478  0.50578856  1  0  -0.346924  0  3.726002  0  0  -0.429495  0  3.959376  0  0  -0.432153  0  3.967389  0  0  -0.240361  -0.427393  0  3.953746  0
C  C53  1  0.81211110  0.14881588  0.49421153  1  0  -0.346939  0  3.725973  0  0  -0.429498  0  3.959333  0  0  -0.432156  0  3.967344  0  0  -0.240356  -0.427396  0  3.953703  0
C  C54  1  0.44328606  0.60948242  0.82071481  1  0  0.650652  0  3.862628  0  0  0.596211  0  4.168205  0  0  0.629534  0  4.161864  0  0  0.213142  0.573622  0  4.171681  0
C  C55  1  0.94328522  0.39051724  0.17928311  1  0  0.650492  0  3.862793  0  0  0.596053  0  4.168391  0  0  0.629377  0  4.162054  0  0  0.21303  0.573466  0  4.171866  0
C  C56  1  0.29740928  0.47945560  0.82443670  1  0  0.024825  0  3.610021  0  0  0.004218  0  3.855681  0  0  0.003407  0  3.867119  0  0  -7e-05  0.004638  0  3.848095  0
C  C57  1  0.79740617  0.52054314  0.17556221  1  0  0.024975  0  3.609936  0  0  0.004315  0  3.855665  0  0  0.003502  0  3.867104  0  0  -2.5e-05  0.004738  0  3.848087  0
C  C58  1  0.32969544  0.43012998  0.90514459  1  0  -0.104239  0  3.640081  0  0  -0.15115  0  3.900695  0  0  -0.150995  0  3.912163  0  0  -0.159072  -0.151078  0  3.892726  0
C  C59  1  0.82969546  0.56986875  0.09485492  1  0  -0.10431  0  3.64006  0  0  -0.151167  0  3.900673  0  0  -0.151017  0  3.912151  0  0  -0.159072  -0.151093  0  3.892703  0
C  C60  1  0.18487637  0.30199681  0.91449105  1  0  -0.25087  0  3.676131  0  0  -0.290901  0  3.932862  0  0  -0.296383  0  3.941112  0  0  -0.162845  -0.286989  0  3.92697  0
C  C61  1  0.68487815  0.69800197  0.08550946  1  0  -0.250866  0  3.676201  0  0  -0.290941  0  3.932976  0  0  -0.296422  0  3.941225  0  0  -0.162871  -0.287029  0  3.927083  0
C  C62  1  0.20472461  0.24667658  0.99286106  1  0  0.718531  0  3.824365  0  0  0.668915  0  4.120634  0  0  0.702705  0  4.113997  0  0  0.219649  0.645987  0  4.124393  0
C  C63  1  0.70472134  0.75332026  0.00713886  1  0  0.718557  0  3.824292  0  0  0.668937  0  4.120576  0  0  0.702727  0  4.113939  0  0  0.219664  0.646008  0  4.124335  0
C  C64  1  0.90415698  0.02046364  0.77713543  1  0  0.224655  0  3.661827  0  0  0.166411  0  3.921258  0  0  0.180448  0  3.9347  0  0  0.146185  0.157334  0  3.911968  0
C  C65  1  0.40415059  0.97953412  0.22286355  1  0  0.224694  0  3.661779  0  0  0.166459  0  3.921238  0  0  0.180496  0  3.934679  0  0  0.146197  0.157383  0  3.911948  0
C  C66  1  0.58092399  0.99952821  0.68950827  1  0  -0.030972  0  3.705353  0  0  -0.069578  0  3.968467  0  0  -0.069531  0  3.988199  0  0  -0.006789  -0.069643  0  3.955317  0
C  C67  1  0.08092604  0.00047252  0.31049219  1  0  -0.030931  0  3.7054  0  0  -0.069468  0  3.968523  0  0  -0.069421  0  3.988256  0  0  -0.006754  -0.069534  0  3.955373  0
C  C68  1  0.60042769  0.88757457  0.72796977  1  0  0.005682  0  3.749572  0  0  -0.026228  0  4.011974  0  0  -0.023876  0  4.032761  0  0  -0.001735  -0.027766  0  3.997853  0
C  C69  1  0.10042915  0.11242519  0.27203069  1  0  0.005648  0  3.749576  0  0  -0.026244  0  4.011955  0  0  -0.02389  0  4.032743  0  0  -0.001737  -0.027783  0  3.997833  0
S  S70  1  0.24905898  0.36735149  0.68613531  1  0  1.222347  0  5.381832  0  0  1.122693  0  5.900523  0  0  1.166991  0  5.883196  0  0  0.562882  1.09228  0  5.911707  0
S  S71  1  0.74905113  0.63265015  0.31386361  1  0  1.22235  0  5.381765  0  0  1.122646  0  5.900483  0  0  1.166945  0  5.883152  0  0  0.562817  1.092246  0  5.911678  0
N  N72  1  0.40853438  0.38549008  0.76754969  1  0  -0.548503  0  3.110421  0  0  -0.500186  0  3.386128  0  0  -0.518343  0  3.387574  0  0  -0.451717  -0.487551  0  3.384568  0
N  N73  1  0.90853179  0.61450864  0.23244988  1  0  -0.548582  0  3.110328  0  0  -0.500258  0  3.386096  0  0  -0.518412  0  3.387538  0  0  -0.451774  -0.487649  0  3.384558  0
N  N74  1  0.80220987  0.90193743  0.78266874  1  0  -0.398058  0  3.289625  0  0  -0.313669  0  3.580185  0  0  -0.335587  0  3.592726  0  0  -0.354277  -0.298831  0  3.571369  0
N  N75  1  0.30221278  0.09806131  0.21733073  1  0  -0.398073  0  3.28957  0  0  -0.313714  0  3.580157  0  0  -0.335631  0  3.592696  0  0  -0.354302  -0.298876  0  3.571346  0
N  N76  1  0.77404645  0.08183944  0.72155558  1  0  -0.277996  0  3.479319  0  0  -0.212126  0  3.718154  0  0  -0.227295  0  3.732996  0  0  -0.382278  -0.202016  0  3.70782  0
N  N77  1  0.27404487  0.91815931  0.27844388  1  0  -0.277997  0  3.479315  0  0  -0.212156  0  3.718169  0  0  -0.227325  0  3.733011  0  0  -0.382298  -0.202047  0  3.707832  0
O  O78  1  0.69605547  0.60883947  0.80334703  1  0  -0.642163  0  2.010236  0  0  -0.577938  0  2.263919  0  0  -0.604091  0  2.251833  0  0  -0.313552  -0.559636  0  2.271635  0
O  O79  1  0.19605162  0.39116027  0.19665351  1  0  -0.642057  0  2.010214  0  0  -0.577866  0  2.263949  0  0  -0.604002  0  2.251834  0  0  -0.313509  -0.559559  0  2.271661  0
O  O80  1  0.31079205  0.71126428  0.83825300  1  0  -0.638829  0  2.103734  0  0  -0.56549  0  2.384186  0  0  -0.593652  0  2.369572  0  0  -0.314511  -0.545881  0  2.393454  0
O  O81  1  0.81079114  0.28873542  0.16174707  1  0  -0.638771  0  2.103821  0  0  -0.565426  0  2.384282  0  0  -0.59359  0  2.369668  0  0  -0.314458  -0.545817  0  2.39355  0
O  O82  1  0.39288183  0.26845926  0.64210499  1  0  -0.603493  0  1.96441  0  0  -0.556322  0  2.216705  0  0  -0.575455  0  2.204475  0  0  -0.31236  -0.542848  0  2.22457  0
O  O83  1  0.89287230  0.73154331  0.35789464  1  0  -0.603478  0  1.964385  0  0  -0.556302  0  2.216689  0  0  -0.575434  0  2.204461  0  0  -0.312336  -0.542829  0  2.22455  0
O  O84  1  0.96107392  0.34642435  0.70392015  1  0  -0.625398  0  2.017006  0  0  -0.569243  0  2.270367  0  0  -0.58946  0  2.257431  0  0  -0.310475  -0.55509  0  2.278823  0
O  O85  1  0.46106674  0.65357434  0.29607776  1  0  -0.625445  0  2.017116  0  0  -0.569228  0  2.270453  0  0  -0.589449  0  2.257521  0  0  -0.310413  -0.555061  0  2.278872  0
O  O86  1  0.34343016  0.30988734  0.04335760  1  0  -0.63863  0  2.039067  0  0  -0.563123  0  2.302186  0  0  -0.59365  0  2.289918  0  0  -0.315899  -0.541974  0  2.309939  0
O  O87  1  0.84343359  0.69011525  0.95664256  1  0  -0.638633  0  2.039027  0  0  -0.563129  0  2.302165  0  0  -0.593657  0  2.289898  0  0  -0.315911  -0.541981  0  2.309918  0
O  O88  1  0.08562635  0.14084763  0.00410091  1  0  -0.666714  0  2.019969  0  0  -0.603518  0  2.24155  0  0  -0.62834  0  2.228025  0  0  -0.318601  -0.586395  0  2.250457  0
O  O89  1  0.58562795  0.85915117  0.99589952  1  0  -0.666672  0  2.019951  0  0  -0.603477  0  2.241529  0  0  -0.628299  0  2.228005  0  0  -0.318576  -0.586355  0  2.250438  0
O  O90  1  0.16339657  0.93368371  0.91251108  1  0  -0.859349  0  1.904212  0  0  -0.797395  0  2.111089  0  0  -0.820108  0  2.076791  0  0  -0.58769  -0.781333  0  2.134641  0
O  O91  1  0.66339101  0.06631699  0.08748832  1  0  -0.859375  0  1.904173  0  0  -0.797452  0  2.111033  0  0  -0.820164  0  2.076736  0  0  -0.587708  -0.781386  0  2.134586  0
