# generated using pymatgen
data_ZnH4C13N3O8
_symmetry_space_group_name_H-M   'P 1'
_cell_length_a   9.99096877
_cell_length_b   10.92929083
_cell_length_c   11.75634236
_cell_angle_alpha   86.65578276
_cell_angle_beta   89.87325097
_cell_angle_gamma   86.64807900
_symmetry_Int_Tables_number   1
_chemical_formula_structural   ZnH4C13N3O8
_chemical_formula_sum   'Zn2 H8 C26 N6 O16'
_cell_volume   1279.34505178
_cell_formula_units_Z   2
loop_
 _symmetry_equiv_pos_site_id
 _symmetry_equiv_pos_as_xyz
  1  'x, y, z'
loop_
 _atom_site_type_symbol
 _atom_site_label
 _atom_site_symmetry_multiplicity
 _atom_site_fract_x
 _atom_site_fract_y
 _atom_site_fract_z
 _atom_site_occupancy
 _atom_site_pbe_bader_charge
 _atom_site_pbe_bader_spin_density
 _atom_site_pbe_cm5_charge
 _atom_site_pbe_ddec_charge
 _atom_site_pbe_ddec_spin_density
 _atom_site_pbe_ddec_sum_bond_order
 _atom_site_pbe_magmom
Zn  Zn0  1  0.63975064  0.49307594  0.49521665  1  1.310067  0  0.687276  0.863892  0  2.309705  0
Zn  Zn1  1  0.35144838  0.50279325  0.49292056  1  1.293805  0  0.684514  0.835463  0  2.35305  0
H  H2  1  0.91522287  0.85174560  0.68037257  1  0.11353  0  0.118309  0.129436  0  0.983401  0
H  H3  1  0.31367345  0.89931437  0.40796448  1  0.158751  0  0.121688  0.138616  0  0.990368  0
H  H4  1  0.26345908  0.32627298  0.64927591  1  0.19339  0  0.127036  0.152675  0  1.031178  0
H  H5  1  0.90364675  0.25223100  0.83516738  1  0.131199  0  0.13146  0.143311  0  0.961418  0
H  H6  1  0.76527639  0.37868911  0.69123297  1  0.176157  0  0.117607  0.148601  0  1.061728  0
H  H7  1  0.77205635  0.19006752  0.50612158  1  0.168819  0  0.114007  0.133093  0  1.053414  0
H  H8  1  0.69824016  0.76095514  0.64312087  1  0.118321  0  0.110845  0.128268  0  1.018033  0
H  H9  1  0.12210870  0.59742629  0.34768291  1  0.179486  0  0.152725  0.145487  0  0.942875  0
C  C10  1  0.51777399  0.26403115  0.47033837  1  1.619039  0  0.227898  0.609248  0  4.158544  0
C  C11  1  0.48196635  0.47694643  0.71343764  1  1.702436  0  0.225449  0.663852  0  4.234078  0
C  C12  1  0.47735529  0.73112403  0.51102604  1  1.584076  0  0.225026  0.608378  0  4.129987  0
C  C13  1  0.49680222  0.52393652  0.27608622  1  1.70076  0  0.229423  0.66668  0  4.227507  0
C  C14  1  0.48881001  0.48474365  0.83491627  1  0.126654  0  -0.015239  -0.1531  0  3.863295  0
C  C15  1  0.49445587  0.49639014  0.93766645  1  -0.305848  0  -0.004583  0.040337  0  4.22975  0
C  C16  1  0.49833783  0.50889408  0.05096578  1  -0.368049  0  -0.005602  0.027941  0  4.223652  0
C  C17  1  0.49972525  0.51947557  0.15392803  1  0.309181  0  -0.001248  -0.120285  0  3.835179  0
C  C18  1  0.75371459  0.09737329  0.53766286  1  0.044155  0  -0.072009  -0.153963  0  3.909802  0
C  C19  1  0.85552724  0.02291527  0.58711713  1  0.124714  0  0.076051  0.072338  0  3.97819  0
C  C20  1  0.83510330  0.90355106  0.63293195  1  0.022714  0  -0.078183  -0.122373  0  3.988353  0
C  C21  1  0.71452736  0.85434099  0.61245865  1  0.038449  0  -0.079949  -0.101593  0  3.941941  0
C  C22  1  0.61129311  0.92107809  0.54701572  1  -0.047196  0  0.019724  0.082587  0  3.884513  0
C  C23  1  0.62700373  0.04993070  0.51951352  1  0.029499  0  0.012667  0.077153  0  3.907913  0
C  C24  1  0.52009198  0.12573508  0.46653252  1  0.041578  0  0.020939  -0.06789  0  3.823727  0
C  C25  1  0.41242252  0.06697451  0.42533422  1  0.166032  0  0.088667  0.060187  0  3.91349  0
C  C26  1  0.39934640  0.94049866  0.44398452  1  0.052886  0  -0.061054  -0.115331  0  3.934203  0
C  C27  1  0.49478808  0.86727228  0.50532006  1  0.060227  0  0.002885  -0.047229  0  3.868496  0
C  C28  1  0.15599833  0.34207701  0.65959435  1  0.056787  0  -0.05264  -0.156437  0  3.87879  0
C  C29  1  0.09015430  0.28502098  0.74842484  1  0.213013  0  0.09306  0.092301  0  3.911376  0
C  C30  1  0.95002073  0.29850399  0.76195700  1  -0.024398  0  -0.053426  -0.075328  0  3.915859  0
C  C31  1  0.87376843  0.36785520  0.68156133  1  0.080435  0  -0.076451  -0.148841  0  3.901753  0
C  C32  1  0.93614591  0.42856104  0.58793347  1  0.419335  0  0.134941  0.192775  0  3.910638  0
C  C33  1  0.08021386  0.41832522  0.57951550  1  0.487665  0  0.138802  0.188619  0  3.903164  0
C  C34  1  0.07126651  0.54795577  0.41677757  1  0.615154  0  0.095007  0.033249  0  3.836638  0
C  C35  1  0.93012913  0.55546597  0.42557517  1  0.828953  0  0.240136  0.200399  0  3.906915  0
N  N36  1  0.14418238  0.48170069  0.49393787  1  -1.199881  0  -0.273872  -0.154617  0  3.430566  0
N  N37  1  0.86152977  0.49913527  0.50694827  1  -1.15596  0  -0.260101  -0.240259  0  3.345208  0
N  N38  1  0.31032541  0.13450144  0.35077097  1  0.405805  0  0.05963  0.51814  0  4.196391  0
N  N39  1  0.86026837  0.63992763  0.33826422  1  0.44571  0  0.064961  0.473389  0  4.251756  0
N  N40  1  0.98970729  0.07018884  0.58963512  1  0.341292  0  0.054787  0.511292  0  4.206225  0
N  N41  1  0.17031744  0.20341116  0.83140917  1  0.418158  0  0.065214  0.515636  0  4.201192  0
O  O42  1  0.62510478  0.31797442  0.44777818  1  -1.152148  0  -0.303462  -0.520875  0  2.329808  0
O  O43  1  0.40866292  0.31458186  0.50443992  1  -1.165197  0  -0.302638  -0.543002  0  2.359979  0
O  O44  1  0.58755073  0.43706683  0.66294623  1  -1.164734  0  -0.305486  -0.54592  0  2.331466  0
O  O45  1  0.37078393  0.51155365  0.66577789  1  -1.134476  0  -0.299635  -0.5213  0  2.291756  0
O  O46  1  0.57968530  0.66126423  0.54095580  1  -1.176799  0  -0.314879  -0.564606  0  2.451258  0
O  O47  1  0.36479657  0.69373583  0.48253285  1  -1.153651  0  -0.311767  -0.532908  0  2.259504  0
O  O48  1  0.60618009  0.54306114  0.32565018  1  -1.140841  0  -0.310135  -0.54577  0  2.310953  0
O  O49  1  0.38361542  0.50675927  0.32283889  1  -1.125182  0  -0.301412  -0.524328  0  2.287581  0
O  O50  1  0.19745076  0.09343637  0.34905757  1  -0.445751  0  -0.133408  -0.326491  0  1.904619  0
O  O51  1  0.34660861  0.22405702  0.29161711  1  -0.439105  0  -0.127313  -0.319932  0  1.915497  0
O  O52  1  0.88722244  0.61906461  0.23856370  1  -0.398575  0  -0.095757  -0.275605  0  1.862891  0
O  O53  1  0.78972563  0.72559594  0.37372070  1  -0.405761  0  -0.086761  -0.2645  0  1.950899  0
O  O54  1  0.01083369  0.16258705  0.52709941  1  -0.453699  0  -0.128516  -0.338697  0  2.001942  0
O  O55  1  0.07491394  0.01492393  0.65368277  1  -0.456576  0  -0.138471  -0.341107  0  1.884403  0
O  O56  1  0.29324477  0.19587087  0.81814852  1  -0.437317  0  -0.12317  -0.312262  0  1.877072  0
O  O57  1  0.10759237  0.14885077  0.90763611  1  -0.427089  0  -0.123564  -0.318793  0  1.865457  0
