# generated using pymatgen
data_Zn4H15C30S3N3O13
_symmetry_space_group_name_H-M   'P 1'
_cell_length_a   20.45654074
_cell_length_b   20.74472435
_cell_length_c   20.39686848
_cell_angle_alpha   60.22107597
_cell_angle_beta   61.34167522
_cell_angle_gamma   89.95704530
_symmetry_Int_Tables_number   1
_chemical_formula_structural   Zn4H15C30S3N3O13
_chemical_formula_sum   'Zn8 H30 C60 S6 N6 O26'
_cell_volume   6263.82904135
_cell_formula_units_Z   2
loop_
 _symmetry_equiv_pos_site_id
 _symmetry_equiv_pos_as_xyz
  1  'x, y, z'
loop_
 _atom_site_type_symbol
 _atom_site_label
 _atom_site_symmetry_multiplicity
 _atom_site_fract_x
 _atom_site_fract_y
 _atom_site_fract_z
 _atom_site_occupancy
 _atom_site_pbe_bader_charge
 _atom_site_pbe_bader_spin_density
 _atom_site_pbe_cm5_charge
 _atom_site_pbe_ddec_charge
 _atom_site_pbe_ddec_spin_density
 _atom_site_pbe_ddec_sum_bond_order
 _atom_site_pbe_magmom
Zn  Zn0  1  0.88735439  0.95942226  0.12564456  1  1.315045  0  0.672165  0.975772  0  2.309521  0
Zn  Zn1  1  0.04491606  0.91823151  0.10453287  1  1.320532  0  0.671433  0.959526  0  2.429964  0
Zn  Zn2  1  0.06318791  0.08787917  0.95127328  1  1.318606  0  0.672291  0.974508  0  2.321105  0
Zn  Zn3  1  0.00180673  0.93385529  0.97169118  1  1.319352  0  0.671031  0.957634  0  2.419289  0
Zn  Zn4  1  0.61013022  0.52609524  0.97364398  1  1.318071  0  0.674082  0.958615  0  2.41133  0
Zn  Zn5  1  0.46786675  0.50441677  0.95282063  1  1.319092  0  0.675763  0.967195  0  2.330163  0
Zn  Zn6  1  0.44187263  0.50923698  0.12221646  1  1.318356  0  0.674928  0.963932  0  2.342593  0
Zn  Zn7  1  0.47681754  0.36295483  0.11224670  1  1.321434  0  0.675418  0.964531  0  2.384693  0
H  H8  1  0.97826370  0.81767726  0.35454453  1  0.08746  0  0.118401  0.093877  0  0.976188  0
H  H9  1  0.59686470  0.65245352  0.60424794  1  0.066876  0  0.101128  0.139762  0  0.976573  0
H  H10  1  0.55585720  0.66597283  0.69353319  1  0.097825  0  0.098979  0.150241  0  1.004747  0
H  H11  1  0.60974215  0.74850002  0.57807317  1  0.040906  0  0.098286  0.134137  0  0.986958  0
H  H12  1  0.73859285  0.78970792  0.42988393  1  0.104233  0  0.115033  0.118239  0  0.984256  0
H  H13  1  0.99763854  0.28062296  0.89580816  1  0.076512  0  0.117983  0.094417  0  0.977431  0
H  H14  1  0.57628307  0.20691666  0.17999986  1  0.088316  0  0.09945  0.15289  0  1.011513  0
H  H15  1  0.62273578  0.14624258  0.14672844  1  0.049781  0  0.100719  0.138335  0  0.979141  0
H  H16  1  0.63597250  0.16099001  0.21836458  1  0.060252  0  0.099532  0.136037  0  0.980435  0
H  H17  1  0.76292676  0.12678948  0.11868903  1  0.101079  0  0.115677  0.120373  0  0.985901  0
H  H18  1  0.67776430  0.83239053  0.19995486  1  0.101962  0  0.118137  0.093657  0  0.973034  0
H  H19  1  0.75682275  0.68484824  0.91930239  1  0.086615  0  0.100382  0.153002  0  1.008105  0
H  H20  1  0.81200120  0.76813563  0.89703999  1  0.043058  0  0.098866  0.134945  0  0.985477  0
H  H21  1  0.80708966  0.67298685  0.97320741  1  0.046633  0  0.103181  0.142798  0  0.973049  0
H  H22  1  0.83354286  0.80107195  0.99006410  1  0.113249  0  0.116322  0.121398  0  0.989566  0
H  H23  1  0.18096042  0.98337754  0.16377429  1  0.140758  0  0.11844  0.094842  0  0.976567  0
H  H24  1  0.34633378  0.34807661  0.85732250  1  0.061269  0  0.09828  0.133985  0  0.984206  0
H  H25  1  0.26731968  0.36029451  0.93499466  1  0.069303  0  0.101354  0.139752  0  0.977006  0
H  H26  1  0.36510085  0.40575928  0.89225149  1  0.091585  0  0.09868  0.150898  0  1.011202  0
H  H27  1  0.22724257  0.21944301  0.95235547  1  0.112963  0  0.115278  0.119588  0  0.985914  0
H  H28  1  0.14805518  0.81886028  0.87802864  1  0.109155  0  0.119581  0.095795  0  0.974199  0
H  H29  1  0.27723683  0.70019374  0.13787552  1  0.050994  0  0.101305  0.139197  0  0.976976  0
H  H30  1  0.19018020  0.62240578  0.20492241  1  0.057126  0  0.09959  0.135806  0  0.98211  0
H  H31  1  0.28177079  0.60323205  0.17632291  1  0.097872  0  0.099264  0.152331  0  1.012031  0
H  H32  1  0.16328757  0.74988426  0.10631629  1  0.109455  0  0.11614  0.121042  0  0.986622  0
H  H33  1  0.07144248  0.02461223  0.72302773  1  0.08817  0  0.118567  0.09514  0  0.97993  0
H  H34  1  0.37077382  0.40920116  0.38340357  1  0.102212  0  0.098356  0.149599  0  1.007318  0
H  H35  1  0.28707933  0.37681697  0.49184880  1  0.056015  0  0.099896  0.137443  0  0.98128  0
H  H36  1  0.36466903  0.33665288  0.48399996  1  0.051133  0  0.098929  0.135256  0  0.980331  0
H  H37  1  0.21407633  0.23201805  0.64858953  1  0.103079  0  0.115372  0.120504  0  0.984689  0
C  C38  1  0.89400023  0.85624782  0.28283245  1  1.534044  0  0.225869  0.610805  0  4.180429  0
C  C39  1  0.86122145  0.80875682  0.38175590  1  0.035009  0  -0.023919  -0.105569  0  3.983311  0
C  C40  1  0.91577515  0.79348886  0.40734989  1  0.587108  0  0.056189  0.096108  0  3.942514  0
C  C41  1  0.81887004  0.72162915  0.55591003  1  0.422076  0  0.118358  0.139707  0  4.076118  0
C  C42  1  0.68693433  0.65129351  0.69679617  1  -0.174769  0  -0.025564  -0.195081  0  3.947589  0
C  C43  1  0.62688297  0.60158533  0.79493092  1  1.558061  0  0.220375  0.621409  0  4.192967  0
C  C44  1  0.68102207  0.68959705  0.62260507  1  0.036238  0  0.000503  0.138179  0  3.950683  0
C  C45  1  0.60665654  0.68921501  0.62527273  1  -0.083415  0  -0.232238  -0.405196  0  3.96852  0
C  C46  1  0.75780100  0.73144652  0.53970938  1  0.028494  0  -0.017061  -0.039513  0  4.017135  0
C  C47  1  0.78114064  0.77819598  0.44869656  1  -0.077843  0  -0.057359  -0.071492  0  3.89918  0
C  C48  1  0.91553330  0.12931395  0.02640210  1  1.564959  0  0.22747  0.615626  0  4.176104  0
C  C49  1  0.88324253  0.19625850  0.00957366  1  -0.019449  0  -0.025383  -0.110502  0  3.988732  0
C  C50  1  0.93540856  0.27281061  0.93653165  1  0.571644  0  0.055224  0.095787  0  3.945668  0
C  C51  1  0.83666574  0.32543527  0.96435053  1  0.361379  0  0.119278  0.142217  0  4.071451  0
C  C52  1  0.70329090  0.33614407  0.03377569  1  -0.154273  0  -0.024999  -0.193601  0  3.94171  0
C  C53  1  0.64031943  0.37261482  0.04621098  1  1.552573  0  0.221018  0.619809  0  4.194601  0
C  C54  1  0.70067292  0.25872118  0.07975633  1  0.046981  0  0.002007  0.140921  0  3.945503  0
C  C55  1  0.62957616  0.18988392  0.16057287  1  -0.080198  0  -0.23271  -0.406011  0  3.96426  0
C  C56  1  0.77809573  0.25174574  0.03976211  1  -0.000636  0  -0.017751  -0.04129  0  4.020504  0
C  C57  1  0.80350254  0.18550751  0.06226892  1  0.015573  0  -0.057189  -0.068797  0  3.898895  0
C  C58  1  0.83170658  0.86951694  0.07441104  1  1.537864  0  0.22647  0.611033  0  4.178407  0
C  C59  1  0.76321989  0.82193406  0.09258266  1  -0.043093  0  -0.025131  -0.108177  0  3.994864  0
C  C60  1  0.68618070  0.80733669  0.16147107  1  0.571743  0  0.056288  0.095605  0  3.942062  0
C  C61  1  0.63387776  0.73339252  0.13562310  1  0.381282  0  0.118726  0.142349  0  4.066348  0
C  C62  1  0.62496019  0.66337422  0.06975212  1  -0.114931  0  -0.024957  -0.193046  0  3.943303  0
C  C63  1  0.59081385  0.61194957  0.05652997  1  1.538934  0  0.220969  0.620972  0  4.195396  0
C  C64  1  0.70252537  0.70371781  0.02602946  1  0.018316  0  0.002351  0.142218  0  3.944065  0
C  C65  1  0.77297577  0.70753371  0.94950635  1  -0.04223  0  -0.232157  -0.406568  0  3.962563  0
C  C66  1  0.70824331  0.74426673  0.06421129  1  0.001838  0  -0.017398  -0.04073  0  4.034036  0
C  C67  1  0.77436564  0.79017837  0.04310049  1  -0.014586  0  -0.056421  -0.06663  0  3.90674  0
C  C68  1  0.15033765  0.06558408  0.03680510  1  1.541774  0  0.225082  0.610702  0  4.177974  0
C  C69  1  0.19933116  0.09839249  0.05514817  1  -0.065191  0  -0.024702  -0.109684  0  3.988411  0
C  C70  1  0.20911772  0.04594376  0.12556986  1  0.548148  0  0.055977  0.096378  0  3.941142  0
C  C71  1  0.28444086  0.14501436  0.10131758  1  0.399901  0  0.119662  0.140896  0  4.07178  0
C  C72  1  0.35736443  0.27862332  0.03566351  1  -0.183158  0  -0.024764  -0.194899  0  3.940487  0
C  C73  1  0.40582460  0.34102294  0.02377654  1  1.578978  0  0.222061  0.623854  0  4.185105  0
C  C74  1  0.32174959  0.28151329  0.99159100  1  0.066989  0  0.001338  0.140642  0  3.949533  0
C  C75  1  0.32586413  0.35322063  0.91471941  1  -0.088229  0  -0.23292  -0.405984  0  3.967934  0
C  C76  1  0.27909012  0.20395142  0.02921634  1  0.011171  0  -0.017808  -0.041027  0  4.020996  0
C  C77  1  0.23465469  0.17855064  0.00641165  1  -0.010034  0  -0.057391  -0.068795  0  3.901271  0
C  C78  1  0.10113277  0.83841606  0.01367678  1  1.536688  0  0.225822  0.608591  0  4.181587  0
C  C79  1  0.15038280  0.78944866  0.99464781  1  0.01722  0  -0.024802  -0.108213  0  3.991798  0
C  C80  1  0.17042058  0.78632531  0.91971774  1  0.541117  0  0.056192  0.0961  0  3.940789  0
C  C81  1  0.24303045  0.70699725  0.94770493  1  0.37306  0  0.118763  0.141688  0  4.07076  0
C  C82  1  0.30743268  0.62659254  0.02016897  1  -0.171973  0  -0.024857  -0.194684  0  3.939343  0
C  C83  1  0.35809029  0.57776841  0.03394688  1  1.56461  0  0.222413  0.625982  0  4.188523  0
C  C84  1  0.26331925  0.65687868  0.06775712  1  0.071486  0  0.001477  0.140727  0  3.945623  0
C  C85  1  0.25296217  0.64447608  0.15136959  1  -0.075468  0  -0.232342  -0.405514  0  3.962096  0
C  C86  1  0.22611031  0.70423926  0.02570439  1  0.013498  0  -0.017421  -0.03927  0  4.030818  0
C  C87  1  0.17843057  0.74769390  0.04855899  1  -0.048775  0  -0.056144  -0.06776  0  3.904128  0
C  C88  1  0.09901901  0.08897098  0.79540578  1  1.549748  0  0.226123  0.611211  0  4.173665  0
C  C89  1  0.13923842  0.12470233  0.69645293  1  -0.013499  0  -0.024841  -0.108643  0  3.984214  0
C  C90  1  0.11752373  0.08078940  0.67049729  1  0.58476  0  0.055366  0.097372  0  3.941939  0
C  C91  1  0.20659281  0.17238659  0.52224940  1  0.417323  0  0.119284  0.140666  0  4.075909  0
C  C92  1  0.31083762  0.29349538  0.38162330  1  -0.180292  0  -0.023978  -0.19086  0  3.942679  0
C  C93  1  0.36902332  0.35044838  0.28370036  1  1.562679  0  0.221713  0.624458  0  4.188358  0
C  C94  1  0.29237246  0.29484446  0.45556849  1  0.037822  0  -0.001906  0.132953  0  3.951057  0
C  C95  1  0.33099927  0.35812137  0.45289868  1  -0.077464  0  -0.232527  -0.404318  0  3.967908  0
C  C96  1  0.23228509  0.22374654  0.53851008  1  -0.010573  0  -0.016868  -0.038245  0  4.015177  0
C  C97  1  0.19711411  0.19748179  0.62953967  1  -0.027506  0  -0.056985  -0.072089  0  3.898971  0
S  S98  1  0.78298710  0.66471359  0.66967793  1  0.275323  0  0.085436  0.103704  0  2.758015  0
S  S99  1  0.79741817  0.40150246  0.94364316  1  0.265013  0  0.083637  0.099664  0  2.740163  0
S  S100  1  0.55818851  0.67437625  0.15507318  1  0.253946  0  0.080624  0.094079  0  2.723567  0
S  S101  1  0.34108729  0.18409341  0.12170336  1  0.267049  0  0.085474  0.103315  0  2.744721  0
S  S102  1  0.30421740  0.65294211  0.92613159  1  0.261848  0  0.080535  0.095042  0  2.739045  0
S  S103  1  0.25795711  0.20842455  0.40885281  1  0.271936  0  0.087596  0.104797  0  2.741498  0
N  N104  1  0.89594533  0.75165890  0.49254427  1  -1.214493  0  -0.329511  -0.29279  0  3.317091  0
N  N105  1  0.91347600  0.33690030  0.91351367  1  -1.186048  0  -0.330376  -0.295949  0  3.313826  0
N  N106  1  0.62194341  0.76373893  0.18356738  1  -1.174582  0  -0.330555  -0.297488  0  3.305878  0
N  N107  1  0.25062553  0.06790499  0.14914907  1  -1.205456  0  -0.329571  -0.293555  0  3.312755  0
N  N108  1  0.21628538  0.74633504  0.89551102  1  -1.18117  0  -0.329747  -0.295988  0  3.308581  0
N  N109  1  0.15019823  0.10324419  0.58530100  1  -1.197016  0  -0.330414  -0.294982  0  3.318192  0
O  O110  1  0.99784041  0.97720488  0.03915818  1  -1.233248  0  -0.572202  -1.029559  0  2.532235  0
O  O111  1  0.96306826  0.85682461  0.23370077  1  -1.186899  0  -0.319195  -0.557763  0  2.374571  0
O  O112  1  0.85269743  0.89207545  0.25472617  1  -1.158222  0  -0.315287  -0.544443  0  2.285609  0
O  O113  1  0.55520749  0.57611368  0.82409829  1  -1.1593  0  -0.307259  -0.531442  0  2.304381  0
O  O114  1  0.65433137  0.58723241  0.84382183  1  -1.168631  0  -0.318901  -0.548738  0  2.381386  0
O  O115  1  0.98907285  0.14692528  0.97163770  1  -1.179193  0  -0.317509  -0.558356  0  2.355934  0
O  O116  1  0.86764710  0.06066473  0.09310215  1  -1.171078  0  -0.318016  -0.549557  0  2.306502  0
O  O117  1  0.56864126  0.32939078  0.10422227  1  -1.162046  0  -0.308094  -0.53036  0  2.321092  0
O  O118  1  0.66423723  0.44739891  0.99471212  1  -1.149558  0  -0.317646  -0.545398  0  2.369167  0
O  O119  1  0.89943418  0.87407943  0.01678942  1  -1.1741  0  -0.318828  -0.546257  0  2.335471  0
O  O120  1  0.81764103  0.90123700  0.11766662  1  -1.15502  0  -0.314483  -0.554007  0  2.328384  0
O  O121  1  0.51579450  0.58801180  0.10215350  1  -1.154529  0  -0.319809  -0.550621  0  2.346411  0
O  O122  1  0.63728757  0.59449246  0.00266899  1  -1.163591  0  -0.307459  -0.527775  0  2.337136  0
O  O123  1  0.13705265  0.11327998  0.97769039  1  -1.168732  0  -0.316066  -0.547406  0  2.302861  0
O  O124  1  0.12527431  0.99105098  0.08288538  1  -1.171798  0  -0.318194  -0.556176  0  2.361296  0
O  O125  1  0.43520978  0.31619208  0.07159790  1  -1.18329  0  -0.320887  -0.550884  0  2.365175  0
O  O126  1  0.41488189  0.41266663  0.96970425  1  -1.162167  0  -0.307301  -0.531812  0  2.308957  0
O  O127  1  0.07138570  0.86846667  0.96691244  1  -1.172261  0  -0.315077  -0.551636  0  2.340114  0
O  O128  1  0.09288243  0.84703379  0.07479250  1  -1.162347  0  -0.316086  -0.543516  0  2.329039  0
O  O129  1  0.36549229  0.55727533  0.09981600  1  -1.165658  0  -0.30979  -0.534095  0  2.321329  0
O  O130  1  0.39141658  0.56056626  0.97590539  1  -1.173201  0  -0.318874  -0.550409  0  2.361633  0
O  O131  1  0.04588914  0.02309372  0.84716871  1  -1.177179  0  -0.321547  -0.560911  0  2.371366  0
O  O132  1  0.11942903  0.12486220  0.82197647  1  -1.161578  0  -0.316  -0.546247  0  2.276553  0
O  O133  1  0.39036954  0.42295025  0.25181011  1  -1.171459  0  -0.308611  -0.53426  0  2.300549  0
O  O134  1  0.39195208  0.32047746  0.23776749  1  -1.157874  0  -0.3182  -0.549056  0  2.354217  0
O  O135  1  0.49742015  0.47644267  0.04008266  1  -1.233222  0  -0.571903  -1.028936  0  2.53471  0
