# generated using pymatgen
data_CoH15C23N2O5
_symmetry_space_group_name_H-M   'P 1'
_cell_length_a   9.46349989
_cell_length_b   10.34798641
_cell_length_c   10.95339529
_cell_angle_alpha   103.81893039
_cell_angle_beta   112.79317234
_cell_angle_gamma   107.57004609
_symmetry_Int_Tables_number   1
_chemical_formula_structural   CoH15C23N2O5
_chemical_formula_sum   'Co2 H30 C46 N4 O10'
_cell_volume   862.04472453
_cell_formula_units_Z   2
loop_
 _symmetry_equiv_pos_site_id
 _symmetry_equiv_pos_as_xyz
  1  'x, y, z'
loop_
 _atom_site_type_symbol
 _atom_site_label
 _atom_site_symmetry_multiplicity
 _atom_site_fract_x
 _atom_site_fract_y
 _atom_site_fract_z
 _atom_site_occupancy
 _atom_site_hle17_ddec_charge
 _atom_site_hle17_ddec_spin_density
 _atom_site_hle17_ddec_sum_bond_order
 _atom_site_hle17_magmom
 _atom_site_hse06_10hf_ddec_charge
 _atom_site_hse06_10hf_ddec_spin_density
 _atom_site_hse06_10hf_ddec_sum_bond_order
 _atom_site_hse06_10hf_magmom
 _atom_site_hse06_ddec_charge
 _atom_site_hse06_ddec_spin_density
 _atom_site_hse06_ddec_sum_bond_order
 _atom_site_hse06_magmom
 _atom_site_pbe_cm5_charge
 _atom_site_pbe_ddec_charge
 _atom_site_pbe_ddec_spin_density
 _atom_site_pbe_ddec_sum_bond_order
 _atom_site_pbe_magmom
Co  Co0  1  0.15187542  0.04170537  0.18150763  1  0.765169  -1.338248  2.3634  -1.084  0.751527  -1.114254  2.796988  -0.977  0.813259  -1.080034  2.72268  -0.969  0.657824  0.71461  -1.123398  2.843267  -0.97
Co  Co1  1  0.84766866  0.95824303  0.81684055  1  0.767505  1.33844  2.363421  1.084  0.754209  1.114204  2.796916  0.977  0.815724  1.079935  2.722783  0.969  0.658245  0.717332  1.123388  2.843137  0.97
H  H2  1  0.65488989  0.85009960  0.05351321  1  0.104196  -2.7e-05  0.960918  0.0  0.114131  -1.6e-05  1.024495  0.0  0.117249  -1.7e-05  1.023194  0.0  0.104982  0.111902  -1e-05  1.025251  0.0
H  H3  1  0.34585897  0.15074452  0.94692428  1  0.104508  3e-05  0.959321  0.0  0.113617  1.7e-05  1.023947  0.0  0.116715  1.8e-05  1.022724  0.0  0.104755  0.111446  1.2e-05  1.024571  0.0
H  H4  1  0.88939782  0.30546144  0.03288151  1  0.091712  -3.8e-05  0.988268  0.0  0.100865  -2.8e-05  1.0553  0.0  0.104504  -3.1e-05  1.052393  0.0  0.100345  0.098093  -2.6e-05  1.05716  0.0
H  H5  1  0.10933098  0.69515631  0.96436854  1  0.091177  4e-05  0.989807  0.0  0.100033  2.9e-05  1.057027  0.0  0.103642  3.1e-05  1.054159  0.0  0.100288  0.097294  2.7e-05  1.058825  0.0
H  H6  1  0.03633419  0.57500844  0.10492299  1  0.082009  -1.6e-05  0.991167  0.0  0.092182  -2e-06  1.058875  0.0  0.094454  1e-06  1.058121  0.0  0.096749  0.090576  -8e-06  1.059866  0.0
H  H7  1  0.96082286  0.42538628  0.89060926  1  0.081896  2e-05  0.990089  0.0  0.092408  2e-06  1.057431  0.0  0.094707  -1e-06  1.056593  0.0  0.096733  0.090752  7e-06  1.058531  0.0
H  H8  1  0.49453924  0.36427591  0.10764237  1  0.082278  0.000117  0.996552  0.0  0.091473  6.5e-05  1.062282  0.0  0.092847  4.2e-05  1.063744  0.0  0.097024  0.090321  7.8e-05  1.061895  0.0
H  H9  1  0.50896979  0.63659063  0.89761174  1  0.08323  -0.000111  0.992034  0.0  0.091832  -6.1e-05  1.058206  0.0  0.093295  -4e-05  1.059498  0.0  0.09707  0.090576  -7.4e-05  1.05802  0.0
H  H10  1  0.64348612  0.63293627  0.18067354  1  0.095046  5.8e-05  0.956269  0.0  0.104434  6e-05  1.019978  0.0  0.107108  3.1e-05  1.018866  0.0  0.101952  0.102807  7.7e-05  1.020857  0.0
H  H11  1  0.35979351  0.36825690  0.82494393  1  0.095077  -5.5e-05  0.954835  0.0  0.104456  -5.4e-05  1.018702  0.0  0.107198  -2.8e-05  1.017561  0.0  0.101822  0.102814  -7.1e-05  1.019517  0.0
H  H12  1  0.27974289  0.80728939  0.22834248  1  0.07837  -0.0004  0.965924  -0.001  0.085426  0.000104  1.034714  0.0  0.088055  6.7e-05  1.031189  0.0  0.115799  0.083004  0.000119  1.038206  0.0
H  H13  1  0.71776951  0.19252148  0.77278357  1  0.078201  0.000401  0.965911  0.001  0.085406  -0.000103  1.034603  0.0  0.088089  -6.6e-05  1.030996  0.0  0.115626  0.082947  -0.000118  1.038147  0.0
H  H14  1  0.57631690  0.82983006  0.36446593  1  0.111227  0.000249  0.959093  0.001  0.122967  5.5e-05  1.016056  0.0  0.125925  4.3e-05  1.015153  0.0  0.109165  0.11954  3.3e-05  1.01935  0.0
H  H15  1  0.42042104  0.16923701  0.63925202  1  0.109761  -0.000259  0.957245  -0.001  0.122018  -6.4e-05  1.013678  0.0  0.1251  -5e-05  1.012595  0.0  0.108809  0.118531  -4.2e-05  1.016986  0.0
H  H16  1  0.82744045  0.07601122  0.48593088  1  0.119185  -0.000597  0.939355  -0.001  0.13164  -9e-06  0.993963  0.0  0.135948  -2.6e-05  0.989303  0.0  0.116192  0.128175  5.8e-05  0.997554  0.0
H  H17  1  0.17034195  0.92208580  0.51595582  1  0.119205  0.000611  0.938233  0.001  0.132147  1.8e-05  0.991931  0.0  0.136487  3.2e-05  0.987283  0.0  0.116421  0.128704  -4.7e-05  0.995484  0.0
H  H18  1  0.93337454  0.35981288  0.55807067  1  0.10557  8.5e-05  0.941807  0.0  0.117953  -2e-06  0.998657  0.0  0.120538  0.0  0.998578  0.0  0.108557  0.115823  3e-06  0.999465  0.0
H  H19  1  0.06595232  0.63827276  0.44299082  1  0.10793  -8.7e-05  0.940155  0.0  0.11983  2e-06  0.99708  0.0  0.122484  -0.0  0.996927  0.0  0.109078  0.11765  -3e-06  0.997939  0.0
H  H20  1  0.86516618  0.56768222  0.53818243  1  0.120615  8.6e-05  0.966443  0.0  0.130956  2.2e-05  1.025791  0.0  0.135079  2e-05  1.023534  0.0  0.10938  0.128178  3.8e-05  1.026804  0.0
H  H21  1  0.13533046  0.43117828  0.46381707  1  0.120146  -8.5e-05  0.965702  0.0  0.131117  -2.9e-05  1.024226  0.0  0.135303  -2.4e-05  1.021833  0.0  0.10973  0.128307  -4.6e-05  1.025323  0.0
H  H22  1  0.63586985  0.65679504  0.42136937  1  0.118614  -0.000352  0.961655  -0.001  0.129782  0.000277  1.020786  0.0  0.134457  0.000164  1.015887  0.0  0.110214  0.126209  0.000392  1.024709  0.0
H  H23  1  0.36533364  0.34295082  0.58004902  1  0.119179  0.000346  0.961096  0.001  0.130237  -0.000285  1.020306  0.0  0.134926  -0.00017  1.015425  0.0  0.110406  0.126658  -0.000401  1.024225  0.0
H  H24  1  0.32870951  0.57913331  0.24312036  1  0.098911  0.000203  0.954441  0.001  0.111796  -2.6e-05  1.011287  0.0  0.113889  -1.4e-05  1.012289  0.0  0.106022  0.109337  -3e-05  1.012653  0.0
H  H25  1  0.67358041  0.42110653  0.75605058  1  0.097002  -0.000206  0.956369  -0.001  0.109686  2.6e-05  1.013955  0.0  0.111848  1.4e-05  1.014888  0.0  0.105018  0.107248  2.9e-05  1.015231  0.0
H  H26  1  0.11936723  0.31312612  0.12321402  1  0.090233  -0.000399  0.972333  -0.001  0.096302  5.8e-05  1.039305  0.0  0.099459  1.8e-05  1.035109  0.0  0.120216  0.09368  8.4e-05  1.042775  0.0
H  H27  1  0.88241519  0.68722442  0.87417170  1  0.090125  0.000399  0.973585  0.001  0.095279  -6e-05  1.041286  0.0  0.098397  -1.9e-05  1.037118  0.0  0.120242  0.092639  -8.6e-05  1.044825  0.0
H  H28  1  0.10551735  0.18543867  0.36499053  1  0.395801  0.000527  0.919267  0.002  0.368789  -7e-06  0.984783  0.0  0.379161  0.000103  0.970202  0.0  0.28601  0.361624  -0.00011  0.994571  0.0
H  H29  1  0.89546546  0.81554348  0.63369752  1  0.396345  -0.000517  0.918459  -0.002  0.368874  1.6e-05  0.984787  0.0  0.379311  -9.6e-05  0.97012  0.0  0.285903  0.361674  0.00012  0.994612  0.0
H  H30  1  0.07512397  0.03203114  0.37161308  1  0.399819  0.00048  0.916568  0.002  0.372429  -9e-06  0.979764  0.0  0.383707  0.000113  0.963814  0.001  0.2836  0.364494  -0.000137  0.990789  0.0
H  H31  1  0.92452430  0.96872118  0.62693121  1  0.399981  -0.000478  0.91722  -0.002  0.372406  1.2e-05  0.980369  0.0  0.383702  -0.000111  0.964374  -0.001  0.283753  0.364462  0.000142  0.991423  0.0
C  C32  1  0.86912812  0.11882907  0.14276263  1  0.642258  0.001996  3.858134  0.002  0.596405  0.001807  4.160238  0.002  0.632276  0.001223  4.153179  0.002  0.220453  0.570962  0.002444  4.166106  0.003
C  C33  1  0.13139850  0.88172408  0.85560608  1  0.642743  -0.002012  3.856913  -0.002  0.596605  -0.001807  4.15968  -0.002  0.632483  -0.001224  4.152631  -0.002  0.220985  0.571167  -0.002437  4.165516  -0.003
C  C34  1  0.67866611  0.06303280  0.06013495  1  -0.072  0.002302  3.698009  0.003  -0.061436  0.000989  3.943455  0.001  -0.066161  0.000741  3.9625  0.001  -0.009435  -0.058887  0.001167  3.931978  0.001
C  C35  1  0.32183393  0.93740375  0.93919176  1  -0.073704  -0.002281  3.69671  -0.003  -0.063054  -0.000992  3.942259  -0.001  -0.067816  -0.000744  3.961351  -0.001  -0.009471  -0.060459  -0.001176  3.930728  -0.001
C  C36  1  0.58399113  0.91389843  0.02540480  1  -0.109664  -0.000573  3.693522  -0.001  -0.1445  -7.6e-05  3.953188  0.0  -0.146509  -0.000146  3.973297  0.0  -0.08325  -0.142213  -0.000168  3.939064  0.0
C  C37  1  0.41662892  0.08672454  0.97452288  1  -0.109468  0.000532  3.69453  0.001  -0.143594  6.9e-05  3.954343  0.0  -0.145677  0.000142  3.974521  0.0  -0.083243  -0.141286  0.000166  3.94017  0.0
C  C38  1  0.59478132  0.15411982  0.03517052  1  0.041847  -0.001342  3.737573  -0.002  0.047578  -0.000592  3.976201  -0.001  0.047481  -0.000455  3.999912  -0.001  -0.003092  0.047548  -0.000513  3.960196  -0.001
C  C39  1  0.40582767  0.84646531  0.96475644  1  0.044123  0.001353  3.734895  0.002  0.049884  0.000595  3.973756  0.001  0.049784  0.000456  3.997491  0.001  -0.002236  0.04986  0.000519  3.957688  0.001
C  C40  1  0.68272449  0.31343222  0.06936653  1  0.066876  0.000882  3.759558  0.001  0.080174  0.000228  3.991486  0.0  0.081433  0.000151  4.014877  0.0  -0.003778  0.078827  0.000283  3.975656  0.0
C  C41  1  0.31801544  0.68726981  0.93114057  1  0.065672  -0.000877  3.758196  -0.001  0.078753  -0.000228  3.990542  0.0  0.079965  -0.000151  4.013977  0.0  -0.004386  0.077469  -0.000275  3.974647  0.0
C  C42  1  0.83544680  0.37654838  0.06726091  1  -0.119044  -0.000602  3.73841  -0.001  -0.139973  -0.000103  3.990368  0.0  -0.143441  -0.000111  4.010994  0.0  -0.092696  -0.134654  -9.6e-05  3.974339  0.0
C  C43  1  0.16385834  0.62410064  0.93115156  1  -0.117229  0.000599  3.735528  0.001  -0.137655  0.000103  3.987487  0.0  -0.141073  0.000112  4.008096  0.0  -0.092459  -0.132413  9.9e-05  3.971474  0.0
C  C44  1  0.91726107  0.52826169  0.10559660  1  -0.083034  0.000589  3.765658  0.001  -0.105144  0.00018  4.012599  0.0  -0.105446  0.00013  4.03412  0.0  -0.092489  -0.106091  0.00024  3.998269  0.0
C  C45  1  0.08132517  0.47235141  0.89217762  1  -0.083267  -0.000602  3.766784  -0.001  -0.105619  -0.000181  4.013571  0.0  -0.105957  -0.000131  4.03506  0.0  -0.092287  -0.106494  -0.000238  3.999271  0.0
C  C46  1  0.61382805  0.40898667  0.10696181  1  -0.111546  -0.000737  3.753518  -0.001  -0.127407  -0.000128  3.995893  0.0  -0.13159  -0.000108  4.019642  0.0  -0.091034  -0.125635  -6.3e-05  3.98085  0.0
C  C47  1  0.38826812  0.59191765  0.89615238  1  -0.110712  0.000727  3.749964  0.001  -0.126093  0.000134  3.992976  0.0  -0.130263  0.000111  4.016743  0.0  -0.08981  -0.124364  6.7e-05  3.977991  0.0
C  C48  1  0.69668521  0.56055943  0.14770204  1  -0.070831  0.001331  3.760079  0.001  -0.094251  0.000425  4.007234  0.0  -0.094644  0.000259  4.028478  0.0  -0.086495  -0.093855  0.000493  3.992591  0.001
C  C49  1  0.30513416  0.44039912  0.85540261  1  -0.070905  -0.001295  3.758852  -0.001  -0.094465  -0.000415  4.00612  0.0  -0.094999  -0.000254  4.027377  0.0  -0.086961  -0.093989  -0.000477  3.991479  -0.001
C  C50  1  0.84999636  0.62275094  0.14767494  1  -0.070609  0.000668  3.77694  0.001  -0.048784  0.000383  4.009821  0.001  -0.055919  0.000254  4.031761  0.0  -0.023044  -0.041865  0.000496  3.993921  0.001
C  C51  1  0.14974905  0.37801083  0.85223466  1  -0.070689  -0.000689  3.779486  -0.001  -0.048539  -0.000379  4.012027  -0.001  -0.055589  -0.000249  4.033911  0.0  -0.021969  -0.041669  -0.000495  3.996148  -0.001
C  C52  1  0.93820905  0.78738839  0.19718427  1  0.626122  0.002695  3.872534  0.003  0.581202  0.001415  4.174106  0.002  0.617175  0.000963  4.168243  0.001  0.211856  0.556085  0.001826  4.177411  0.002
C  C53  1  0.06095740  0.21323312  0.80164971  1  0.628198  -0.002691  3.871802  -0.003  0.583  -0.001417  4.173494  -0.002  0.61898  -0.000963  4.167558  -0.001  0.212774  0.557878  -0.001827  4.176842  -0.002
C  C54  1  0.39215756  0.91314697  0.28173961  1  0.123846  0.020892  3.669797  0.024  0.092257  0.006212  3.932271  0.007  0.105966  0.003698  3.944962  0.004  0.04801  0.082388  0.008067  3.926628  0.009
C  C55  1  0.60581136  0.08620374  0.71888586  1  0.122963  -0.021029  3.670218  -0.024  0.091704  -0.006264  3.932473  -0.007  0.105312  -0.003725  3.945213  -0.004  0.047761  0.081879  -0.008119  3.926825  -0.009
C  C56  1  0.55781465  0.92717432  0.35813405  1  -0.103378  -0.009894  3.712323  -0.013  -0.118399  -0.001142  3.968544  -0.002  -0.125485  -0.001011  3.98437  -0.001  -0.081161  -0.114835  -0.000763  3.962214  -0.002
C  C57  1  0.43968312  0.07172259  0.64368233  1  -0.100982  0.009944  3.707883  0.013  -0.116352  0.00115  3.963948  0.002  -0.123471  0.001016  3.979726  0.001  -0.080139  -0.112725  0.000777  3.957571  0.002
C  C58  1  0.69824668  0.06423188  0.42735341  1  -0.025442  0.023247  3.625871  0.026  -0.052636  0.006695  3.874284  0.007  -0.041362  0.00353  3.88083  0.004  -0.060149  -0.062144  0.009521  3.871991  0.01
C  C59  1  0.29982328  0.93420957  0.57379165  1  -0.026203  -0.023308  3.626023  -0.026  -0.053638  -0.006694  3.875026  -0.007  -0.0424  -0.003531  3.881593  -0.004  -0.060197  -0.063149  -0.009521  3.87274  -0.01
C  C60  1  0.67098182  0.18962304  0.42089536  1  0.032059  -0.004838  3.795084  -0.007  0.047162  -0.000542  4.027371  -0.001  0.044043  -0.000473  4.047768  -0.001  0.002696  0.04967  -0.000377  4.015411  -0.001
C  C61  1  0.32805317  0.80898777  0.57923101  1  0.035659  0.004854  3.792261  0.007  0.050377  0.000548  4.025072  0.001  0.047302  0.000477  4.04549  0.001  0.003364  0.052848  0.000386  4.01314  0.001
C  C62  1  0.80175301  0.33925376  0.49198682  1  -0.077552  -0.000795  3.697948  0.0  -0.100945  -0.000193  3.953321  0.0  -0.102579  -0.000134  3.973905  0.0  -0.075459  -0.101202  -4.3e-05  3.941846  0.0
C  C63  1  0.19780102  0.65922597  0.50868856  1  -0.083204  0.000837  3.702355  0.0  -0.106044  0.000197  3.957978  0.0  -0.107792  0.000138  3.978539  0.0  -0.076702  -0.106213  4.6e-05  3.946478  0.0
C  C64  1  0.76374015  0.45475305  0.47962572  1  -0.100795  -0.001386  3.695209  -0.001  -0.124225  -0.000316  3.948975  0.0  -0.127559  -0.000241  3.970031  0.0  -0.08134  -0.121633  -0.000277  3.934596  0.0
C  C65  1  0.23647820  0.54416036  0.52155541  1  -0.096316  0.001331  3.69778  0.001  -0.120088  0.00031  3.950356  0.0  -0.123375  0.000237  3.971412  0.0  -0.079955  -0.11754  0.000272  3.935995  0.0
C  C66  1  0.59194708  0.42997003  0.39083637  1  0.033714  -0.004554  3.803393  -0.007  0.050875  -0.000417  4.032223  -0.001  0.047589  -0.000403  4.053989  -0.001  0.00088  0.052783  -7.2e-05  4.017918  -0.001
C  C67  1  0.40856958  0.56940852  0.60977927  1  0.034022  0.004568  3.80337  0.007  0.051068  0.000425  4.032776  0.001  0.047709  0.000409  4.054604  0.001  0.00126  0.052997  7.5e-05  4.018464  0.001
C  C68  1  0.54155476  0.54078965  0.36600388  1  -0.056267  0.023114  3.665548  0.026  -0.083189  0.006667  3.917036  0.008  -0.073634  0.003492  3.925867  0.004  -0.067899  -0.090978  0.009213  3.912932  0.01
C  C69  1  0.45951722  0.45891974  0.63480005  1  -0.057069  -0.023167  3.66565  -0.026  -0.084096  -0.006687  3.917395  -0.008  -0.074545  -0.003514  3.926239  -0.004  -0.068465  -0.091915  -0.009225  3.913326  -0.01
C  C70  1  0.37227796  0.49805952  0.26890387  1  -0.118721  -0.009284  3.732193  -0.012  -0.131466  -0.000942  3.987946  -0.002  -0.139375  -0.000846  4.004659  -0.001  -0.084712  -0.125623  -0.000382  3.979134  -0.001
C  C71  1  0.62933153  0.50197714  0.73059965  1  -0.117939  0.009329  3.734713  0.013  -0.130691  0.000949  3.989991  0.002  -0.138727  0.000853  4.006878  0.001  -0.084266  -0.124783  0.000391  3.980955  0.001
C  C72  1  0.25162169  0.34874125  0.20114811  1  0.143094  0.020229  3.632385  0.023  0.10968  0.005865  3.894573  0.007  0.126022  0.003494  3.902363  0.004  0.053074  0.097886  0.007636  3.890987  0.008
C  C73  1  0.74967992  0.65137161  0.79729602  1  0.145064  -0.020371  3.630496  -0.024  0.113319  -0.005903  3.892176  -0.007  0.129657  -0.003525  3.900055  -0.004  0.054032  0.101541  -0.007671  3.888498  -0.009
C  C74  1  0.46236307  0.28301921  0.31985774  1  0.115044  0.009856  3.766843  0.011  0.111295  0.003685  4.001533  0.004  0.118359  0.002076  4.018814  0.002  0.111661  0.106076  0.00453  3.99135  0.005
C  C75  1  0.53785378  0.71640954  0.67958558  1  0.11417  -0.009867  3.764907  -0.011  0.110922  -0.003695  4.000177  -0.004  0.118048  -0.002086  4.017413  -0.002  0.110714  0.10577  -0.004533  3.989907  -0.005
C  C76  1  0.50073783  0.16505497  0.33831186  1  0.122765  0.010292  3.766488  0.012  0.118213  0.00378  4.000993  0.004  0.124942  0.002228  4.019929  0.003  0.113405  0.113266  0.004693  3.990165  0.005
C  C77  1  0.49866890  0.83404427  0.66107110  1  0.120555  -0.010308  3.762972  -0.012  0.115636  -0.003776  3.998926  -0.004  0.122198  -0.002227  4.017828  -0.003  0.112653  0.11074  -0.004694  3.988106  -0.005
N  N78  1  0.36256545  0.02942085  0.26931339  1  -0.278959  0.004892  3.367999  0.005  -0.238444  0.004551  3.659705  0.007  -0.262624  0.003436  3.672918  0.006  -0.335248  -0.22485  0.004999  3.652202  0.008
N  N79  1  0.63643353  0.97000684  0.72997690  1  -0.27915  -0.004786  3.367031  -0.004  -0.239241  -0.004491  3.659767  -0.007  -0.263183  -0.00338  3.672794  -0.006  -0.335444  -0.225742  -0.004925  3.652344  -0.008
N  N80  1  0.29374564  0.24223053  0.22853991  1  -0.277352  0.005527  3.34727  0.005  -0.237168  0.004891  3.639467  0.007  -0.259634  0.003674  3.648696  0.006  -0.336558  -0.2242  0.005596  3.634275  0.008
N  N81  1  0.70685508  0.75767171  0.77012681  1  -0.278885  -0.005543  3.3466  -0.005  -0.240119  -0.0049  3.639815  -0.007  -0.262566  -0.00368  3.648899  -0.006  -0.337502  -0.227171  -0.005607  3.634618  -0.008
O  O82  1  0.93263044  0.04795752  0.08145615  1  -0.575921  0.01944  2.155219  0.027  -0.551091  0.016498  2.456107  0.023  -0.590259  0.014603  2.443242  0.021  -0.293585  -0.522595  0.017174  2.464497  0.024
O  O83  1  0.06737068  0.95223386  0.91658284  1  -0.577486  -0.019244  2.157  -0.027  -0.551958  -0.016353  2.457127  -0.023  -0.591044  -0.014471  2.444239  -0.021  -0.293675  -0.52354  -0.017022  2.465634  -0.023
O  O84  1  0.95133924  0.22120505  0.26705332  1  -0.593905  0.002368  1.991919  0.003  -0.544502  0.002025  2.211716  0.003  -0.571569  0.001289  2.206276  0.002  -0.29836  -0.524291  0.003169  2.215243  0.005
O  O85  1  0.04989786  0.77984077  0.73101695  1  -0.593168  -0.002334  1.988161  -0.003  -0.54384  -0.002004  2.209316  -0.003  -0.570848  -0.001274  2.203662  -0.002  -0.298299  -0.523633  -0.003142  2.212889  -0.005
O  O86  1  0.02939788  0.83497762  0.14025796  1  -0.569477  0.008377  2.136695  0.014  -0.540508  0.001969  2.42422  0.005  -0.581815  0.002412  2.417604  0.006  -0.305099  -0.510812  0.001009  2.426715  0.003
O  O87  1  0.96945367  0.16508407  0.85810847  1  -0.570373  -0.008395  2.138448  -0.014  -0.541163  -0.001984  2.426188  -0.005  -0.582536  -0.002417  2.419761  -0.006  -0.304635  -0.511486  -0.001052  2.428669  -0.003
O  O88  1  0.91876250  0.86710960  0.29028745  1  -0.58975  0.001865  1.944551  0.002  -0.543845  0.001044  2.15963  0.001  -0.567378  0.000687  2.150036  0.001  -0.309331  -0.527214  0.001237  2.165716  0.001
O  O89  1  0.08037998  0.13405180  0.70813079  1  -0.59089  -0.001861  1.942224  -0.002  -0.545175  -0.00105  2.158101  -0.001  -0.568672  -0.000692  2.1484  -0.001  -0.310386  -0.528505  -0.001241  2.164198  -0.001
O  O90  1  0.17056624  0.12781619  0.39555000  1  -0.803432  -0.046417  1.928484  -0.07  -0.77073  -0.035449  2.123895  -0.055  -0.805167  -0.026987  2.097283  -0.043  -0.573256  -0.741465  -0.045143  2.139549  -0.069
O  O91  1  0.82966849  0.87266462  0.60317525  1  -0.805501  0.046228  1.931188  0.07  -0.772254  0.035375  2.127003  0.055  -0.806606  0.026953  2.100203  0.043  -0.573554  -0.742926  0.044975  2.142612  0.069
