# generated using pymatgen
data_NaLaH22(C4O3)5
_symmetry_space_group_name_H-M   'P 1'
_cell_length_a   8.55075252
_cell_length_b   12.10940915
_cell_length_c   12.75750000
_cell_angle_alpha   75.46849947
_cell_angle_beta   78.11954274
_cell_angle_gamma   83.82865876
_symmetry_Int_Tables_number   1
_chemical_formula_structural   NaLaH22(C4O3)5
_chemical_formula_sum   'Na2 La2 H44 C40 O30'
_cell_volume   1249.14424562
_cell_formula_units_Z   2
loop_
 _symmetry_equiv_pos_site_id
 _symmetry_equiv_pos_as_xyz
  1  'x, y, z'
loop_
 _atom_site_type_symbol
 _atom_site_label
 _atom_site_symmetry_multiplicity
 _atom_site_fract_x
 _atom_site_fract_y
 _atom_site_fract_z
 _atom_site_occupancy
 _atom_site_hle17_bader_spin_density
 _atom_site_hle17_ddec_charge
 _atom_site_hle17_ddec_spin_density
 _atom_site_hle17_ddec_sum_bond_order
 _atom_site_hle17_magmom
 _atom_site_hse06_10hf_bader_spin_density
 _atom_site_hse06_10hf_ddec_charge
 _atom_site_hse06_10hf_ddec_spin_density
 _atom_site_hse06_10hf_ddec_sum_bond_order
 _atom_site_hse06_10hf_magmom
 _atom_site_hse06_bader_spin_density
 _atom_site_hse06_ddec_charge
 _atom_site_hse06_ddec_spin_density
 _atom_site_hse06_ddec_sum_bond_order
 _atom_site_hse06_magmom
 _atom_site_pbe_bader_charge
 _atom_site_pbe_bader_spin_density
 _atom_site_pbe_cm5_charge
 _atom_site_pbe_ddec_charge
 _atom_site_pbe_ddec_spin_density
 _atom_site_pbe_ddec_sum_bond_order
 _atom_site_pbe_magmom
Na  Na0  1  0.30885211  0.53983039  0.94974117  1  0  0.890877  0  0.406941  0  0  0.843764  0  0.564736  0  0  0.855096  0  0.543603  0  0.874291  0  0.712392  0.835367  0  0.5799  0
Na  Na1  1  0.69114764  0.46016890  0.05025699  1  0  0.890862  0  0.406964  0  0  0.84375  0  0.564767  0  0  0.855084  0  0.543626  0  0.874283  0  0.712375  0.835347  0  0.579937  0
La  La2  1  0.32522301  0.28549421  0.20784788  1  0  2.060081  0  1.83877  0  0  1.917187  0  2.356958  0  0  2.019095  0  2.256861  0  2.256145  0  1.381327  1.84059  0  2.427401  0
La  La3  1  0.67477400  0.71450935  0.79214886  1  0  2.060027  0  1.838842  0  0  1.91718  0  2.356934  0  0  2.019077  0  2.256857  0  2.256174  0  1.38138  1.840578  0  2.427385  0
H  H4  1  0.80210861  0.34134537  0.30297371  1  0  0.101694  0  0.938536  0  0  0.112282  0  1.001825  0  0  0.11412  0  1.000671  0  0.104012  0  0.12002  0.110902  0  1.00285  0
H  H5  1  0.19789613  0.65865136  0.69702751  1  0  0.101738  0  0.938456  0  0  0.112259  0  1.001846  0  0  0.114101  0  1.000695  0  0.104001  0  0.119988  0.110884  0  1.002856  0
H  H6  1  0.86299113  0.19183895  0.32997318  1  0  0.106459  0  0.915194  0  0  0.117579  0  0.977359  0  0  0.119984  0  0.974643  0  0.099066  0  0.120122  0.115784  0  0.979495  0
H  H7  1  0.13700869  0.80815949  0.67002282  1  0  0.106477  0  0.915145  0  0  0.117607  0  0.977295  0  0  0.120015  0  0.974583  0  0.099106  0  0.120141  0.11581  0  0.97943  0
H  H8  1  0.44546613  0.39288516  0.46683152  1  0  0.098996  0  0.897739  0  0  0.114077  0  0.952029  0  0  0.116107  0  0.94969  0  0.077812  0  0.11979  0.112608  0  0.953883  0
H  H9  1  0.55453532  0.60710815  0.53317332  1  0  0.098996  0  0.89772  0  0  0.114092  0  0.951951  0  0  0.116132  0  0.949607  0  0.077908  0  0.119777  0.112618  0  0.953806  0
H  H10  1  0.34988469  0.53028899  0.41900309  1  0  0.094946  0  0.943739  0  0  0.10446  0  1.010815  0  0  0.105764  0  1.010183  0  0.107041  0  0.112586  0.10356  0  1.011375  0
H  H11  1  0.65012118  0.46970859  0.58099934  1  0  0.094975  0  0.943756  0  0  0.104463  0  1.010798  0  0  0.105768  0  1.010166  0  0.107024  0  0.112599  0.103561  0  1.011355  0
H  H12  1  0.22189598  0.42019501  0.58699087  1  0  0.115727  0  0.985172  0  0  0.121247  0  1.055906  0  0  0.125144  0  1.053029  0  0.120525  0  0.100976  0.118452  0  1.058027  0
H  H13  1  0.77810342  0.57980856  0.41300868  1  0  0.115677  0  0.985123  0  0  0.121187  0  1.055888  0  0  0.125083  0  1.053015  0  0.120577  0  0.100972  0.118393  0  1.058008  0
H  H14  1  0.97809464  0.36776987  0.72547619  1  0  0.088562  0  0.958363  0  0  0.100799  0  1.018041  0  0  0.10398  0  1.01586  0  0.053109  0  0.100808  0.098452  0  1.019785  0
H  H15  1  0.02191011  0.63222686  0.27452896  1  0  0.088557  0  0.958511  0  0  0.100795  0  1.018175  0  0  0.10397  0  1.016  0  0.053177  0  0.100837  0.098449  0  1.019917  0
H  H16  1  0.75619065  0.28458237  0.67977403  1  0  0.100766  0  0.961684  0  0  0.108555  0  1.02462  0  0  0.112562  0  1.021771  0  0.099894  0  0.09944  0.105623  0  1.026813  0
H  H17  1  0.24381339  0.71540837  0.32023498  1  0  0.100777  0  0.961611  0  0  0.108566  0  1.02456  0  0  0.112574  0  1.021711  0  0.099783  0  0.099442  0.105634  0  1.026753  0
H  H18  1  0.77909308  0.25160750  0.49090824  1  0  0.10859  0  0.95399  0  0  0.121347  0  1.011136  0  0  0.124523  0  1.009217  0  0.083084  0  0.107645  0.119011  0  1.0127  0
H  H19  1  0.22091097  0.74838324  0.50909921  1  0  0.108579  0  0.95402  0  0  0.121376  0  1.011097  0  0  0.124549  0  1.009181  0  0.082944  0  0.107631  0.119039  0  1.012663  0
H  H20  1  0.37401376  0.22250389  0.87671412  1  0  0.093585  0  0.905414  0  0  0.108068  0  0.960198  0  0  0.110031  0  0.957897  0  0.070856  0  0.118814  0.106628  0  0.962048  0
H  H21  1  0.62597580  0.77750310  0.12328675  1  0  0.093514  0  0.905575  0  0  0.108074  0  0.960249  0  0  0.11004  0  0.957957  0  0.070986  0  0.118819  0.10664  0  0.962089  0
H  H22  1  0.54345934  0.13374196  0.91669932  1  0  0.093495  0  0.953451  0  0  0.101156  0  1.021517  0  0  0.101818  0  1.022508  0  0.115988  0  0.111964  0.100701  0  1.021001  0
H  H23  1  0.45653042  0.86626246  0.08329352  1  0  0.093503  0  0.953386  0  0  0.101174  0  1.021439  0  0  0.101841  0  1.022433  0  0.116172  0  0.111981  0.100717  0  1.020926  0
H  H24  1  0.21443001  0.92623697  0.36599579  1  0  0.089387  0  0.936433  0  0  0.104173  0  0.995505  0  0  0.105082  0  0.994885  0  0.078346  0  0.111107  0.103548  0  0.996049  0
H  H25  1  0.78557874  0.07376916  0.63400107  1  0  0.089297  0  0.936467  0  0  0.104087  0  0.995543  0  0  0.104997  0  0.994922  0  0.078292  0  0.111077  0.103458  0  0.996088  0
H  H26  1  0.03815458  0.01584223  0.39210501  1  0  0.103283  0  0.944218  0  0  0.112571  0  1.01185  0  0  0.114638  0  1.010153  0  0.122823  0  0.10985  0.111056  0  1.013238  0
H  H27  1  0.96185079  0.98416134  0.60789449  1  0  0.103298  0  0.944134  0  0  0.112552  0  1.011813  0  0  0.11462  0  1.010113  0  0.122801  0  0.109869  0.111035  0  1.013203  0
H  H28  1  0.02086471  0.90355468  0.27301205  1  0  0.115137  0  0.961658  0  0  0.127986  0  1.017624  0  0  0.130695  0  1.016865  0  0.121706  0  0.10853  0.126031  0  1.01825  0
H  H29  1  0.97913736  0.09644547  0.72698716  1  0  0.115095  0  0.961702  0  0  0.127946  0  1.017665  0  0  0.130654  0  1.016908  0  0.121685  0  0.108508  0.125991  0  1.018289  0
H  H30  1  0.00991924  0.80769972  0.12428804  1  0  0.084885  0  0.947356  0  0  0.096151  0  1.007472  0  0  0.099472  0  1.005174  0  0.056342  0  0.098779  0.093739  0  1.009248  0
H  H31  1  0.99008304  0.19229786  0.87571410  1  0  0.08488  0  0.947356  0  0  0.096182  0  1.007435  0  0  0.099496  0  1.005143  0  0.056368  0  0.098805  0.093769  0  1.009213  0
H  H32  1  0.16383665  0.87850605  0.93628444  1  0  0.098736  0  0.984162  0  0  0.108464  0  1.044352  0  0  0.111622  0  1.042965  0  0.126143  0  0.099426  0.106125  0  1.045529  0
H  H33  1  0.83615572  0.12149581  0.06371727  1  0  0.098713  0  0.984206  0  0  0.10847  0  1.044365  0  0  0.111629  0  1.042974  0  0.126104  0  0.099424  0.106126  0  1.045545  0
H  H34  1  0.33098851  0.04291023  0.89503954  1  0  0.110538  0  0.950156  0  0  0.123229  0  1.006039  0  0  0.126707  0  1.003602  0  0.084273  0  0.107966  0.120677  0  1.007974  0
H  H35  1  0.66899879  0.95709504  0.10495813  1  0  0.110586  0  0.950154  0  0  0.12327  0  1.00604  0  0  0.126747  0  1.003604  0  0.084422  0  0.107988  0.120726  0  1.007966  0
H  H36  1  0.08976860  0.51392975  0.13965138  1  0  0.437236  0  0.854023  0  0  0.410567  0  0.910909  0  0  0.42103  0  0.895484  0  0.635127  0  0.299285  0.403025  0  0.922018  0
H  H37  1  0.91023705  0.48607040  0.86034655  1  0  0.437189  0  0.854077  0  0  0.410524  0  0.91096  0  0  0.420988  0  0.895532  0  0.635081  0  0.299264  0.402985  0  0.922062  0
H  H38  1  0.25754681  0.56038051  0.14948373  1  0  0.4255  0  0.885512  0  0  0.392631  0  0.952919  0  0  0.405141  0  0.934873  0  0.653469  0  0.292182  0.383738  0  0.965715  0
H  H39  1  0.74245526  0.43961964  0.85051626  1  0  0.425537  0  0.885465  0  0  0.392675  0  0.95286  0  0  0.405183  0  0.934816  0  0.653491  0  0.29219  0.383779  0  0.965662  0
H  H40  1  0.58716562  0.12270675  0.29398885  1  0  0.442904  0  0.810439  0  0  0.424931  0  0.864452  0  0  0.434304  0  0.850893  0  0.638686  0  0.32681  0.418117  0  0.874208  0
H  H41  1  0.41283146  0.87729596  0.70600495  1  0  0.442972  0  0.810253  0  0  0.424951  0  0.864413  0  0  0.434324  0  0.850849  0  0.638602  0  0.326798  0.418138  0  0.874113  0
H  H42  1  0.68294204  0.20633350  0.18605068  1  0  0.423457  0  0.888094  0  0  0.392558  0  0.952831  0  0  0.403802  0  0.936835  0  0.643331  0  0.295882  0.384569  0  0.96416  0
H  H43  1  0.31705996  0.79366750  0.81394442  1  0  0.423497  0  0.888047  0  0  0.392608  0  0.952765  0  0  0.403848  0  0.936775  0  0.643355  0  0.295901  0.384623  0  0.964093  0
H  H44  1  0.20522264  0.43513651  0.82266186  1  0  0.417093  0  0.883964  0  0  0.383811  0  0.952164  0  0  0.395058  0  0.935714  0  0.651989  0  0.287387  0.375848  0  0.963784  0
H  H45  1  0.79478225  0.56485851  0.17733740  1  0  0.416959  0  0.884122  0  0  0.383647  0  0.952372  0  0  0.394894  0  0.935923  0  0.651602  0  0.2873  0.375684  0  0.963992  0
H  H46  1  0.11343249  0.37523293  0.94650222  1  0  0.425829  0  0.854151  0  0  0.395708  0  0.921206  0  0  0.406699  0  0.904849  0  0.630343  0  0.305275  0.387838  0  0.932923  0
H  H47  1  0.88656705  0.62476893  0.05349850  1  0  0.425803  0  0.854166  0  0  0.395673  0  0.921249  0  0  0.40667  0  0.904884  0  0.630327  0  0.305237  0.387803  0  0.932966  0
C  C48  1  0.01249153  0.31906302  0.43285752  1  0  0.177422  0  3.761163  0  0  0.167515  0  4.01853  0  0  0.174552  0  4.036784  0  0.415226  0  0.077981  0.162396  0  4.006389  0
C  C49  1  0.98751103  0.68093115  0.56714696  1  0  0.177558  0  3.760926  0  0  0.167541  0  4.018443  0  0  0.174582  0  4.036691  0  0.414831  0  0.077952  0.162419  0  4.006303  0
C  C50  1  0.90159667  0.27852254  0.28736856  1  0  -0.080311  0  3.591976  0  0  -0.1361  0  3.850423  0  0  -0.132879  0  3.851494  0  0.372508  0  -0.057601  -0.138485  0  3.849767  0
C  C51  1  0.09840568  0.72147419  0.71263142  1  0  -0.080425  0  3.591919  0  0  -0.136151  0  3.850422  0  0  -0.132954  0  3.851526  0  0.37249  0  -0.057588  -0.138525  0  3.849742  0
C  C52  1  0.94480001  0.28835108  0.16318154  1  0  0.701135  0  3.863645  0  0  0.647427  0  4.177233  0  0  0.68128  0  4.168884  0  1.620668  0  0.223209  0.624276  0  4.18225  0
C  C53  1  0.05519953  0.71165078  0.83681761  1  0  0.701195  0  3.863511  0  0  0.647497  0  4.177066  0  0  0.681357  0  4.168716  0  1.620857  0  0.2232  0.624342  0  4.182087  0
C  C54  1  0.13822738  0.36711013  0.45926904  1  0  0.189501  0  3.773228  0  0  0.175361  0  4.033744  0  0  0.183028  0  4.051363  0  0.402085  0  0.084288  0.169795  0  4.022042  0
C  C55  1  0.86177132  0.63288745  0.54073203  1  0  0.189342  0  3.773186  0  0  0.175362  0  4.033597  0  0  0.18303  0  4.051214  0  0.402054  0  0.084272  0.169799  0  4.021894  0
C  C56  1  0.39544560  0.44888672  0.39745417  1  0  -0.060286  0  3.589877  0  0  -0.119015  0  3.847752  0  0  -0.115597  0  3.849194  0  0.374359  0  -0.055253  -0.121655  0  3.846942  0
C  C57  1  0.60455682  0.55110916  0.60254993  1  0  -0.060478  0  3.590108  0  0  -0.119076  0  3.847785  0  0  -0.115658  0  3.849237  0  0.374308  0  -0.055275  -0.121705  0  3.846953  0
C  C58  1  0.52734007  0.47015981  0.29548700  1  0  0.693211  0  3.883843  0  0  0.64587  0  4.19322  0  0  0.679579  0  4.184881  0  1.612291  0  0.214891  0.62281  0  4.198288  0
C  C59  1  0.47266952  0.52983607  0.70451376  1  0  0.693308  0  3.883867  0  0  0.645965  0  4.193201  0  0  0.67965  0  4.184891  0  1.612224  0  0.214913  0.622918  0  4.198244  0
C  C60  1  0.12573167  0.38390864  0.56472201  1  0  -0.17957  0  3.75906  0  0  -0.201166  0  4.013769  0  0  -0.20485  0  4.033141  0  0.041983  0  -0.105357  -0.198615  0  4.000807  0
C  C61  1  0.87427033  0.61609236  0.43527779  1  0  -0.179417  0  3.759037  0  0  -0.201056  0  4.01375  0  0  -0.204735  0  4.033112  0  0.042259  0  -0.105354  -0.198505  0  4.000785  0
C  C62  1  0.98733653  0.35403419  0.64326145  1  0  -0.043754  0  3.761202  0  0  -0.06294  0  4.017943  0  0  -0.063445  0  4.037672  0  -0.048879  0  -0.095847  -0.062533  0  4.004546  0
C  C63  1  0.01266934  0.64596339  0.35674411  1  0  -0.043762  0  3.76137  0  0  -0.062952  0  4.018119  0  0  -0.063454  0  4.037851  0  -0.049396  0  -0.095828  -0.062547  0  4.004722  0
C  C64  1  0.86247548  0.30772358  0.61711910  1  0  -0.081172  0  3.809032  0  0  -0.098176  0  4.071742  0  0  -0.099372  0  4.091136  0  -0.051785  0  -0.103825  -0.097306  0  4.058612  0
C  C65  1  0.13752828  0.69227059  0.38288836  1  0  -0.081045  0  3.808814  0  0  -0.098042  0  4.071501  0  0  -0.099241  0  4.090896  0  -0.051323  0  -0.103793  -0.097173  0  4.058376  0
C  C66  1  0.87510431  0.28993547  0.51124775  1  0  -0.188606  0  3.793825  0  0  -0.212008  0  4.051447  0  0  -0.215523  0  4.071026  0  -0.012574  0  -0.108788  -0.209633  0  4.038443  0
C  C67  1  0.12489818  0.71005955  0.48875890  1  0  -0.188818  0  3.793815  0  0  -0.212198  0  4.051452  0  0  -0.215716  0  4.07103  0  -0.012127  0  -0.108836  -0.209823  0  4.03845  0
C  C68  1  0.27140222  0.06761617  0.06137825  1  0  0.165131  0  3.789741  0  0  0.151241  0  4.056857  0  0  0.159189  0  4.073342  0  0.429575  0  0.072511  0.145562  0  4.045867  0
C  C69  1  0.72858755  0.93238825  0.93862007  1  0  0.165074  0  3.789605  0  0  0.151155  0  4.056691  0  0  0.159102  0  4.073175  0  0.429888  0  0.072502  0.145478  0  4.045704  0
C  C70  1  0.45283368  0.19985407  0.93844948  1  0  -0.069188  0  3.624486  0  0  -0.125355  0  3.884078  0  0  -0.122137  0  3.885772  0  0.373388  0  -0.057345  -0.127893  0  3.883178  0
C  C71  1  0.54715967  0.80015035  0.06154835  1  0  -0.069154  0  3.624705  0  0  -0.125404  0  3.884216  0  0  -0.122222  0  3.885953  0  0.373112  0  -0.05736  -0.127948  0  3.883311  0
C  C72  1  0.53571568  0.30577257  0.93401414  1  0  0.695992  0  3.869205  0  0  0.645771  0  4.176671  0  0  0.679903  0  4.167253  0  1.604216  0  0.223187  0.62246  0  4.182512  0
C  C73  1  0.46428266  0.69422929  0.06597890  1  0  0.696097  0  3.868969  0  0  0.645844  0  4.176482  0  0  0.679996  0  4.167061  0  1.604277  0  0.223214  0.622531  0  4.182325  0
C  C74  1  0.18561218  0.02616728  0.16888431  1  0  0.164873  0  3.787666  0  0  0.154309  0  4.04803  0  0  0.161053  0  4.065646  0  0.476048  0  0.070522  0.149316  0  4.036355  0
C  C75  1  0.81437653  0.97383543  0.83111457  1  0  0.165274  0  3.787186  0  0  0.154674  0  4.047552  0  0  0.161428  0  4.065166  0  0.476093  0  0.070709  0.149677  0  4.03588  0
C  C76  1  0.16876175  0.01516625  0.36232801  1  0  -0.078157  0  3.575576  0  0  -0.137077  0  3.836525  0  0  -0.133355  0  3.83771  0  0.318425  0  -0.069224  -0.139865  0  3.835747  0
C  C77  1  0.83124116  0.98483817  0.63767163  1  0  -0.077913  0  3.575431  0  0  -0.136817  0  3.836382  0  0  -0.13309  0  3.837568  0  0.318425  0  -0.069201  -0.139602  0  3.8356  0
C  C78  1  0.24913301  0.06424400  0.43599848  1  0  0.68176  0  3.90835  0  0  0.638976  0  4.220861  0  0  0.672451  0  4.212753  0  1.632211  0  0.197123  0.615983  0  4.225675  0
C  C79  1  0.75086322  0.93575444  0.56401292  1  0  0.681369  0  3.90831  0  0  0.638548  0  4.220941  0  0  0.672027  0  4.212837  0  1.631992  0  0.196864  0.615554  0  4.225751  0
C  C80  1  0.08983044  0.93409143  0.19073289  1  0  -0.180536  0  3.781449  0  0  -0.201623  0  4.032489  0  0  -0.204702  0  4.052228  0  -0.083936  0  -0.104746  -0.199474  0  4.019313  0
C  C81  1  0.91016418  0.06591214  0.80926654  1  0  -0.180617  0  3.781402  0  0  -0.201713  0  4.032485  0  0  -0.204794  0  4.052223  0  -0.084182  0  -0.104797  -0.19956  0  4.019305  0
C  C82  1  0.08323904  0.88065874  0.10665238  1  0  -0.050554  0  3.797177  0  0  -0.069419  0  4.059501  0  0  -0.070483  0  4.079716  0  -0.067475  0  -0.09677  -0.068687  0  4.045797  0
C  C83  1  0.91675586  0.11934141  0.89334938  1  0  -0.050557  0  3.797199  0  0  -0.069454  0  4.059559  0  0  -0.070512  0  4.079772  0  -0.067121  0  -0.096761  -0.068727  0  4.045848  0
C  C84  1  0.16944033  0.92016688  0.00131155  1  0  -0.055664  0  3.782679  0  0  -0.075267  0  4.040891  0  0  -0.075986  0  4.061115  0  0.023395  0  -0.098283  -0.074708  0  4.027231  0
C  C85  1  0.83055204  0.07983497  0.99869094  1  0  -0.055614  0  3.782738  0  0  -0.075239  0  4.040931  0  0  -0.075955  0  4.061145  0  0.023071  0  -0.098252  -0.074681  0  4.027292  0
C  C86  1  0.26337812  0.01399291  0.97802603  1  0  -0.184185  0  3.786381  0  0  -0.206852  0  4.046513  0  0  -0.210282  0  4.064845  0  -0.073819  0  -0.108261  -0.204473  0  4.034268  0
C  C87  1  0.73660434  0.98601322  0.02197133  1  0  -0.184275  0  3.786509  0  0  -0.20694  0  4.046652  0  0  -0.210369  0  4.064983  0  -0.073822  0  -0.108349  -0.204564  0  4.034383  0
O  O88  1  0.03704047  0.30293536  0.32657554  1  0  -0.319238  0  2.468222  0  0  -0.241511  0  2.703449  0  0  -0.264334  0  2.710506  0  -1.097673  0  -0.218987  -0.224894  0  2.697917  0
O  O89  1  0.96295985  0.69705710  0.67342966  1  0  -0.319069  0  2.468027  0  0  -0.241438  0  2.703397  0  0  -0.264254  0  2.710462  0  -1.097753  0  -0.218931  -0.224824  0  2.697864  0
O  O90  1  0.08882334  0.30073909  0.11371544  1  0  -0.677333  0  2.046641  0  0  -0.626497  0  2.301475  0  0  -0.658309  0  2.292704  0  -1.188106  0  -0.361836  -0.603665  0  2.306661  0
O  O91  1  0.91117592  0.69926619  0.88628293  1  0  -0.677344  0  2.046529  0  0  -0.626489  0  2.301345  0  0  -0.658305  0  2.292571  0  -1.188243  0  -0.3618  -0.60366  0  2.306535  0
O  O92  1  0.82932190  0.28442000  0.11650356  1  0  -0.666353  0  1.99857  0  0  -0.61382  0  2.23337  0  0  -0.637974  0  2.221467  0  -1.213187  0  -0.364499  -0.596904  0  2.24122  0
O  O93  1  0.17068123  0.71558185  0.88349588  1  0  -0.666419  0  1.998517  0  0  -0.61389  0  2.233324  0  0  -0.638042  0  2.221419  0  -1.213176  0  -0.364513  -0.596976  0  2.24118  0
O  O94  1  0.26796624  0.39510792  0.37523268  1  0  -0.305428  0  2.456108  0  0  -0.228407  0  2.691884  0  0  -0.250541  0  2.698658  0  -1.092616  0  -0.201147  -0.212251  0  2.686572  0
O  O95  1  0.73203351  0.60489137  0.62477019  1  0  -0.305363  0  2.456181  0  0  -0.228458  0  2.691908  0  0  -0.250595  0  2.698689  0  -1.092665  0  -0.201129  -0.21231  0  2.686601  0
O  O96  1  0.52084806  0.41892425  0.21995671  1  0  -0.754387  0  2.039728  0  0  -0.707002  0  2.307894  0  0  -0.738624  0  2.297121  0  -1.220043  0  -0.456003  -0.684145  0  2.314414  0
O  O97  1  0.47914817  0.58107419  0.78003980  1  0  -0.75435  0  2.039937  0  0  -0.706957  0  2.308055  0  0  -0.738578  0  2.297312  0  -1.220017  0  -0.455965  -0.684109  0  2.314569  0
O  O98  1  0.63588755  0.53320568  0.29385426  1  0  -0.623659  0  1.910429  0  0  -0.574816  0  2.130325  0  0  -0.599991  0  2.120244  0  -1.185809  0  -0.314808  -0.557198  0  2.136825  0
O  O99  1  0.36412149  0.46678250  0.70614998  1  0  -0.62373  0  1.910114  0  0  -0.574941  0  2.130026  0  0  -0.600102  0  2.119948  0  -1.18578  0  -0.314888  -0.557328  0  2.136517  0
O  O100  1  0.36211336  0.15985881  0.04685087  1  0  -0.301242  0  2.446022  0  0  -0.228308  0  2.686675  0  0  -0.249787  0  2.69277  0  -1.086043  0  -0.195521  -0.212621  0  2.681822  0
O  O101  1  0.63788140  0.84014304  0.95314502  1  0  -0.301301  0  2.446055  0  0  -0.22825  0  2.686637  0  0  -0.249723  0  2.692743  0  -1.086128  0  -0.195543  -0.21256  0  2.681778  0
O  O102  1  0.48828035  0.35766188  0.01283383  1  0  -0.774942  0  1.974945  0  0  -0.725404  0  2.238594  0  0  -0.754935  0  2.225227  0  -1.234513  0  -0.447349  -0.704092  0  2.247054  0
O  O103  1  0.51171926  0.64233912  0.98716630  1  0  -0.77491  0  1.975057  0  0  -0.725402  0  2.238783  0  0  -0.75491  0  2.225351  0  -1.234533  0  -0.447318  -0.704092  0  2.247242  0
O  O104  1  0.64224494  0.33663320  0.85100059  1  0  -0.584929  0  1.978793  0  0  -0.527522  0  2.195459  0  0  -0.553859  0  2.187418  0  -1.170681  0  -0.286671  -0.509216  0  2.200592  0
O  O105  1  0.35774483  0.66337121  0.14900557  1  0  -0.585008  0  1.978388  0  0  -0.527609  0  2.195107  0  0  -0.55393  0  2.187008  0  -1.170692  0  -0.286702  -0.509303  0  2.200242  0
O  O106  1  0.20512150  0.08021954  0.24870594  1  0  -0.329001  0  2.434951  0  0  -0.253372  0  2.674757  0  0  -0.275899  0  2.680787  0  -1.097859  0  -0.218304  -0.236885  0  2.669871  0
O  O107  1  0.79487558  0.91978317  0.75129100  1  0  -0.329219  0  2.434986  0  0  -0.253552  0  2.674774  0  0  -0.276094  0  2.680808  0  -1.09804  0  -0.21837  -0.237065  0  2.669888  0
O  O108  1  0.32614471  0.15504154  0.38910398  1  0  -0.722112  0  2.000784  0  0  -0.684486  0  2.255195  0  0  -0.716953  0  2.244074  0  -1.201225  0  -0.417914  -0.66069  0  2.261734  0
O  O109  1  0.67387262  0.84496203  0.61089152  1  0  -0.721957  0  2.00148  0  0  -0.684284  0  2.255855  0  0  -0.716744  0  2.244734  0  -1.201371  0  -0.417877  -0.660493  0  2.262391  0
O  O110  1  0.23248980  0.01169323  0.53476375  1  0  -0.615485  0  1.833775  0  0  -0.585488  0  2.04442  0  0  -0.607823  0  2.033872  0  -1.191404  0  -0.348446  -0.569627  0  2.051237  0
O  O111  1  0.76751234  0.98832058  0.46522200  1  0  -0.6154  0  1.833004  0  0  -0.585389  0  2.043648  0  0  -0.607738  0  2.033117  0  -1.191074  0  -0.348286  -0.569518  0  2.050454  0
O  O112  1  0.20552229  0.49381718  0.13797812  1  0  -0.947376  0  1.8947  0  0  -0.904422  0  2.101285  0  0  -0.928687  0  2.0664  0  -1.310003  0  -0.687365  -0.886667  0  2.125563  0
O  O113  1  0.79448435  0.50618553  0.86201828  1  0  -0.94735  0  1.894723  0  0  -0.904435  0  2.101337  0  0  -0.928686  0  2.066441  0  -1.309965  0  -0.687326  -0.886674  0  2.125613  0
O  O114  1  0.58437087  0.16153806  0.21744208  1  0  -0.865562  0  1.827389  0  0  -0.821894  0  2.009286  0  0  -0.847394  0  1.978305  0  -1.272715  0  -0.625208  -0.803255  0  2.030764  0
O  O115  1  0.41563008  0.83846123  0.78255200  1  0  -0.865634  0  1.827244  0  0  -0.82193  0  2.009242  0  0  -0.847428  0  1.978263  0  -1.27264  0  -0.625188  -0.803298  0  2.030652  0
O  O116  1  0.11696076  0.44383187  0.88545406  1  0  -0.857759  0  1.797599  0  0  -0.801823  0  1.960205  0  0  -0.819808  0  1.925937  0  -1.300467  0  -0.606781  -0.789139  0  1.98446  0
O  O117  1  0.88304145  0.55616657  0.11454319  1  0  -0.857595  0  1.797731  0  0  -0.80163  0  1.960363  0  0  -0.819618  0  1.926095  0  -1.300064  0  -0.606637  -0.788942  0  1.984617  0
