# generated using pymatgen
data_CdH8C16N10O
_symmetry_space_group_name_H-M   'P 1'
_cell_length_a   7.45239317
_cell_length_b   14.00187701
_cell_length_c   18.56200000
_cell_angle_alpha   81.15689585
_cell_angle_beta   83.30038864
_cell_angle_gamma   78.23567792
_symmetry_Int_Tables_number   1
_chemical_formula_structural   CdH8C16N10O
_chemical_formula_sum   'Cd4 H32 C64 N40 O4'
_cell_volume   1866.37038896
_cell_formula_units_Z   4
loop_
 _symmetry_equiv_pos_site_id
 _symmetry_equiv_pos_as_xyz
  1  'x, y, z'
loop_
 _atom_site_type_symbol
 _atom_site_label
 _atom_site_symmetry_multiplicity
 _atom_site_fract_x
 _atom_site_fract_y
 _atom_site_fract_z
 _atom_site_occupancy
 _atom_site_hle17_bader_spin_density
 _atom_site_hle17_ddec_charge
 _atom_site_hle17_ddec_spin_density
 _atom_site_hle17_ddec_sum_bond_order
 _atom_site_hle17_magmom
 _atom_site_hse06_10hf_bader_spin_density
 _atom_site_hse06_10hf_ddec_charge
 _atom_site_hse06_10hf_ddec_spin_density
 _atom_site_hse06_10hf_ddec_sum_bond_order
 _atom_site_hse06_10hf_magmom
 _atom_site_hse06_bader_spin_density
 _atom_site_hse06_ddec_charge
 _atom_site_hse06_ddec_spin_density
 _atom_site_hse06_ddec_sum_bond_order
 _atom_site_hse06_magmom
 _atom_site_pbe_bader_charge
 _atom_site_pbe_bader_spin_density
 _atom_site_pbe_cm5_charge
 _atom_site_pbe_ddec_charge
 _atom_site_pbe_ddec_spin_density
 _atom_site_pbe_ddec_sum_bond_order
 _atom_site_pbe_magmom
Cd  Cd0  1  0.73226821  0.14004702  0.17268861  1  0  1.133825  0  1.899973  0  0  0.945912  0  2.387016  0  0  0.992923  0  2.341689  0  1.292721  0  0.835023  0.912904  0  2.417822  0
Cd  Cd1  1  0.26770822  0.85995851  0.82731433  1  0  1.133781  0  1.900078  0  0  0.945857  0  2.38714  0  0  0.992869  0  2.34181  0  1.292585  0  0.835018  0.912848  0  2.417949  0
Cd  Cd2  1  0.76674698  0.65880568  0.28487568  1  0  1.133394  0  1.894907  0  0  0.946219  0  2.382899  0  0  0.993648  0  2.3369  0  1.292104  0  0.825987  0.912924  0  2.414119  0
Cd  Cd3  1  0.23325964  0.34119470  0.71512106  1  0  1.133427  0  1.894814  0  0  0.946272  0  2.382778  0  0  0.993686  0  2.336807  0  1.291948  0  0.825992  0.912985  0  2.413983  0
H  H4  1  0.76108145  0.57766496  0.13569515  1  0  0.087915  0  0.938365  0  0  0.092447  0  1.007518  0  0  0.095058  0  1.005175  0  0.111257  0  0.117459  0.090473  0  1.00931  0
H  H5  1  0.23892112  0.42233542  0.86430447  1  0  0.087896  0  0.938356  0  0  0.092395  0  1.007546  0  0  0.095006  0  1.005203  0  0.111205  0  0.117454  0.090422  0  1.009336  0
H  H6  1  0.81763841  0.85614763  0.16763538  1  0  0.089351  0  0.945705  0  0  0.095888  0  1.014412  0  0  0.098051  0  1.0124  0  0.128245  0  0.117031  0.094248  0  1.015961  0
H  H7  1  0.18236910  0.14385790  0.83235695  1  0  0.089304  0  0.945707  0  0  0.095912  0  1.014347  0  0  0.098077  0  1.012333  0  0.128479  0  0.116963  0.094266  0  1.015911  0
H  H8  1  0.84450932  0.91271087  0.03413335  1  0  0.110938  0  0.953788  0  0  0.118733  0  1.016603  0  0  0.121624  0  1.016232  0  0.107797  0  0.108138  0.116663  0  1.017053  0
H  H9  1  0.15549731  0.08728950  0.96585692  1  0  0.110896  0  0.953765  0  0  0.118659  0  1.016645  0  0  0.121563  0  1.016259  0  0.107219  0  0.108098  0.116591  0  1.017093  0
H  H10  1  0.82795420  0.79352026  0.94615097  1  0  0.117697  0  0.943164  0  0  0.124978  0  1.008131  0  0  0.127739  0  1.005855  0  0.136744  0  0.114886  0.12291  0  1.009847  0
H  H11  1  0.17204666  0.20647349  0.05384411  1  0  0.117677  0  0.943289  0  0  0.124977  0  1.00825  0  0  0.127737  0  1.005972  0  0.136319  0  0.114921  0.122911  0  1.009958  0
H  H12  1  0.69921885  0.36227783  0.85223676  1  0  0.121892  0  0.92431  0  0  0.13122  0  0.984149  0  0  0.133857  0  0.982129  0  0.15292  0  0.117714  0.129258  0  0.985658  0
H  H13  1  0.30079178  0.63771887  0.14776345  1  0  0.12186  0  0.924366  0  0  0.131195  0  0.984209  0  0  0.133831  0  0.982192  0  0.153114  0  0.117712  0.129233  0  0.985717  0
H  H14  1  0.67085321  0.18433845  0.87562410  1  0  0.111441  0  0.96919  0  0  0.116004  0  1.034788  0  0  0.118495  0  1.035798  0  0.131276  0  0.108994  0.11421  0  1.034255  0
H  H15  1  0.32915150  0.81565972  0.12437944  1  0  0.111425  0  0.969118  0  0  0.11599  0  1.034715  0  0  0.118481  0  1.035725  0  0.131317  0  0.109001  0.114194  0  1.034186  0
H  H16  1  0.67505956  0.09743909  0.00388634  1  0  0.079163  0  0.947463  0  0  0.084698  0  1.016985  0  0  0.087341  0  1.014524  0  0.122707  0  0.115599  0.082778  0  1.018689  0
H  H17  1  0.32493091  0.90256497  0.99611719  1  0  0.079037  0  0.947407  0  0  0.084602  0  1.016949  0  0  0.087248  0  1.014482  0  0.122698  0  0.115501  0.082685  0  1.018648  0
H  H18  1  0.73412097  0.34745537  0.08514811  1  0  0.090883  0  0.936251  0  0  0.095323  0  1.005946  0  0  0.098127  0  1.003272  0  0.12366  0  0.118826  0.093272  0  1.007918  0
H  H19  1  0.26588165  0.65254868  0.91485162  1  0  0.090861  0  0.936229  0  0  0.095275  0  1.005971  0  0  0.098079  0  1.003296  0  0.123527  0  0.118768  0.093223  0  1.007943  0
H  H20  1  0.75690712  0.21680048  0.32227522  1  0  0.083643  0  0.959757  0  0  0.08717  0  1.033041  0  0  0.089468  0  1.030889  0  0.124734  0  0.116767  0.085453  0  1.034603  0
H  H21  1  0.24307545  0.78319916  0.67772811  1  0  0.083698  0  0.959674  0  0  0.087196  0  1.033012  0  0  0.089493  0  1.030861  0  0.124689  0  0.116758  0.085483  0  1.034559  0
H  H22  1  0.75041536  0.93312487  0.28552095  1  0  0.09297  0  0.942413  0  0  0.099214  0  1.010793  0  0  0.101277  0  1.008681  0  0.153741  0  0.119857  0.097677  0  1.012318  0
H  H23  1  0.24959964  0.06687477  0.71447601  1  0  0.09299  0  0.942548  0  0  0.099248  0  1.010889  0  0  0.101312  0  1.008776  0  0.153786  0  0.119861  0.09771  0  1.012414  0
H  H24  1  0.77370126  0.86802636  0.41666572  1  0  0.109817  0  0.944735  0  0  0.119112  0  1.004295  0  0  0.122189  0  1.00338  0  0.08802  0  0.110835  0.116933  0  1.005096  0
H  H25  1  0.22633931  0.13196592  0.58332875  1  0  0.109803  0  0.944736  0  0  0.119134  0  1.004254  0  0  0.122203  0  1.003344  0  0.088061  0  0.110883  0.116954  0  1.005056  0
H  H26  1  0.77992249  0.98660525  0.50664364  1  0  0.110874  0  0.91973  0  0  0.121774  0  0.975516  0  0  0.124997  0  0.973223  0  0.128473  0  0.11711  0.119423  0  0.977137  0
H  H27  1  0.22010239  0.01338555  0.49335335  1  0  0.110949  0  0.919632  0  0  0.121775  0  0.975478  0  0  0.125  0  0.973191  0  0.128393  0  0.117105  0.119424  0  0.977097  0
H  H28  1  0.76392100  0.43850938  0.60797364  1  0  0.123362  0  0.917367  0  0  0.134448  0  0.974534  0  0  0.136749  0  0.973176  0  0.156842  0  0.12171  0.132732  0  0.975554  0
H  H29  1  0.23607342  0.56148731  0.39202679  1  0  0.123262  0  0.917502  0  0  0.134363  0  0.974665  0  0  0.136664  0  0.973305  0  0.156715  0  0.121675  0.132646  0  0.975686  0
H  H30  1  0.75389483  0.62052538  0.58642628  1  0  0.121052  0  0.937188  0  0  0.128475  0  0.995757  0  0  0.132167  0  0.994642  0  0.143994  0  0.113246  0.125861  0  0.996696  0
H  H31  1  0.24609476  0.37947352  0.41357358  1  0  0.121151  0  0.937172  0  0  0.128547  0  0.995743  0  0  0.132235  0  0.994633  0  0.144101  0  0.113284  0.125935  0  0.996683  0
H  H32  1  0.74422220  0.70800407  0.45668498  1  0  0.081324  0  0.925859  0  0  0.092091  0  0.986694  0  0  0.094699  0  0.983894  0  0.118558  0  0.119378  0.090171  0  0.988755  0
H  H33  1  0.25576521  0.29199337  0.54331462  1  0  0.081309  0  0.925772  0  0  0.092084  0  0.986615  0  0  0.094697  0  0.983801  0  0.11853  0  0.11937  0.090162  0  0.988683  0
H  H34  1  0.74162021  0.45013193  0.37495141  1  0  0.084373  0  0.958557  0  0  0.089176  0  1.029034  0  0  0.091508  0  1.026864  0  0.121945  0  0.117622  0.087449  0  1.030603  0
H  H35  1  0.25839526  0.54986255  0.62504991  1  0  0.084355  0  0.958531  0  0  0.089159  0  1.029008  0  0  0.091492  0  1.026841  0  0.122002  0  0.117621  0.087433  0  1.030575  0
C  C36  1  0.78013534  0.65098443  0.11062317  1  0  0.113983  0  3.679123  0  0  0.070715  0  3.936803  0  0  0.078612  0  3.954274  0  0.475554  0  0.052472  0.065771  0  3.924814  0
C  C37  1  0.21987430  0.34901889  0.88937362  1  0  0.114072  0  3.678992  0  0  0.070835  0  3.936671  0  0  0.078735  0  3.954134  0  0.475467  0  0.052508  0.065891  0  3.924683  0
C  C38  1  0.81096450  0.80631766  0.12877272  1  0  0.145956  0  3.67044  0  0  0.113333  0  3.91828  0  0  0.121236  0  3.937071  0  0.513062  0  0.058579  0.108377  0  3.905325  0
C  C39  1  0.18904566  0.19368419  0.87122153  1  0  0.145973  0  3.670467  0  0  0.113307  0  3.918311  0  0  0.121207  0  3.937108  0  0.511848  0  0.058698  0.108349  0  3.905354  0
C  C40  1  0.82554715  0.83778593  0.05357695  1  0  -0.112289  0  3.718265  0  0  -0.122869  0  3.970554  0  0  -0.131295  0  3.993374  0  -0.013358  0  -0.078845  -0.117584  0  3.955212  0
C  C41  1  0.17446135  0.16221298  0.94641772  1  0  -0.112336  0  3.718097  0  0  -0.122884  0  3.970435  0  0  -0.131319  0  3.993249  0  -0.012608  0  -0.07896  -0.117599  0  3.955094  0
C  C42  1  0.81608914  0.77268520  0.00534573  1  0  -0.015676  0  3.656748  0  0  -0.044819  0  3.906627  0  0  -0.040255  0  3.92468  0  -0.041096  0  -0.056031  -0.047335  0  3.89415  0
C  C43  1  0.18392498  0.22730928  0.99465133  1  0  -0.015644  0  3.656667  0  0  -0.044856  0  3.906596  0  0  -0.040287  0  3.924645  0  -0.040713  0  -0.056004  -0.047371  0  3.894116  0
C  C44  1  0.79170806  0.67695906  0.03452189  1  0  -0.074624  0  3.826782  0  0  -0.05718  0  4.071712  0  0  -0.066063  0  4.096133  0  0.068686  0  -0.00988  -0.051673  0  4.055315  0
C  C45  1  0.20830798  0.32303763  0.96547537  1  0  -0.074656  0  3.826686  0  0  -0.05717  0  4.071595  0  0  -0.066059  0  4.096021  0  0.06877  0  -0.009875  -0.051661  0  4.055192  0
C  C46  1  0.77182986  0.60769486  0.98696256  1  0  0.340319  0  3.732082  0  0  0.305962  0  4.016987  0  0  0.322789  0  4.026702  0  1.052918  0  0.21464  0.294817  0  4.010337  0
C  C47  1  0.22817620  0.39230331  0.01303715  1  0  0.340336  0  3.732096  0  0  0.306016  0  4.01692  0  0  0.322838  0  4.026636  0  1.052909  0  0.214652  0.294871  0  4.010271  0
C  C48  1  0.73519878  0.47107667  0.95720006  1  0  0.338208  0  3.744861  0  0  0.301646  0  4.033312  0  0  0.318652  0  4.042871  0  1.067976  0  0.21309  0.290414  0  4.026751  0
C  C49  1  0.26480645  0.52892002  0.04280040  1  0  0.338235  0  3.744979  0  0  0.301622  0  4.033506  0  0  0.318623  0  4.043065  0  1.067893  0  0.213023  0.290392  0  4.026946  0
C  C50  1  0.71790559  0.36869383  0.96725253  1  0  -0.07409  0  3.81541  0  0  -0.055019  0  4.060009  0  0  -0.063684  0  4.083943  0  -0.028486  0  -0.00663  -0.049684  0  4.04396  0
C  C51  1  0.28210395  0.63130213  0.03274943  1  0  -0.073999  0  3.814915  0  0  -0.054911  0  4.059539  0  0  -0.063572  0  4.083471  0  -0.028539  0  -0.006519  -0.049576  0  4.043492  0
C  C52  1  0.70040847  0.32186132  0.90735863  1  0  -0.006847  0  3.635263  0  0  -0.035081  0  3.880877  0  0  -0.030282  0  3.897976  0  -0.050904  0  -0.051449  -0.037751  0  3.869023  0
C  C53  1  0.29959920  0.67813611  0.09264433  1  0  -0.006951  0  3.635329  0  0  -0.035195  0  3.880926  0  0  -0.030401  0  3.898027  0  -0.050851  0  -0.051567  -0.037865  0  3.86907  0
C  C54  1  0.68438546  0.22343363  0.92044753  1  0  -0.115231  0  3.7209  0  0  -0.12426  0  3.972594  0  0  -0.132761  0  3.995836  0  0.033704  0  -0.080023  -0.118911  0  3.956935  0
C  C55  1  0.31561540  0.77656012  0.07955455  1  0  -0.115045  0  3.720831  0  0  -0.12402  0  3.97249  0  0  -0.132518  0  3.995733  0  0.033519  0  -0.079904  -0.118672  0  3.956831  0
C  C56  1  0.68721587  0.17469605  0.99196766  1  0  0.137723  0  3.687188  0  0  0.104869  0  3.939606  0  0  0.112751  0  3.95779  0  0.421356  0  0.054949  0.099941  0  3.927043  0
C  C57  1  0.31278234  0.82530138  0.00803466  1  0  0.137734  0  3.687192  0  0  0.104769  0  3.939706  0  0  0.112652  0  3.957896  0  0.421393  0  0.054998  0.099842  0  3.927144  0
C  C58  1  0.71978262  0.31420644  0.03728497  1  0  0.119908  0  3.666923  0  0  0.07495  0  3.926563  0  0  0.082946  0  3.943842  0  0.555635  0  0.053217  0.06988  0  3.914738  0
C  C59  1  0.28022458  0.68579615  0.96271310  1  0  0.119853  0  3.666768  0  0  0.074911  0  3.926419  0  0  0.082901  0  3.943703  0  0.555866  0  0.053209  0.069841  0  3.914595  0
C  C60  1  0.76013448  0.14030171  0.34567397  1  0  0.116065  0  3.673045  0  0  0.0739  0  3.920873  0  0  0.081498  0  3.939843  0  0.5827  0  0.054186  0.06912  0  3.907908  0
C  C61  1  0.23985537  0.85969645  0.65432435  1  0  0.116021  0  3.672971  0  0  0.073826  0  3.920825  0  0  0.081421  0  3.939799  0  0.582539  0  0.054158  0.069049  0  3.907859  0
C  C62  1  0.75881581  0.98191766  0.32487932  1  0  0.165845  0  3.640964  0  0  0.132768  0  3.887747  0  0  0.141273  0  3.905596  0  0.525815  0  0.069061  0.127387  0  3.875438  0
C  C63  1  0.24118681  0.01808640  0.67512095  1  0  0.165828  0  3.640953  0  0  0.132775  0  3.88768  0  0  0.141283  0  3.905522  0  0.526023  0  0.069051  0.127393  0  3.875375  0
C  C64  1  0.76910764  0.94617770  0.39910097  1  0  -0.099559  0  3.713321  0  0  -0.112833  0  3.967216  0  0  -0.120687  0  3.988642  0  -0.008978  0  -0.074277  -0.107934  0  3.952791  0
C  C65  1  0.23091001  0.05381826  0.60089684  1  0  -0.099683  0  3.713292  0  0  -0.113013  0  3.967162  0  0  -0.120858  0  3.98858  0  -0.009464  0  -0.074395  -0.108114  0  3.952738  0
C  C66  1  0.77306661  0.01102556  0.44819110  1  0  -0.024124  0  3.681075  0  0  -0.053908  0  3.930263  0  0  -0.049507  0  3.947929  0  -0.09262  0  -0.054482  -0.056308  0  3.91803  0
C  C67  1  0.22694642  0.98896819  0.55180933  1  0  -0.024065  0  3.681254  0  0  -0.053759  0  3.930381  0  0  -0.049367  0  3.948054  0  -0.092231  0  -0.054426  -0.05616  0  3.918148  0
C  C68  1  0.76703626  0.11108891  0.42108502  1  0  -0.069434  0  3.819751  0  0  -0.047033  0  4.055416  0  0  -0.056274  0  4.080533  0  -0.005975  0  -0.005464  -0.04134  0  4.038637  0
C  C69  1  0.23296653  0.88890705  0.57891780  1  0  -0.069544  0  3.819993  0  0  -0.047112  0  4.055619  0  0  -0.056347  0  4.080736  0  -0.006011  0  -0.00547  -0.041417  0  4.038835  0
C  C70  1  0.76791368  0.18290670  0.46951296  1  0  0.344811  0  3.736812  0  0  0.313051  0  4.013443  0  0  0.329812  0  4.023468  0  1.058056  0  0.218569  0.301935  0  4.006575  0
C  C71  1  0.23209229  0.81708411  0.53049030  1  0  0.344988  0  3.736273  0  0  0.313168  0  4.012948  0  0  0.329926  0  4.022978  0  1.057903  0  0.218687  0.302071  0  4.006079  0
C  C72  1  0.75945972  0.32490222  0.50159598  1  0  0.337299  0  3.734461  0  0  0.302868  0  4.01591  0  0  0.319358  0  4.026375  0  1.015313  0  0.217328  0.291879  0  4.008846  0
C  C73  1  0.24054869  0.67508932  0.49840601  1  0  0.33748  0  3.734427  0  0  0.302982  0  4.015945  0  0  0.319529  0  4.026337  0  1.015686  0  0.217402  0.292023  0  4.008863  0
C  C74  1  0.75212047  0.43033554  0.49287795  1  0  -0.069823  0  3.812311  0  0  -0.048845  0  4.053561  0  0  -0.057647  0  4.078541  0  0.062583  0  -0.003927  -0.043409  0  4.036897  0
C  C75  1  0.24787800  0.56966116  0.50712444  1  0  -0.069796  0  3.812071  0  0  -0.048812  0  4.053358  0  0  -0.057629  0  4.078317  0  0.062482  0  -0.003938  -0.043378  0  4.036688  0
C  C76  1  0.75666910  0.47938744  0.55309728  1  0  -0.001721  0  3.631012  0  0  -0.031845  0  3.880895  0  0  -0.027184  0  3.898859  0  -0.035616  0  -0.049108  -0.034444  0  3.868497  0
C  C77  1  0.24332423  0.52060852  0.44690275  1  0  -0.0016  0  3.630819  0  0  -0.031741  0  3.880686  0  0  -0.02708  0  3.89865  0  -0.035423  0  -0.04904  -0.034341  0  3.868289  0
C  C78  1  0.75264371  0.58041215  0.54067967  1  0  -0.122591  0  3.722835  0  0  -0.136591  0  3.984341  0  0  -0.144129  0  4.005021  0  -0.067459  0  -0.081552  -0.131896  0  3.970428  0
C  C79  1  0.24734957  0.41958013  0.45932133  1  0  -0.122661  0  3.72291  0  0  -0.136598  0  3.98439  0  0  -0.144137  0  4.005069  0  -0.067668  0  -0.081548  -0.131903  0  3.970476  0
C  C80  1  0.74615936  0.62907906  0.46917349  1  0  0.138014  0  3.692965  0  0  0.101948  0  3.951588  0  0  0.110179  0  3.968708  0  0.471291  0  0.052888  0.096748  0  3.939774  0
C  C81  1  0.25383725  0.37091911  0.53082613  1  0  0.137943  0  3.69335  0  0  0.101847  0  3.95198  0  0  0.110085  0  3.969102  0  0.471106  0  0.052815  0.096645  0  3.940165  0
C  C82  1  0.74441834  0.48536250  0.42306495  1  0  0.109435  0  3.681578  0  0  0.06771  0  3.933752  0  0  0.074905  0  3.952829  0  0.496959  0  0.053303  0.063182  0  3.920742  0
C  C83  1  0.25558705  0.51462610  0.57693375  1  0  0.109445  0  3.681493  0  0  0.06774  0  3.933666  0  0  0.074931  0  3.952749  0  0.49727  0  0.053329  0.063213  0  3.920652  0
C  C84  1  0.49172582  0.49925671  0.26913219  1  0  0.502378  0  3.996974  0  0  0.465757  0  4.281766  0  0  0.492095  0  4.29276  0  1.542547  0  0.300426  0.447765  0  4.274012  0
C  C85  1  0.50828299  0.50074514  0.73086481  1  0  0.502309  0  3.996619  0  0  0.465657  0  4.281447  0  0  0.492004  0  4.292438  0  1.542753  0  0.300367  0.447668  0  4.273691  0
C  C86  1  0.49265876  0.34332944  0.24344918  1  0  0.516633  0  3.976784  0  0  0.473685  0  4.269484  0  0  0.50022  0  4.279278  0  1.570121  0  0.303603  0.455495  0  4.262629  0
C  C87  1  0.50732037  0.65667609  0.75655471  1  0  0.516648  0  3.977022  0  0  0.473681  0  4.269713  0  0  0.500227  0  4.279506  0  1.570973  0  0.303626  0.455488  0  4.262861  0
C  C88  1  0.00368838  0.28342128  0.21522355  1  0  0.523849  0  3.988626  0  0  0.482814  0  4.276352  0  0  0.510086  0  4.286571  0  1.555706  0  0.303822  0.464196  0  4.269113  0
C  C89  1  0.99629724  0.71658498  0.78478642  1  0  0.52353  0  3.989039  0  0  0.482538  0  4.276769  0  0  0.50981  0  4.286995  0  1.554658  0  0.303808  0.46392  0  4.269527  0
C  C90  1  0.00455044  0.43053871  0.25740599  1  0  0.52004  0  3.996619  0  0  0.476419  0  4.288848  0  0  0.503556  0  4.299086  0  1.563868  0  0.301451  0.457871  0  4.281612  0
C  C91  1  0.99545711  0.56947050  0.74259884  1  0  0.519673  0  3.996999  0  0  0.476092  0  4.289272  0  0  0.503231  0  4.299509  0  1.563941  0  0.301261  0.457542  0  4.282032  0
C  C92  1  0.40413639  0.81145576  0.29084993  1  0  0.538259  0  3.976079  0  0  0.494632  0  4.267656  0  0  0.522519  0  4.276295  0  1.567912  0  0.308041  0.475575  0  4.261479  0
C  C93  1  0.59588379  0.18854830  0.70914251  1  0  0.538195  0  3.975242  0  0  0.494576  0  4.26687  0  0  0.522466  0  4.275509  0  1.567145  0  0.307988  0.475509  0  4.260697  0
C  C94  1  0.11511069  0.78414581  0.28415998  1  0  0.538522  0  3.991964  0  0  0.493904  0  4.28569  0  0  0.521581  0  4.294923  0  1.585444  0  0.314913  0.475003  0  4.279068  0
C  C95  1  0.88488797  0.21586561  0.71584178  1  0  0.538288  0  3.991763  0  0  0.493681  0  4.285503  0  0  0.521347  0  4.294738  0  1.585669  0  0.314902  0.474777  0  4.278883  0
C  C96  1  0.11771299  0.01049629  0.12111270  1  0  0.516124  0  3.98281  0  0  0.47337  0  4.272778  0  0  0.500349  0  4.282819  0  1.514804  0  0.308321  0.454939  0  4.265624  0
C  C97  1  0.88225133  0.98951292  0.87888607  1  0  0.516432  0  3.982898  0  0  0.473678  0  4.272837  0  0  0.500657  0  4.282874  0  1.5146  0  0.308637  0.455252  0  4.265684  0
C  C98  1  0.41154605  0.02331430  0.13923161  1  0  0.525681  0  3.973261  0  0  0.487103  0  4.251786  0  0  0.514045  0  4.262004  0  1.544964  0  0.314353  0.468647  0  4.244552  0
C  C99  1  0.58842315  0.97669638  0.86077215  1  0  0.526022  0  3.973097  0  0  0.487436  0  4.251617  0  0  0.514378  0  4.261835  0  1.544155  0  0.314487  0.468983  0  4.244385  0
N  N100  1  0.78921852  0.71448852  0.15646901  1  0  -0.329906  0  3.260486  0  0  -0.250087  0  3.520878  0  0  -0.270292  0  3.540786  0  -1.231817  0  -0.323532  -0.236357  0  3.506911  0
N  N101  1  0.21078680  0.28551554  0.84352844  1  0  -0.329907  0  3.260548  0  0  -0.250113  0  3.520967  0  0  -0.270314  0  3.540869  0  -1.230929  0  -0.323567  -0.236382  0  3.506998  0
N  N102  1  0.75395682  0.62263141  0.91652772  1  0  -0.238709  0  2.886994  0  0  -0.221246  0  3.169826  0  0  -0.231727  0  3.184921  0  -0.678895  0  -0.2075  -0.214237  0  3.159669  0
N  N103  1  0.24604383  0.37736676  0.08347225  1  0  -0.238686  0  2.886975  0  0  -0.221237  0  3.169798  0  0  -0.231717  0  3.184894  0  -0.678854  0  -0.207495  -0.214229  0  3.159642  0
N  N104  1  0.72961913  0.53446519  0.89733568  1  0  -0.252299  0  2.883246  0  0  -0.235314  0  3.166719  0  0  -0.245933  0  3.181413  0  -0.706661  0  -0.212349  -0.228218  0  3.156833  0
N  N105  1  0.27038044  0.46553224  0.10266334  1  0  -0.252309  0  2.883406  0  0  -0.235303  0  3.166898  0  0  -0.245928  0  3.181596  0  -0.70676  0  -0.212306  -0.228205  0  3.157012  0
N  N106  1  0.70526526  0.21930180  0.04916643  1  0  -0.327133  0  3.253483  0  0  -0.248905  0  3.518263  0  0  -0.268903  0  3.537919  0  -1.227409  0  -0.320029  -0.235331  0  3.504495  0
N  N107  1  0.29473191  0.78069857  0.95083721  1  0  -0.327098  0  3.253732  0  0  -0.248826  0  3.518512  0  0  -0.268822  0  3.538163  0  -1.227449  0  -0.320026  -0.235254  0  3.504743  0
N  N108  1  0.75597839  0.07711121  0.29898292  1  0  -0.318508  0  3.243288  0  0  -0.239546  0  3.502239  0  0  -0.259734  0  3.521794  0  -1.228461  0  -0.317013  -0.225828  0  3.488498  0
N  N109  1  0.24401665  0.92289137  0.70101949  1  0  -0.318492  0  3.242999  0  0  -0.239505  0  3.501914  0  0  -0.259697  0  3.521471  0  -1.228221  0  -0.317009  -0.225789  0  3.488176  0
N  N110  1  0.78144246  0.16912364  0.54030198  1  0  -0.26539  0  2.884288  0  0  -0.250625  0  3.160988  0  0  -0.260314  0  3.174621  0  -0.695367  0  -0.218289  -0.244136  0  3.151782  0
N  N111  1  0.21857436  0.83087084  0.45969766  1  0  -0.265303  0  2.883533  0  0  -0.250503  0  3.160221  0  0  -0.260194  0  3.173859  0  -0.695229  0  -0.218281  -0.244014  0  3.151016  0
N  N112  1  0.77572783  0.26089168  0.56090794  1  0  -0.243827  0  2.925061  0  0  -0.221935  0  3.207138  0  0  -0.233311  0  3.22297  0  -0.672416  0  -0.203131  -0.214297  0  3.196483  0
N  N113  1  0.22428947  0.73909765  0.43909550  1  0  -0.244087  0  2.925073  0  0  -0.222188  0  3.207188  0  0  -0.233583  0  3.222999  0  -0.672387  0  -0.203311  -0.214554  0  3.196527  0
N  N114  1  0.74283576  0.58219871  0.41149056  1  0  -0.321553  0  3.244087  0  0  -0.245551  0  3.510178  0  0  -0.264905  0  3.529629  0  -1.217838  0  -0.314795  -0.232385  0  3.496565  0
N  N115  1  0.25716885  0.41779210  0.58850577  1  0  -0.321507  0  3.244388  0  0  -0.245545  0  3.510551  0  0  -0.264889  0  3.529978  0  -1.218012  0  -0.314797  -0.232381  0  3.496943  0
N  N116  1  0.52506125  0.57950525  0.26247248  1  0  -0.628775  0  2.756884  0  0  -0.582051  0  3.026855  0  0  -0.604465  0  3.031987  0  -1.261241  0  -0.393484  -0.566619  0  3.023206  0
N  N117  1  0.47495701  0.42049660  0.73752354  1  0  -0.628761  0  2.756682  0  0  -0.582019  0  3.026623  0  0  -0.604426  0  3.031747  0  -1.261331  0  -0.393513  -0.566592  0  3.022973  0
N  N118  1  0.44580817  0.41385756  0.28358179  1  0  -0.465344  0  3.29075  0  0  -0.413213  0  3.55617  0  0  -0.437265  0  3.560241  0  -1.358761  0  -0.311937  -0.396466  0  3.552784  0
N  N119  1  0.55418961  0.58614871  0.71642168  1  0  -0.465331  0  3.290516  0  0  -0.413157  0  3.555914  0  0  -0.437232  0  3.560008  0  -1.359488  0  -0.311872  -0.396406  0  3.55252  0
N  N120  1  0.52812784  0.27367877  0.21228526  1  0  -0.604665  0  2.811222  0  0  -0.55767  0  3.094755  0  0  -0.579639  0  3.098305  0  -1.239466  0  -0.387996  -0.542545  0  3.09217  0
N  N121  1  0.47184776  0.72632528  0.78772113  1  0  -0.604704  0  2.811581  0  0  -0.557698  0  3.0951  0  0  -0.579674  0  3.098658  0  -1.239762  0  -0.388039  -0.542571  0  3.092516  0
N  N122  1  0.96951436  0.22752938  0.17940321  1  0  -0.640716  0  2.786219  0  0  -0.593715  0  3.064358  0  0  -0.617174  0  3.069369  0  -1.259622  0  -0.398296  -0.577595  0  3.060784  0
N  N123  1  0.03046399  0.77247835  0.82060746  1  0  -0.640621  0  2.78657  0  0  -0.593611  0  3.064689  0  0  -0.617061  0  3.069688  0  -1.258903  0  -0.398316  -0.57749  0  3.061111  0
N  N124  1  0.04723637  0.33622517  0.25924132  1  0  -0.457197  0  3.283454  0  0  -0.403144  0  3.541964  0  0  -0.42727  0  3.544988  0  -1.325947  0  -0.310288  -0.386363  0  3.539229  0
N  N125  1  0.95275518  0.66377962  0.74076854  1  0  -0.456594  0  3.283686  0  0  -0.40265  0  3.542265  0  0  -0.426768  0  3.545284  0  -1.325898  0  -0.310116  -0.385874  0  3.539539  0
N  N126  1  0.97329280  0.51554845  0.26249472  1  0  -0.632286  0  2.801113  0  0  -0.584541  0  3.085165  0  0  -0.607631  0  3.08936  0  -1.27824  0  -0.400866  -0.568618  0  3.082075  0
N  N127  1  0.02672800  0.48446149  0.73750294  1  0  -0.632265  0  2.801184  0  0  -0.58448  0  3.085151  0  0  -0.607593  0  3.089396  0  -1.277994  0  -0.400792  -0.568555  0  3.082059  0
N  N128  1  0.55357245  0.79786409  0.31080158  1  0  -0.636667  0  2.768688  0  0  -0.593662  0  3.051953  0  0  -0.61603  0  3.054693  0  -1.259713  0  -0.407851  -0.578234  0  3.049892  0
N  N129  1  0.44640716  0.20213629  0.68918565  1  0  -0.6369  0  2.767201  0  0  -0.593915  0  3.050531  0  0  -0.616297  0  3.053276  0  -1.258987  0  -0.407911  -0.578476  0  3.048468  0
N  N130  1  0.24622855  0.83307846  0.26431703  1  0  -0.46835  0  3.265977  0  0  -0.410824  0  3.522462  0  0  -0.435761  0  3.52613  0  -1.325426  0  -0.308424  -0.393508  0  3.519324  0
N  N131  1  0.75375407  0.16692486  0.73568102  1  0  -0.468047  0  3.265854  0  0  -0.410539  0  3.522368  0  0  -0.435461  0  3.526029  0  -1.325357  0  -0.308334  -0.39322  0  3.519232  0
N  N132  1  0.98660313  0.74551070  0.29785321  1  0  -0.630508  0  2.832514  0  0  -0.582623  0  3.128818  0  0  -0.605843  0  3.130272  0  -1.290722  0  -0.40137  -0.566642  0  3.12762  0
N  N133  1  0.01338171  0.25449777  0.70215223  1  0  -0.630263  0  2.832882  0  0  -0.582392  0  3.129195  0  0  -0.605598  0  3.130654  0  -1.290863  0  -0.401298  -0.566417  0  3.127997  0
N  N134  1  0.95788815  0.01139657  0.13186489  1  0  -0.615617  0  2.766572  0  0  -0.569981  0  3.046917  0  0  -0.591718  0  3.050606  0  -1.222774  0  -0.393209  -0.555021  0  3.044327  0
N  N135  1  0.04207752  0.98861264  0.86813328  1  0  -0.615714  0  2.766702  0  0  -0.570089  0  3.047027  0  0  -0.591829  0  3.050723  0  -1.221911  0  -0.393401  -0.555123  0  3.044421  0
N  N136  1  0.29044784  0.00602659  0.10100877  1  0  -0.470598  0  3.319514  0  0  -0.412077  0  3.580227  0  0  -0.436532  0  3.58434  0  -1.343155  0  -0.305065  -0.394969  0  3.576722  0
N  N137  1  0.70951513  0.99398262  0.89899383  1  0  -0.47087  0  3.319684  0  0  -0.412348  0  3.580389  0  0  -0.436797  0  3.584491  0  -1.343898  0  -0.305163  -0.395243  0  3.576886  0
N  N138  1  0.53444267  0.03612348  0.16883180  1  0  -0.600704  0  2.807916  0  0  -0.551583  0  3.085406  0  0  -0.574122  0  3.088321  0  -1.228327  0  -0.390431  -0.536087  0  3.083304  0
N  N139  1  0.46551407  0.96388426  0.83117342  1  0  -0.601006  0  2.807785  0  0  -0.551881  0  3.0853  0  0  -0.574426  0  3.088219  0  -1.227376  0  -0.390571  -0.536384  0  3.083197  0
O  O140  1  0.76170717  0.51242511  0.01685960  1  0  -0.272845  0  2.293169  0  0  -0.200812  0  2.513311  0  0  -0.218001  0  2.514083  0  -1.048955  0  -0.104224  -0.189279  0  2.5126  0
O  O141  1  0.23830539  0.48757380  0.98314026  1  0  -0.272863  0  2.29317  0  0  -0.200836  0  2.513327  0  0  -0.218008  0  2.514087  0  -1.048915  0  -0.104198  -0.189308  0  2.512622  0
O  O142  1  0.75316327  0.28060564  0.44090223  1  0  -0.265324  0  2.289094  0  0  -0.194863  0  2.50662  0  0  -0.212012  0  2.507346  0  -1.03695  0  -0.10165  -0.183243  0  2.505835  0
O  O143  1  0.24683951  0.71939032  0.55909789  1  0  -0.265414  0  2.289105  0  0  -0.194908  0  2.506637  0  0  -0.212065  0  2.507338  0  -1.037284  0  -0.101627  -0.183338  0  2.505878  0
