# generated using pymatgen
data_CuH10C4(N5Cl)2
_symmetry_space_group_name_H-M   'P 1'
_cell_length_a   5.11332927
_cell_length_b   6.30351699
_cell_length_c   8.99788694
_cell_angle_alpha   100.26796796
_cell_angle_beta   102.14742891
_cell_angle_gamma   89.46732000
_symmetry_Int_Tables_number   1
_chemical_formula_structural   CuH10C4(N5Cl)2
_chemical_formula_sum   'Cu1 H10 C4 N10 Cl2'
_cell_volume   278.86507870
_cell_formula_units_Z   1
loop_
 _symmetry_equiv_pos_site_id
 _symmetry_equiv_pos_as_xyz
  1  'x, y, z'
loop_
 _atom_site_type_symbol
 _atom_site_label
 _atom_site_symmetry_multiplicity
 _atom_site_fract_x
 _atom_site_fract_y
 _atom_site_fract_z
 _atom_site_occupancy
 _atom_site_hle17_ddec_charge
 _atom_site_hle17_ddec_spin_density
 _atom_site_hle17_ddec_sum_bond_order
 _atom_site_hle17_magmom
 _atom_site_hse06_10hf_ddec_charge
 _atom_site_hse06_10hf_ddec_spin_density
 _atom_site_hse06_10hf_ddec_sum_bond_order
 _atom_site_hse06_10hf_magmom
 _atom_site_hse06_ddec_charge
 _atom_site_hse06_ddec_spin_density
 _atom_site_hse06_ddec_sum_bond_order
 _atom_site_hse06_magmom
 _atom_site_pbe_cm5_charge
 _atom_site_pbe_ddec_charge
 _atom_site_pbe_ddec_spin_density
 _atom_site_pbe_ddec_sum_bond_order
 _atom_site_pbe_magmom
Cu  Cu0  1  0.00001013  0.00000317  0.00000047  1  0.748342  0.626854  1.906658  0.455  0.722594  0.729113  2.30862  0.573  0.810085  0.795041  2.239144  0.656  0.637257  0.673409  0.686272  2.351972  0.524
H  H1  1  0.25141381  0.36716883  0.92087513  1  0.323167  0.000259  0.917235  0.0  0.306331  0.00037  0.986248  0.0  0.314154  0.000231  0.979818  0.0  0.281585  0.30091  0.000498  0.990793  0.0
H  H2  1  0.74860554  0.63284214  0.07912934  1  0.323134  0.000259  0.917264  0.0  0.306357  0.00037  0.986224  0.0  0.31418  0.000231  0.979795  0.0  0.281607  0.300937  0.000498  0.990772  0.0
H  H3  1  0.50855652  0.26644055  0.04023579  1  0.319767  -0.000618  0.911914  0.0  0.304893  -0.000402  0.978119  0.0  0.311434  -0.000401  0.973571  0.0  0.285845  0.300414  -0.000396  0.981394  0.0
H  H4  1  0.49144318  0.73357700  0.95977388  1  0.319644  -0.000618  0.911885  0.0  0.304792  -0.000402  0.978034  0.0  0.311334  -0.000401  0.973484  0.0  0.285759  0.300312  -0.000396  0.981316  0.0
H  H5  1  0.49348737  0.25144272  0.39012575  1  0.128626  -0.000178  0.934849  0.0  0.143978  -8.2e-05  1.002059  0.0  0.145703  -9.8e-05  1.001406  0.0  0.110512  0.142484  -8.8e-05  1.002846  0.0
H  H6  1  0.50650922  0.74855225  0.60987074  1  0.128634  -0.000182  0.934819  0.0  0.143966  -8.2e-05  1.002047  0.0  0.145691  -9.8e-05  1.001394  0.0  0.110522  0.142474  -8.8e-05  1.002832  0.0
H  H7  1  0.82337083  0.13874375  0.41646859  1  0.126161  -0.000135  0.967629  0.0  0.133496  -3e-06  1.049443  0.0  0.1353  -2.7e-05  1.048341  0.0  0.109924  0.132072  -5.9e-05  1.050517  0.0
H  H8  1  0.17662170  0.86124963  0.58352834  1  0.126289  -0.000137  0.967556  0.0  0.133596  -3e-06  1.049401  0.0  0.135401  -2.7e-05  1.048303  0.0  0.109985  0.13217  -5.9e-05  1.050478  0.0
H  H9  1  0.78124122  0.41999997  0.48221969  1  0.125535  0.000337  0.941756  0.0  0.142802  0.000561  1.009302  0.0  0.14501  0.000385  1.007521  0.0  0.109786  0.141937  0.000672  1.008356  0.0
H  H10  1  0.21874954  0.58000147  0.51776470  1  0.12546  0.000333  0.941946  0.0  0.142741  0.000561  1.009478  0.0  0.144952  0.000385  1.007691  0.0  0.109782  0.141876  0.000673  1.008532  0.0
C  C11  1  0.53336195  0.21875203  0.81894186  1  0.538364  -0.001961  3.814754  0.0  0.502664  0.0004  4.102608  0.002  0.524052  -0.000643  4.112405  0.001  0.330897  0.488645  0.001281  4.095597  0.002
C  C12  1  0.46664216  0.78123321  0.18104986  1  0.538278  -0.001943  3.815031  0.0  0.502504  0.000399  4.102953  0.002  0.523892  -0.000641  4.11275  0.001  0.330795  0.48848  0.001281  4.095936  0.002
C  C13  1  0.69272553  0.25749606  0.46536278  1  -0.219199  0.00109  3.592707  0.001  -0.333913  0.001014  3.834384  0.001  -0.332561  0.000743  3.839859  0.001  -0.127228  -0.333884  0.001153  3.829282  0.001
C  C14  1  0.30726536  0.74250539  0.53463497  1  -0.219277  0.001102  3.592888  0.001  -0.333964  0.001015  3.834533  0.001  -0.332617  0.000743  3.840011  0.001  -0.127283  -0.333934  0.001153  3.829433  0.001
N  N15  1  0.46393763  0.28276751  0.68159760  1  -0.345079  0.007597  2.750716  0.009  -0.347994  0.00474  3.006095  0.005  -0.357719  0.003564  3.015217  0.004  -0.20953  -0.341191  0.005533  2.999361  0.006
N  N16  1  0.53605685  0.71722264  0.31840916  1  -0.344957  0.007579  2.750433  0.008  -0.347884  0.004742  3.005847  0.005  -0.357611  0.003564  3.014971  0.004  -0.209469  -0.341078  0.005536  2.999109  0.006
N  N17  1  0.66507117  0.21037075  0.61367027  1  0.232619  -0.000797  3.638398  0.0  0.333153  0.001114  3.856856  0.001  0.33261  9.1e-05  3.876414  0.001  -0.003338  0.333233  0.002008  3.843611  0.002
N  N18  1  0.33492591  0.78963389  0.38633304  1  0.232572  -0.000776  3.638527  0.0  0.333129  0.001114  3.856933  0.001  0.332587  9.1e-05  3.876493  0.001  -0.00334  0.333205  0.002008  3.843685  0.002
N  N19  1  0.84834666  0.10800115  0.69648909  1  -0.050247  -0.003102  2.873583  -0.003  -0.064066  -3e-05  3.143455  0.0  -0.055684  -0.00104  3.153784  -0.001  -0.066696  -0.069061  0.000764  3.13729  0.0
N  N20  1  0.15165646  0.89200507  0.30351179  1  -0.050218  -0.003103  2.873596  -0.003  -0.06407  -2.8e-05  3.143454  0.0  -0.055692  -0.001039  3.153784  -0.001  -0.066741  -0.069065  0.000765  3.137286  0.0
N  N21  1  0.76765445  0.11076419  0.82813672  1  -0.354011  0.062311  3.264177  0.079  -0.316156  0.046974  3.587702  0.062  -0.346707  0.039503  3.60449  0.056  -0.261376  -0.298709  0.05124  3.578181  0.065
N  N22  1  0.23235623  0.88923231  0.17186383  1  -0.354023  0.062314  3.264281  0.079  -0.316084  0.046978  3.587752  0.062  -0.346637  0.039506  3.604545  0.056  -0.261293  -0.298632  0.051247  3.578223  0.065
N  N23  1  0.38919864  0.24855600  0.93178254  1  -0.704257  -0.002818  3.122334  -0.001  -0.68255  -0.001765  3.369963  0.0  -0.7045  -0.002287  3.363706  -0.001  -0.593536  -0.668182  -0.001157  3.374724  0.0
N  N24  1  0.61080055  0.75144865  0.06823324  1  -0.704074  -0.002816  3.122756  -0.001  -0.68242  -0.001766  3.370355  0.0  -0.704366  -0.002288  3.364096  -0.001  -0.593429  -0.668052  -0.001157  3.375117  0.0
Cl  Cl25  1  0.02822062  0.67576724  0.83428200  1  -0.495614  0.124575  0.911008  0.152  -0.483935  0.08255  1.18235  0.107  -0.516135  0.062457  1.16467  0.088  -0.285494  -0.465373  0.095411  1.194235  0.117
Cl  Cl26  1  0.97178061  0.32424222  0.16571462  1  -0.495637  0.124574  0.911054  0.152  -0.483957  0.082548  1.18242  0.107  -0.516155  0.062454  1.164739  0.088  -0.285503  -0.465397  0.095409  1.194306  0.117
