# generated using pymatgen
data_NdCrH4C6NO6
_symmetry_space_group_name_H-M   'P 1'
_cell_length_a   6.78563396
_cell_length_b   7.22762063
_cell_length_c   19.38846596
_cell_angle_alpha   90.00018681
_cell_angle_beta   89.99992135
_cell_angle_gamma   90.00000117
_symmetry_Int_Tables_number   1
_chemical_formula_structural   NdCrH4C6NO6
_chemical_formula_sum   'Nd4 Cr4 H16 C24 N4 O24'
_cell_volume   950.88769193
_cell_formula_units_Z   4
loop_
 _symmetry_equiv_pos_site_id
 _symmetry_equiv_pos_as_xyz
  1  'x, y, z'
loop_
 _atom_site_type_symbol
 _atom_site_label
 _atom_site_symmetry_multiplicity
 _atom_site_fract_x
 _atom_site_fract_y
 _atom_site_fract_z
 _atom_site_occupancy
 _atom_site_hle17_bader_spin_density
 _atom_site_hle17_ddec_charge
 _atom_site_hle17_ddec_spin_density
 _atom_site_hle17_ddec_sum_bond_order
 _atom_site_hle17_magmom
 _atom_site_hse06_10hf_bader_spin_density
 _atom_site_hse06_10hf_ddec_charge
 _atom_site_hse06_10hf_ddec_spin_density
 _atom_site_hse06_10hf_ddec_sum_bond_order
 _atom_site_hse06_10hf_magmom
 _atom_site_hse06_bader_spin_density
 _atom_site_hse06_ddec_charge
 _atom_site_hse06_ddec_spin_density
 _atom_site_hse06_ddec_sum_bond_order
 _atom_site_hse06_magmom
 _atom_site_pbe_bader_spin_density
 _atom_site_pbe_cm5_charge
 _atom_site_pbe_ddec_charge
 _atom_site_pbe_ddec_spin_density
 _atom_site_pbe_ddec_sum_bond_order
 _atom_site_pbe_magmom
Nd  Nd0  1  0.88181695  0.13933315  0.22381180  1  0  2.346404  0  1.723622  0  0  2.22026  0  2.177632  0  0  2.269334  0  2.123597  0  0  1.478283  2.18315  0  2.218899  0
Nd  Nd1  1  0.61818255  0.86066400  0.72381060  1  0  2.346433  0  1.723593  0  0  2.22026  0  2.177633  0  0  2.269348  0  2.123582  0  0  1.47833  2.183156  0  2.218892  0
Nd  Nd2  1  0.11818002  0.63933332  0.27618982  1  0  2.346403  0  1.723614  0  0  2.220246  0  2.177622  0  0  2.269344  0  2.123552  0  0  1.478305  2.183133  0  2.218888  0
Nd  Nd3  1  0.38181691  0.36066426  0.77618789  1  0  2.346411  0  1.723647  0  0  2.220214  0  2.177748  0  0  2.269311  0  2.123678  0  0  1.478305  2.183116  0  2.219006  0
Cr  Cr4  1  0.32896946  0.11922165  0.27988959  1  0  1.860982  0  3.560107  0  0  1.92668  0  4.01413  0  0  2.009321  0  3.99003  0  0  1.344615  1.870537  0  4.031576  0
Cr  Cr5  1  0.17102746  0.88076075  0.77989252  1  0  1.860952  0  3.560069  0  0  1.926603  0  4.014158  0  0  2.009351  0  3.989931  0  0  1.344676  1.870553  0  4.031497  0
Cr  Cr6  1  0.67102605  0.61922688  0.22010840  1  0  1.860912  0  3.560105  0  0  1.926616  0  4.014133  0  0  2.009308  0  3.98997  0  0  1.344609  1.870489  0  4.031566  0
Cr  Cr7  1  0.82897200  0.38077161  0.72010754  1  0  1.860929  0  3.559962  0  0  1.926621  0  4.013991  0  0  2.009318  0  3.989822  0  0  1.344616  1.870477  0  4.031474  0
H  H8  1  0.95872235  0.84629410  0.08285625  1  0  0.085575  0  0.937932  0  0  0.09265  0  1.00301  0  0  0.095525  0  1.000722  0  0  0.125785  0.090522  0  1.004731  0
H  H9  1  0.54127475  0.15370597  0.58285887  1  0  0.085504  0  0.938066  0  0  0.092625  0  1.003093  0  0  0.095502  0  1.000802  0  0  0.125792  0.090497  0  1.004814  0
H  H10  1  0.04127610  0.34629420  0.41714254  1  0  0.085544  0  0.937996  0  0  0.092634  0  1.003056  0  0  0.09551  0  1.000767  0  0  0.125798  0.090506  0  1.004776  0
H  H11  1  0.45872323  0.65370599  0.91714247  1  0  0.085526  0  0.93802  0  0  0.09264  0  1.003059  0  0  0.095515  0  1.000773  0  0  0.125805  0.090512  0  1.00478  0
H  H12  1  0.88554400  0.82665658  0.95552354  1  0  0.128156  0  0.937737  0  0  0.138236  0  0.994156  0  0  0.141744  0  0.993149  0  0  0.114975  0.135707  0  0.995061  0
H  H13  1  0.61445608  0.17334673  0.45552594  1  0  0.128113  0  0.937678  0  0  0.13818  0  0.994119  0  0  0.141687  0  0.993115  0  0  0.114961  0.13565  0  0.995024  0
H  H14  1  0.11445693  0.32665206  0.54447543  1  0  0.128108  0  0.937695  0  0  0.138176  0  0.994136  0  0  0.141684  0  0.993132  0  0  0.114955  0.135647  0  0.995039  0
H  H15  1  0.38554090  0.67334766  0.04447573  1  0  0.128122  0  0.937677  0  0  0.138193  0  0.994112  0  0  0.1417  0  0.99311  0  0  0.114964  0.135664  0  0.995016  0
H  H16  1  0.49936211  0.21474476  0.11462692  1  0  0.091355  0  0.944375  0  0  0.100551  0  1.005037  0  0  0.103737  0  1.002054  0  0  0.124949  0.098231  0  1.00723  0
H  H17  1  0.00063840  0.78525972  0.61462827  1  0  0.091361  0  0.944334  0  0  0.100505  0  1.005048  0  0  0.103693  0  1.002065  0  0  0.124929  0.098187  0  1.007241  0
H  H18  1  0.50063634  0.71474175  0.38537170  1  0  0.091337  0  0.944361  0  0  0.100507  0  1.005054  0  0  0.103694  0  1.002072  0  0  0.124929  0.098187  0  1.007248  0
H  H19  1  0.99936401  0.28525542  0.88537219  1  0  0.091373  0  0.944334  0  0  0.100571  0  1.00499  0  0  0.103757  0  1.002008  0  0  0.124941  0.098253  0  1.007184  0
H  H20  1  0.41132001  0.21291947  0.98885908  1  0  0.1093  0  0.981505  0  0  0.116861  0  1.045069  0  0  0.118886  0  1.046954  0  0  0.109132  0.11538  0  1.043952  0
H  H21  1  0.08867758  0.78708688  0.48886018  1  0  0.109289  0  0.98149  0  0  0.116853  0  1.045061  0  0  0.118877  0  1.046944  0  0  0.109126  0.115372  0  1.043943  0
H  H22  1  0.58867798  0.71291735  0.51113975  1  0  0.109276  0  0.981549  0  0  0.11684  0  1.045113  0  0  0.118865  0  1.046999  0  0  0.109134  0.115358  0  1.043996  0
H  H23  1  0.91132235  0.28707933  0.01114008  1  0  0.109296  0  0.981479  0  0  0.116859  0  1.045054  0  0  0.118884  0  1.046941  0  0  0.109146  0.115378  0  1.043937  0
C  C24  1  0.83751485  0.92457426  0.05994631  1  0  0.143685  0  3.693849  0  0  0.115432  0  3.955292  0  0  0.121542  0  3.971073  0  0  0.060366  0.111465  0  3.944456  0
C  C25  1  0.66248234  0.07542561  0.55994620  1  0  0.143717  0  3.693741  0  0  0.115435  0  3.955173  0  0  0.121546  0  3.970953  0  0  0.060385  0.111467  0  3.944336  0
C  C26  1  0.16248360  0.42457456  0.44005463  1  0  0.143692  0  3.693783  0  0  0.115426  0  3.955231  0  0  0.121538  0  3.971011  0  0  0.060382  0.11146  0  3.944393  0
C  C27  1  0.33751418  0.57542583  0.94005453  1  0  0.14373  0  3.693859  0  0  0.115441  0  3.955315  0  0  0.12155  0  3.971099  0  0  0.060361  0.111472  0  3.944478  0
C  C28  1  0.79614625  0.91230456  0.98960109  1  0  -0.120855  0  3.666997  0  0  -0.140575  0  3.909426  0  0  -0.145831  0  3.929862  0  0  -0.070635  -0.137127  0  3.895739  0
C  C29  1  0.70385370  0.08769214  0.48960179  1  0  -0.120683  0  3.667128  0  0  -0.14043  0  3.909526  0  0  -0.145702  0  3.929978  0  0  -0.070589  -0.13698  0  3.895837  0
C  C30  1  0.20385321  0.41230804  0.51039901  1  0  -0.120675  0  3.667066  0  0  -0.140417  0  3.909455  0  0  -0.145683  0  3.9299  0  0  -0.070558  -0.136969  0  3.895765  0
C  C31  1  0.29614622  0.58769138  0.01039874  1  0  -0.120754  0  3.666921  0  0  -0.140492  0  3.909343  0  0  -0.14575  0  3.92978  0  0  -0.070603  -0.137039  0  3.895653  0
C  C32  1  0.58113789  0.13058412  0.07777092  1  0  0.134626  0  3.70897  0  0  0.109455  0  3.960149  0  0  0.115453  0  3.975287  0  0  0.056002  0.10554  0  3.949751  0
C  C33  1  0.91886366  0.86942143  0.57777113  1  0  0.134605  0  3.709014  0  0  0.109488  0  3.960169  0  0  0.115488  0  3.975304  0  0  0.056039  0.105572  0  3.949772  0
C  C34  1  0.41886204  0.63058004  0.42222915  1  0  0.134601  0  3.709018  0  0  0.10945  0  3.960204  0  0  0.115449  0  3.975344  0  0  0.056033  0.105533  0  3.949806  0
C  C35  1  0.08113875  0.36941605  0.92222943  1  0  0.134572  0  3.708994  0  0  0.109405  0  3.960187  0  0  0.115403  0  3.975327  0  0  0.055988  0.10549  0  3.949793  0
C  C36  1  0.64440660  0.02188416  0.96277020  1  0  -0.008721  0  3.698907  0  0  0.011347  0  3.92569  0  0  0.008568  0  3.945691  0  0  0.008509  0.013131  0  3.912364  0
C  C37  1  0.85559345  0.97812337  0.46277192  1  0  -0.008931  0  3.698941  0  0  0.011279  0  3.925585  0  0  0.008521  0  3.94557  0  0  0.008487  0.013068  0  3.912254  0
C  C38  1  0.35559580  0.52187949  0.53722891  1  0  -0.009004  0  3.69901  0  0  0.011214  0  3.925661  0  0  0.008451  0  3.945644  0  0  0.008383  0.013  0  3.91233  0
C  C39  1  0.14440353  0.47811602  0.03723012  1  0  -0.008928  0  3.698879  0  0  0.011259  0  3.925579  0  0  0.008487  0  3.94557  0  0  0.008421  0.013045  0  3.912249  0
C  C40  1  0.53216986  0.12899132  0.00821205  1  0  -0.115758  0  3.692389  0  0  -0.135038  0  3.932102  0  0  -0.139991  0  3.953493  0  0  -0.07298  -0.13186  0  3.9179  0
C  C41  1  0.96783490  0.87101225  0.50821430  1  0  -0.115708  0  3.692249  0  0  -0.135031  0  3.931909  0  0  -0.13999  0  3.953296  0  0  -0.072958  -0.131854  0  3.917706  0
C  C42  1  0.46783448  0.62899061  0.49178595  1  0  -0.115662  0  3.692269  0  0  -0.134985  0  3.931945  0  0  -0.139944  0  3.953334  0  0  -0.072941  -0.131807  0  3.917744  0
C  C43  1  0.03216899  0.37100747  0.99178678  1  0  -0.115649  0  3.6923  0  0  -0.134975  0  3.932008  0  0  -0.139929  0  3.953398  0  0  -0.072927  -0.131797  0  3.917807  0
C  C44  1  0.60607872  0.03670336  0.88658317  1  0  0.719003  0  3.8623  0  0  0.672172  0  4.155403  0  0  0.707285  0  4.143389  0  0  0.243653  0.648335  0  4.16259  0
C  C45  1  0.89392457  0.96329520  0.38658588  1  0  0.719317  0  3.861941  0  0  0.672368  0  4.155186  0  0  0.707472  0  4.143178  0  0  0.243679  0.648526  0  4.162372  0
C  C46  1  0.39392516  0.53670766  0.61341441  1  0  0.719212  0  3.862123  0  0  0.672261  0  4.155377  0  0  0.707366  0  4.143369  0  0  0.243663  0.648423  0  4.162559  0
C  C47  1  0.10607977  0.46329819  0.11341666  1  0  0.719233  0  3.862011  0  0  0.672296  0  4.155245  0  0  0.707406  0  4.143228  0  0  0.243699  0.648457  0  4.162432  0
N  N48  1  0.73523840  0.03483073  0.10307762  1  0  -0.40556  0  3.237424  0  0  -0.35138  0  3.50593  0  0  -0.363914  0  3.520555  0  0  -0.379249  -0.342597  0  3.495742  0
N  N49  1  0.76476305  0.96517090  0.60308009  1  0  -0.405549  0  3.237273  0  0  -0.351386  0  3.505782  0  0  -0.363919  0  3.520405  0  0  -0.379311  -0.342605  0  3.495594  0
N  N50  1  0.26476152  0.53482920  0.39692078  1  0  -0.405506  0  3.237382  0  0  -0.351333  0  3.505893  0  0  -0.363867  0  3.520516  0  0  -0.379284  -0.342551  0  3.495702  0
N  N51  1  0.23523936  0.46516806  0.89692162  1  0  -0.405524  0  3.237386  0  0  -0.351352  0  3.505923  0  0  -0.363887  0  3.520547  0  0  -0.379235  -0.34257  0  3.495736  0
O  O52  1  0.64498010  0.89920143  0.84844348  1  0  -0.700968  0  2.002283  0  0  -0.65394  0  2.251135  0  0  -0.677773  0  2.238396  0  0  -0.368029  -0.636989  0  2.259326  0
O  O53  1  0.85502334  0.10080787  0.34844361  1  0  -0.70111  0  2.00207  0  0  -0.654045  0  2.250938  0  0  -0.677876  0  2.238207  0  0  -0.368007  -0.637093  0  2.259134  0
O  O54  1  0.35502526  0.39919507  0.65155660  1  0  -0.701051  0  2.002038  0  0  -0.653999  0  2.250932  0  0  -0.677835  0  2.2382  0  0  -0.368049  -0.637049  0  2.259125  0
O  O55  1  0.14498248  0.60079866  0.15155642  1  0  -0.701079  0  2.002209  0  0  -0.654  0  2.251073  0  0  -0.677832  0  2.238335  0  0  -0.368027  -0.637051  0  2.25927  0
O  O56  1  0.53668510  0.19114552  0.86640015  1  0  -0.763013  0  2.063696  0  0  -0.715447  0  2.319093  0  0  -0.741703  0  2.308462  0  0  -0.403003  -0.696484  0  2.325592  0
O  O57  1  0.96331238  0.80886117  0.36640160  1  0  -0.763096  0  2.063647  0  0  -0.715511  0  2.319096  0  0  -0.741762  0  2.308469  0  0  -0.403043  -0.696548  0  2.325593  0
O  O58  1  0.46331289  0.69114170  0.63359814  1  0  -0.763037  0  2.063776  0  0  -0.71545  0  2.319229  0  0  -0.741703  0  2.308606  0  0  -0.402964  -0.696486  0  2.325721  0
O  O59  1  0.03668607  0.30885465  0.13359971  1  0  -0.763092  0  2.063607  0  0  -0.715516  0  2.319055  0  0  -0.741767  0  2.308427  0  0  -0.40302  -0.696547  0  2.325546  0
O  O60  1  0.53420018  0.15261558  0.23616150  1  0  -0.854026  0  1.481149  0  0  -0.867654  0  1.783  0  0  -0.897507  0  1.772895  0  0  -0.59785  -0.846972  0  1.790286  0
O  O61  1  0.96579927  0.84738444  0.73616115  1  0  -0.854008  0  1.48111  0  0  -0.867614  0  1.782953  0  0  -0.897514  0  1.772846  0  0  -0.597872  -0.846948  0  1.790211  0
O  O62  1  0.46579827  0.65261427  0.26383859  1  0  -0.854014  0  1.481163  0  0  -0.867635  0  1.782998  0  0  -0.897518  0  1.772903  0  0  -0.597868  -0.846946  0  1.790271  0
O  O63  1  0.03420461  0.34738598  0.76383887  1  0  -0.853996  0  1.48103  0  0  -0.867614  0  1.782878  0  0  -0.897495  0  1.772767  0  0  -0.597873  -0.846931  0  1.790163  0
O  O64  1  0.37549259  0.06012785  0.35790913  1  0  -0.622776  0  1.238911  0  0  -0.638605  0  1.472841  0  0  -0.660086  0  1.467134  0  0  -0.457944  -0.624294  0  1.477203  0
O  O65  1  0.12450697  0.93986906  0.85791009  1  0  -0.622689  0  1.23892  0  0  -0.638496  0  1.472858  0  0  -0.660007  0  1.467123  0  0  -0.457924  -0.624215  0  1.477203  0
O  O66  1  0.62450438  0.56012687  0.14208931  1  0  -0.622687  0  1.238964  0  0  -0.638534  0  1.472924  0  0  -0.660029  0  1.467205  0  0  -0.457903  -0.624232  0  1.477287  0
O  O67  1  0.87549249  0.43987371  0.64209005  1  0  -0.62275  0  1.239014  0  0  -0.638585  0  1.472969  0  0  -0.660079  0  1.467246  0  0  -0.457941  -0.624272  0  1.477337  0
O  O68  1  0.18487983  0.95722479  0.24103508  1  0  -1.030497  0  1.603141  0  0  -1.010112  0  1.888213  0  0  -1.041472  0  1.874821  0  0  -0.676661  -0.987651  0  1.897369  0
O  O69  1  0.31512461  0.04277803  0.74103434  1  0  -1.030594  0  1.602935  0  0  -1.010202  0  1.888012  0  0  -1.041594  0  1.874589  0  0  -0.676689  -0.987761  0  1.897152  0
O  O70  1  0.81512157  0.45722215  0.25896539  1  0  -1.03053  0  1.603031  0  0  -1.010133  0  1.888062  0  0  -1.041515  0  1.87467  0  0  -0.676667  -0.987675  0  1.897219  0
O  O71  1  0.68487485  0.54278084  0.75896583  1  0  -1.030516  0  1.602955  0  0  -1.010131  0  1.888036  0  0  -1.041505  0  1.874616  0  0  -0.676637  -0.987673  0  1.8972  0
O  O72  1  0.18427259  0.30664708  0.27679873  1  0  -0.996906  0  1.652838  0  0  -0.990877  0  1.95574  0  0  -1.023108  0  1.946597  0  0  -0.639955  -0.968018  0  1.961919  0
O  O73  1  0.31572434  0.69335328  0.77679826  1  0  -0.996972  0  1.653258  0  0  -0.990884  0  1.956121  0  0  -1.023129  0  1.946926  0  0  -0.639989  -0.968043  0  1.962263  0
O  O74  1  0.81572733  0.80664681  0.22320104  1  0  -0.99691  0  1.652902  0  0  -0.990902  0  1.95585  0  0  -1.023139  0  1.946684  0  0  -0.63996  -0.968038  0  1.962012  0
O  O75  1  0.68427365  0.19335310  0.72320106  1  0  -0.996866  0  1.652862  0  0  -0.990828  0  1.955788  0  0  -1.023068  0  1.946625  0  0  -0.639959  -0.967975  0  1.961975  0
