# generated using pymatgen
data_CuH4C6N5O
_symmetry_space_group_name_H-M   'P 1'
_cell_length_a   9.52189430
_cell_length_b   9.52240879
_cell_length_c   10.21038881
_cell_angle_alpha   98.08873814
_cell_angle_beta   108.66455047
_cell_angle_gamma   120.40136125
_symmetry_Int_Tables_number   1
_chemical_formula_structural   CuH4C6N5O
_chemical_formula_sum   'Cu4 H16 C24 N20 O4'
_cell_volume   702.69736173
_cell_formula_units_Z   4
loop_
 _symmetry_equiv_pos_site_id
 _symmetry_equiv_pos_as_xyz
  1  'x, y, z'
loop_
 _atom_site_type_symbol
 _atom_site_label
 _atom_site_symmetry_multiplicity
 _atom_site_fract_x
 _atom_site_fract_y
 _atom_site_fract_z
 _atom_site_occupancy
 _atom_site_pbe_bader_spin_density
 _atom_site_pbe_cm5_charge
 _atom_site_pbe_ddec_charge
 _atom_site_pbe_ddec_spin_density
 _atom_site_pbe_ddec_sum_bond_order
 _atom_site_pbe_magmom
Cu  Cu0  1  0.64333710  0.60713000  0.19421406  1  0  0.568747  0.276921  0  2.442868  0
Cu  Cu1  1  0.91288154  0.44907018  0.30577270  1  0  0.568761  0.277737  0  2.441825  0
Cu  Cu2  1  0.35666181  0.39286884  0.80578581  1  0  0.56871  0.276903  0  2.442718  0
Cu  Cu3  1  0.08711707  0.55092999  0.69422432  1  0  0.568787  0.277804  0  2.441796  0
H  H4  1  0.72120834  0.90687902  0.97740593  1  0  0.129856  0.125359  0  0.990368  0
H  H5  1  0.42960860  0.74388159  0.52264962  1  0  0.129957  0.12574  0  0.990358  0
H  H6  1  0.27879230  0.09311721  0.02259411  1  0  0.129839  0.125344  0  0.990337  0
H  H7  1  0.57039494  0.25612120  0.47735119  1  0  0.12996  0.125752  0  0.990364  0
H  H8  1  0.68958733  0.81727126  0.71730008  1  0  0.113038  0.121063  0  1.019038  0
H  H9  1  0.60011804  0.97245267  0.78272836  1  0  0.112746  0.121007  0  1.018763  0
H  H10  1  0.31041509  0.18273152  0.28270138  1  0  0.113039  0.121059  0  1.019069  0
H  H11  1  0.39987591  0.02754351  0.21727162  1  0  0.11274  0.120978  0  1.018774  0
H  H12  1  0.98887135  0.60525833  0.87137107  1  0  0.104892  0.115144  0  1.053251  0
H  H13  1  0.23345550  0.11705793  0.62863474  1  0  0.104997  0.115012  0  1.052436  0
H  H14  1  0.01112870  0.39474054  0.12862621  1  0  0.104892  0.115134  0  1.053293  0
H  H15  1  0.76653957  0.88293827  0.37136459  1  0  0.104997  0.114997  0  1.052431  0
H  H16  1  0.01687163  0.70924650  0.12516068  1  0  0.123897  0.122172  0  1.048941  0
H  H17  1  0.08374158  0.89125757  0.37481787  1  0  0.124392  0.122199  0  1.048748  0
H  H18  1  0.98312760  0.29075105  0.87483716  1  0  0.123891  0.122179  0  1.048938  0
H  H19  1  0.91625655  0.10873999  0.62517865  1  0  0.124403  0.122218  0  1.048709  0
C  C20  1  0.77529925  0.83901780  0.94439040  1  0  0.025344  -0.066481  0  3.894615  0
C  C21  1  0.39465865  0.83089153  0.55566310  1  0  0.024798  -0.068233  0  3.895742  0
C  C22  1  0.22470156  0.16098235  0.05561120  1  0  0.025371  -0.066421  0  3.894603  0
C  C23  1  0.60534407  0.16910993  0.44433925  1  0  0.024819  -0.068219  0  3.895782  0
C  C24  1  0.76017834  0.78898510  0.80422916  1  0  -0.076689  -0.133421  0  3.987441  0
C  C25  1  0.48477547  0.95596693  0.69582169  1  0  -0.075832  -0.13267  0  3.985545  0
C  C26  1  0.23982329  0.21101637  0.19577090  1  0  -0.076717  -0.133463  0  3.987499  0
C  C27  1  0.51522263  0.04403060  0.30417775  1  0  -0.075812  -0.132622  0  3.985522  0
C  C28  1  0.83830325  0.70514259  0.77302006  1  0  0.003456  0.043977  0  4.004324  0
C  C29  1  0.43188943  0.06507296  0.72699076  1  0  0.004071  0.044096  0  3.999722  0
C  C30  1  0.16169616  0.29485888  0.22697835  1  0  0.003446  0.043973  0  4.004438  0
C  C31  1  0.56810977  0.93492455  0.27301195  1  0  0.004059  0.044075  0  3.999713  0
C  C32  1  0.92894374  0.67299868  0.88939758  1  0  -0.075348  -0.116824  0  3.954195  0
C  C33  1  0.28323173  0.03916152  0.61063277  1  0  -0.075177  -0.114901  0  3.95299  0
C  C34  1  0.07105790  0.32700280  0.11060150  1  0  -0.075327  -0.116762  0  3.954334  0
C  C35  1  0.71676444  0.96083467  0.38936885  1  0  -0.075183  -0.114873  0  3.953026  0
C  C36  1  0.94461015  0.72670395  0.02911899  1  0  0.027859  -0.048958  0  3.850764  0
C  C37  1  0.19726382  0.91510646  0.47088959  1  0  0.026656  -0.051188  0  3.85213  0
C  C38  1  0.05538956  0.27329620  0.97088031  1  0  0.027839  -0.04902  0  3.850807  0
C  C39  1  0.80273651  0.08489109  0.52911053  1  0  0.02666  -0.051193  0  3.852167  0
C  C40  1  0.82619355  0.65822589  0.62618675  1  0  0.215967  0.244888  0  4.019318  0
C  C41  1  0.53184815  0.19991118  0.87379356  1  0  0.216475  0.247367  0  4.014843  0
C  C42  1  0.17380919  0.34177560  0.37381267  1  0  0.215977  0.244818  0  4.019325  0
C  C43  1  0.46815026  0.80008504  0.12620679  1  0  0.216469  0.247335  0  4.014853  0
N  N44  1  0.86805733  0.80886286  0.05641253  1  0  -0.123222  0.314347  0  3.986453  0
N  N45  1  0.25234875  0.81145162  0.44362869  1  0  -0.122861  0.31588  0  3.986325  0
N  N46  1  0.13194270  0.19113599  0.94358670  1  0  -0.123198  0.314375  0  3.986374  0
N  N47  1  0.74765350  0.18854724  0.55637219  1  0  -0.122861  0.315882  0  3.986411  0
N  N48  1  0.92233530  0.60721511  0.58839863  1  0  -0.265839  -0.205312  0  3.578913  0
N  N49  1  0.51871626  0.33389285  0.91157495  1  0  -0.267609  -0.209056  0  3.581124  0
N  N50  1  0.07766791  0.39278897  0.41160422  1  0  -0.26587  -0.205273  0  3.57893  0
N  N51  1  0.48128150  0.66610596  0.08842750  1  0  -0.267625  -0.209057  0  3.581117  0
N  N52  1  0.86726242  0.57765080  0.44240613  1  0  -0.159213  -0.061217  0  3.568506  0
N  N53  1  0.63524559  0.42487815  0.05755429  1  0  -0.158836  -0.058693  0  3.567905  0
N  N54  1  0.13273778  0.42235197  0.55759465  1  0  -0.159171  -0.061216  0  3.568636  0
N  N55  1  0.36475159  0.57512330  0.94244443  1  0  -0.158817  -0.058667  0  3.567774  0
N  N56  1  0.74434910  0.61271822  0.39542322  1  0  -0.159293  -0.027331  0  3.670018  0
N  N57  1  0.71726082  0.34891954  0.10452704  1  0  -0.158873  -0.028784  0  3.671755  0
N  N58  1  0.25565112  0.38728457  0.60457463  1  0  -0.159278  -0.027315  0  3.66989  0
N  N59  1  0.28273587  0.65107930  0.89547118  1  0  -0.158927  -0.028845  0  3.6719  0
N  N60  1  0.71623322  0.66268195  0.50745376  1  0  -0.214159  -0.250941  0  3.174637  0
N  N61  1  0.65508487  0.20870878  0.99250615  1  0  -0.213554  -0.250508  0  3.174508  0
N  N62  1  0.28376842  0.33731954  0.49254434  1  0  -0.214161  -0.250918  0  3.174644  0
N  N63  1  0.34491276  0.79128615  0.00749183  1  0  -0.213528  -0.250482  0  3.174591  0
O  O64  1  0.87972600  0.85511894  0.18882166  1  0  -0.239419  -0.453753  0  2.057081  0
O  O65  1  0.16626384  0.69071085  0.31121521  1  0  -0.239978  -0.454653  0  2.055308  0
O  O66  1  0.12027416  0.14487468  0.81117788  1  0  -0.239432  -0.453779  0  2.057066  0
O  O67  1  0.83374032  0.30928934  0.68878544  1  0  -0.239995  -0.454685  0  2.055317  0
