# generated using pymatgen
data_SrH13C15NO5
_symmetry_space_group_name_H-M   'P 1'
_cell_length_a   6.80659160
_cell_length_b   14.85173581
_cell_length_c   14.76293340
_cell_angle_alpha   90.00020162
_cell_angle_beta   89.99990377
_cell_angle_gamma   90.00009286
_symmetry_Int_Tables_number   1
_chemical_formula_structural   SrH13C15NO5
_chemical_formula_sum   'Sr4 H52 C60 N4 O20'
_cell_volume   1492.38051212
_cell_formula_units_Z   4
loop_
 _symmetry_equiv_pos_site_id
 _symmetry_equiv_pos_as_xyz
  1  'x, y, z'
loop_
 _atom_site_type_symbol
 _atom_site_label
 _atom_site_symmetry_multiplicity
 _atom_site_fract_x
 _atom_site_fract_y
 _atom_site_fract_z
 _atom_site_occupancy
 _atom_site_hle17_bader_spin_density
 _atom_site_hle17_ddec_charge
 _atom_site_hle17_ddec_spin_density
 _atom_site_hle17_ddec_sum_bond_order
 _atom_site_hle17_magmom
 _atom_site_hse06_10hf_bader_spin_density
 _atom_site_hse06_10hf_ddec_charge
 _atom_site_hse06_10hf_ddec_spin_density
 _atom_site_hse06_10hf_ddec_sum_bond_order
 _atom_site_hse06_10hf_magmom
 _atom_site_hse06_bader_spin_density
 _atom_site_hse06_ddec_charge
 _atom_site_hse06_ddec_spin_density
 _atom_site_hse06_ddec_sum_bond_order
 _atom_site_hse06_magmom
 _atom_site_pbe_bader_spin_density
 _atom_site_pbe_cm5_charge
 _atom_site_pbe_ddec_charge
 _atom_site_pbe_ddec_spin_density
 _atom_site_pbe_ddec_sum_bond_order
 _atom_site_pbe_magmom
Sr  Sr0  1  0.85361161  0.19194989  0.55112286  1  0  1.613853  0  1.151479  0  0  1.475432  0  1.527535  0  0  1.515812  0  1.479759  0  0  0.992375  1.445764  0  1.561567  0
Sr  Sr1  1  0.64639094  0.80804998  0.05112041  1  0  1.613815  0  1.151601  0  0  1.475419  0  1.527607  0  0  1.515803  0  1.479828  0  0  0.992349  1.445739  0  1.56166  0
Sr  Sr2  1  0.14638998  0.69195114  0.94887830  1  0  1.613808  0  1.151613  0  0  1.475394  0  1.527643  0  0  1.515779  0  1.479866  0  0  0.992353  1.445711  0  1.561686  0
Sr  Sr3  1  0.35360844  0.30805043  0.44887935  1  0  1.61383  0  1.151573  0  0  1.475402  0  1.527651  0  0  1.515789  0  1.47987  0  0  0.992349  1.445719  0  1.56171  0
H  H4  1  0.83991979  0.33365805  0.25075801  1  0  0.092423  0  0.95858  0  0  0.104043  0  1.020244  0  0  0.107171  0  1.018564  0  0  0.106104  0.10176  0  1.021629  0
H  H5  1  0.66007910  0.66633916  0.75076228  1  0  0.092428  0  0.958602  0  0  0.10407  0  1.020263  0  0  0.107183  0  1.018597  0  0  0.106067  0.101745  0  1.021666  0
H  H6  1  0.16007674  0.83366130  0.24923575  1  0  0.09239  0  0.958648  0  0  0.10403  0  1.020301  0  0  0.107143  0  1.018636  0  0  0.106059  0.101697  0  1.021697  0
H  H7  1  0.33992973  0.16634227  0.74924014  1  0  0.092417  0  0.958623  0  0  0.104051  0  1.02028  0  0  0.107161  0  1.018618  0  0  0.106051  0.101696  0  1.021673  0
H  H8  1  0.89026112  0.44824109  0.12851081  1  0  0.095613  0  0.961611  0  0  0.106004  0  1.023726  0  0  0.109209  0  1.022302  0  0  0.102828  0.103738  0  1.024746  0
H  H9  1  0.60973234  0.55175502  0.62851539  1  0  0.095598  0  0.961591  0  0  0.105944  0  1.023749  0  0  0.10915  0  1.022322  0  0  0.102745  0.103612  0  1.024797  0
H  H10  1  0.10972994  0.94824406  0.37148403  1  0  0.095604  0  0.961608  0  0  0.105952  0  1.023764  0  0  0.109159  0  1.022337  0  0  0.102789  0.10368  0  1.024796  0
H  H11  1  0.39027316  0.05175859  0.87148731  1  0  0.095637  0  0.961562  0  0  0.106011  0  1.023694  0  0  0.109219  0  1.022265  0  0  0.102794  0.103726  0  1.02474  0
H  H12  1  0.88118400  0.50002765  0.52709294  1  0  0.103014  0  0.961197  0  0  0.112285  0  1.023751  0  0  0.115258  0  1.02252  0  0  0.106888  0.110133  0  1.024777  0
H  H13  1  0.61880541  0.49997281  0.02709891  1  0  0.102949  0  0.961185  0  0  0.112232  0  1.023725  0  0  0.115204  0  1.022496  0  0  0.106851  0.110028  0  1.024791  0
H  H14  1  0.11881396  0.00002936  0.97290145  1  0  0.103006  0  0.961125  0  0  0.112286  0  1.023663  0  0  0.115257  0  1.022433  0  0  0.106883  0.110119  0  1.024705  0
H  H15  1  0.38118847  0.99997269  0.47290451  1  0  0.102984  0  0.961171  0  0  0.112249  0  1.023724  0  0  0.115221  0  1.022493  0  0  0.106856  0.110063  0  1.024779  0
H  H16  1  0.89057217  0.66199398  0.56735486  1  0  0.087714  0  0.945853  0  0  0.102855  0  0.998301  0  0  0.105423  0  0.99775  0  0  0.100222  0.101046  0  0.998762  0
H  H17  1  0.60941122  0.33800730  0.06736163  1  0  0.087697  0  0.945748  0  0  0.102879  0  0.99816  0  0  0.105446  0  0.997612  0  0  0.10019  0.101017  0  0.998679  0
H  H18  1  0.10941902  0.16199554  0.93263942  1  0  0.087677  0  0.945847  0  0  0.102873  0  0.998241  0  0  0.105441  0  0.997692  0  0  0.100219  0.101034  0  0.998714  0
H  H19  1  0.39057211  0.83800733  0.43264231  1  0  0.087692  0  0.945897  0  0  0.102858  0  0.998323  0  0  0.105426  0  0.997772  0  0  0.10015  0.100966  0  0.998836  0
H  H20  1  0.89310544  0.77852964  0.44483877  1  0  0.088172  0  0.952298  0  0  0.103796  0  1.005064  0  0  0.106139  0  1.004799  0  0  0.099483  0.102147  0  1.005291  0
H  H21  1  0.60688688  0.22147027  0.94484489  1  0  0.088176  0  0.95222  0  0  0.103782  0  1.005014  0  0  0.106125  0  1.004749  0  0  0.099433  0.102079  0  1.005254  0
H  H22  1  0.10689237  0.27853189  0.05515683  1  0  0.088227  0  0.952354  0  0  0.103821  0  1.005143  0  0  0.106164  0  1.004879  0  0  0.09949  0.102154  0  1.005388  0
H  H23  1  0.39310599  0.72147167  0.55515840  1  0  0.088169  0  0.952262  0  0  0.103787  0  1.005042  0  0  0.106131  0  1.004775  0  0  0.099446  0.102104  0  1.005305  0
H  H24  1  0.88896260  0.73237313  0.28379684  1  0  0.10667  0  0.985734  0  0  0.114616  0  1.049709  0  0  0.118605  0  1.046879  0  0  0.105878  0.11168  0  1.051935  0
H  H25  1  0.61103911  0.26762621  0.78380245  1  0  0.106765  0  0.985692  0  0  0.114679  0  1.049694  0  0  0.118665  0  1.046872  0  0  0.105908  0.111785  0  1.051868  0
H  H26  1  0.11103945  0.23237528  0.21619791  1  0  0.10672  0  0.985731  0  0  0.114642  0  1.049725  0  0  0.118629  0  1.046902  0  0  0.1059  0.111732  0  1.051921  0
H  H27  1  0.38896715  0.76762817  0.71620033  1  0  0.106724  0  0.985738  0  0  0.114655  0  1.049733  0  0  0.118644  0  1.046905  0  0  0.105898  0.111744  0  1.051929  0
H  H28  1  0.87806950  0.88109273  0.83130212  1  0  0.115694  0  0.938011  0  0  0.13397  0  1.003532  0  0  0.135579  0  1.002236  0  0  0.12181  0.132656  0  1.004678  0
H  H29  1  0.62193351  0.11890678  0.33130269  1  0  0.115678  0  0.938054  0  0  0.133947  0  1.003567  0  0  0.135558  0  1.002266  0  0  0.121829  0.132644  0  1.004708  0
H  H30  1  0.12193128  0.38109270  0.66869700  1  0  0.115718  0  0.938044  0  0  0.13399  0  1.003552  0  0  0.135601  0  1.002252  0  0  0.12182  0.132674  0  1.004702  0
H  H31  1  0.37806814  0.61890789  0.16869845  1  0  0.115694  0  0.937986  0  0  0.133954  0  1.003527  0  0  0.135569  0  1.002221  0  0  0.121832  0.132655  0  1.004669  0
H  H32  1  0.02246362  0.81620896  0.75416523  1  0  0.102931  0  0.950619  0  0  0.12154  0  1.016175  0  0  0.122806  0  1.015242  0  0  0.109783  0.120558  0  1.016939  0
H  H33  1  0.47753991  0.18378857  0.25416304  1  0  0.102925  0  0.950606  0  0  0.121519  0  1.016172  0  0  0.122789  0  1.015233  0  0  0.109761  0.120528  0  1.016948  0
H  H34  1  0.97753841  0.31620915  0.74583433  1  0  0.102947  0  0.950621  0  0  0.121554  0  1.01617  0  0  0.122819  0  1.015237  0  0  0.109787  0.120576  0  1.016933  0
H  H35  1  0.52246197  0.68379073  0.24583697  1  0  0.102907  0  0.950618  0  0  0.121509  0  1.016185  0  0  0.122774  0  1.015252  0  0  0.109775  0.120541  0  1.016941  0
H  H36  1  0.75957409  0.81053447  0.75071169  1  0  0.093887  0  0.95468  0  0  0.111824  0  1.024083  0  0  0.112037  0  1.024299  0  0  0.102069  0.111596  0  1.024024  0
H  H37  1  0.74043068  0.18946072  0.25070902  1  0  0.093879  0  0.954642  0  0  0.11182  0  1.024025  0  0  0.112034  0  1.024244  0  0  0.102061  0.111589  0  1.023966  0
H  H38  1  0.24042791  0.31053750  0.74928921  1  0  0.093915  0  0.954688  0  0  0.111837  0  1.024097  0  0  0.112052  0  1.024314  0  0  0.102076  0.111624  0  1.024025  0
H  H39  1  0.25957269  0.68946405  0.24929168  1  0  0.09387  0  0.954681  0  0  0.111821  0  1.024053  0  0  0.112037  0  1.024273  0  0  0.102073  0.111609  0  1.023981  0
H  H40  1  0.89346845  0.96734212  0.56115135  1  0  0.113396  0  0.945419  0  0  0.132206  0  1.008853  0  0  0.134394  0  1.006461  0  0  0.118482  0.130517  0  1.010717  0
H  H41  1  0.60653553  0.03265308  0.06115094  1  0  0.113411  0  0.945468  0  0  0.132166  0  1.008937  0  0  0.134354  0  1.006546  0  0  0.118486  0.130488  0  1.0108  0
H  H42  1  0.10651795  0.46734302  0.93885010  1  0  0.113424  0  0.945406  0  0  0.132239  0  1.008823  0  0  0.134427  0  1.006429  0  0  0.118513  0.130531  0  1.010707  0
H  H43  1  0.39346581  0.53265785  0.43884988  1  0  0.113384  0  0.945447  0  0  0.132216  0  1.008842  0  0  0.134405  0  1.006447  0  0  0.118496  0.130539  0  1.010708  0
H  H44  1  0.75614840  0.86725818  0.58409314  1  0  0.087473  0  0.975232  0  0  0.106881  0  1.042765  0  0  0.105523  0  1.045971  0  0  0.096818  0.107725  0  1.040675  0
H  H45  1  0.74385550  0.13273777  0.08409502  1  0  0.087521  0  0.975277  0  0  0.106897  0  1.042815  0  0  0.10554  0  1.04602  0  0  0.096819  0.107755  0  1.040717  0
H  H46  1  0.24384352  0.36725911  0.91590728  1  0  0.087593  0  0.97523  0  0  0.106956  0  1.042782  0  0  0.1056  0  1.045987  0  0  0.096836  0.107802  0  1.040693  0
H  H47  1  0.25614473  0.63274168  0.41590752  1  0  0.087483  0  0.975239  0  0  0.106885  0  1.042768  0  0  0.105527  0  1.045973  0  0  0.096826  0.107746  0  1.040668  0
H  H48  1  0.01896151  0.86518206  0.58842929  1  0  0.08915  0  0.973507  0  0  0.108754  0  1.040119  0  0  0.107548  0  1.043209  0  0  0.098042  0.109483  0  1.038127  0
H  H49  1  0.48103967  0.13481420  0.08843166  1  0  0.089096  0  0.973529  0  0  0.108722  0  1.040104  0  0  0.107517  0  1.043194  0  0  0.098057  0.109468  0  1.038102  0
H  H50  1  0.98102746  0.36518083  0.91156706  1  0  0.089244  0  0.97345  0  0  0.108824  0  1.040072  0  0  0.107619  0  1.043161  0  0  0.098075  0.10956  0  1.038075  0
H  H51  1  0.51895910  0.63481897  0.41157088  1  0  0.089096  0  0.973542  0  0  0.108681  0  1.040182  0  0  0.107475  0  1.043271  0  0  0.098027  0.109433  0  1.038174  0
H  H52  1  0.85926714  0.02052727  0.80086289  1  0  0.036966  0  0.903015  0  0  0.050283  0  0.964512  0  0  0.051809  0  0.960152  0  0  0.124962  0.048957  0  0.967826  0
H  H53  1  0.64073011  0.97946944  0.30086377  1  0  0.037166  0  0.902878  0  0  0.050441  0  0.964409  0  0  0.051942  0  0.960083  0  0  0.125056  0.049153  0  0.967695  0
H  H54  1  0.14073090  0.52052899  0.69913834  1  0  0.036965  0  0.903059  0  0  0.050291  0  0.964533  0  0  0.051793  0  0.960203  0  0  0.124981  0.048984  0  0.967831  0
H  H55  1  0.35926841  0.47947036  0.19913863  1  0  0.036977  0  0.903032  0  0  0.050309  0  0.964505  0  0  0.051816  0  0.960163  0  0  0.125001  0.049015  0  0.967811  0
C  C56  1  0.85801814  0.35540733  0.42655576  1  0  0.68641  0  3.914234  0  0  0.634128  0  4.211877  0  0  0.668917  0  4.201555  0  0  0.227219  0.610453  0  4.218119  0
C  C57  1  0.64198453  0.64459318  0.92655861  1  0  0.686622  0  3.9141  0  0  0.634303  0  4.211753  0  0  0.669122  0  4.201429  0  0  0.227243  0.610612  0  4.217969  0
C  C58  1  0.14199022  0.85540794  0.07344011  1  0  0.686608  0  3.914199  0  0  0.634292  0  4.211854  0  0  0.66911  0  4.201531  0  0  0.227264  0.61062  0  4.218091  0
C  C59  1  0.35801836  0.14459434  0.57344306  1  0  0.686492  0  3.914329  0  0  0.634169  0  4.212002  0  0  0.668978  0  4.201682  0  0  0.227219  0.610515  0  4.218202  0
C  C60  1  0.91917603  0.62293249  0.13983135  1  0  0.686407  0  3.918642  0  0  0.635859  0  4.219364  0  0  0.67015  0  4.209892  0  0  0.219768  0.612579  0  4.225082  0
C  C61  1  0.58082767  0.37706433  0.63983804  1  0  0.686569  0  3.918391  0  0  0.636204  0  4.218953  0  0  0.670495  0  4.209473  0  0  0.219891  0.612935  0  4.224664  0
C  C62  1  0.08082417  0.12293646  0.36016438  1  0  0.686549  0  3.918402  0  0  0.636171  0  4.218997  0  0  0.670464  0  4.209519  0  0  0.219896  0.612895  0  4.224713  0
C  C63  1  0.41918191  0.87706682  0.86016580  1  0  0.68629  0  3.918606  0  0  0.635851  0  4.21922  0  0  0.670142  0  4.209749  0  0  0.219777  0.612578  0  4.224934  0
C  C64  1  0.86312962  0.42966790  0.35799092  1  0  -0.082098  0  3.699222  0  0  -0.067608  0  3.937783  0  0  -0.071433  0  3.955183  0  0  0.003418  -0.065314  0  3.92642  0
C  C65  1  0.63687036  0.57033036  0.85799623  1  0  -0.08234  0  3.699629  0  0  -0.06771  0  3.938065  0  0  -0.071645  0  3.955605  0  0  0.003423  -0.065343  0  3.926517  0
C  C66  1  0.13687754  0.92967143  0.14200521  1  0  -0.082321  0  3.699442  0  0  -0.067736  0  3.937904  0  0  -0.071666  0  3.955438  0  0  0.003408  -0.065463  0  3.926518  0
C  C67  1  0.36313080  0.07033243  0.64200789  1  0  -0.08219  0  3.699284  0  0  -0.067626  0  3.937748  0  0  -0.071527  0  3.955244  0  0  0.003362  -0.065376  0  3.926334  0
C  C68  1  0.85685641  0.40460804  0.26782452  1  0  -0.069076  0  3.757592  0  0  -0.094845  0  4.012193  0  0  -0.095235  0  4.030199  0  0  -0.079751  -0.094506  0  4.000098  0
C  C69  1  0.64314536  0.59539058  0.76782855  1  0  -0.068992  0  3.757634  0  0  -0.094859  0  4.012201  0  0  -0.095201  0  4.030237  0  0  -0.079815  -0.094606  0  4.000049  0
C  C70  1  0.14314332  0.90461055  0.23217220  1  0  -0.068915  0  3.757683  0  0  -0.094744  0  4.012228  0  0  -0.095089  0  4.030263  0  0  -0.079778  -0.094433  0  4.000112  0
C  C71  1  0.35686175  0.09539296  0.73217498  1  0  -0.069026  0  3.757575  0  0  -0.094827  0  4.012129  0  0  -0.09518  0  4.030162  0  0  -0.079815  -0.094535  0  3.999982  0
C  C72  1  0.88060862  0.46892633  0.19921428  1  0  -0.083352  0  3.773168  0  0  -0.106733  0  4.026914  0  0  -0.107417  0  4.04616  0  0  -0.087672  -0.106105  0  4.013797  0
C  C73  1  0.61939193  0.53107137  0.69921945  1  0  -0.083294  0  3.773117  0  0  -0.106537  0  4.026922  0  0  -0.107215  0  4.046154  0  0  -0.087688  -0.105975  0  4.013798  0
C  C74  1  0.11939280  0.96892907  0.30078064  1  0  -0.083406  0  3.773267  0  0  -0.106654  0  4.027082  0  0  -0.107335  0  4.046317  0  0  -0.087674  -0.106066  0  4.013953  0
C  C75  1  0.38061496  0.03107536  0.80078385  1  0  -0.08342  0  3.773111  0  0  -0.106754  0  4.026885  0  0  -0.107438  0  4.046124  0  0  -0.087736  -0.106179  0  4.013767  0
C  C76  1  0.89371369  0.55993324  0.21906956  1  0  -0.099569  0  3.693402  0  0  -0.084846  0  3.932942  0  0  -0.090739  0  3.953268  0  0  -0.011004  -0.081147  0  3.919468  0
C  C77  1  0.60628825  0.44006453  0.71907782  1  0  -0.099512  0  3.693156  0  0  -0.085065  0  3.932969  0  0  -0.09096  0  3.953294  0  0  -0.011058  -0.081401  0  3.919489  0
C  C78  1  0.10629069  0.05993629  0.28092255  1  0  -0.099376  0  3.693004  0  0  -0.084927  0  3.932846  0  0  -0.09082  0  3.953172  0  0  -0.010999  -0.081245  0  3.919356  0
C  C79  1  0.39371715  0.94006739  0.78092692  1  0  -0.09953  0  3.693212  0  0  -0.084951  0  3.932879  0  0  -0.090844  0  3.953205  0  0  -0.011049  -0.081276  0  3.919397  0
C  C80  1  0.88616354  0.58932054  0.31152821  1  0  0.0481  0  3.721282  0  0  0.05654  0  3.950176  0  0  0.057636  0  3.973446  0  0  -0.000729  0.055778  0  3.934653  0
C  C81  1  0.61383660  0.41067755  0.81153568  1  0  0.048016  0  3.721213  0  0  0.056535  0  3.950132  0  0  0.057634  0  3.973395  0  0  -0.000696  0.05577  0  3.934627  0
C  C82  1  0.11383947  0.08932461  0.18846469  1  0  0.048029  0  3.721073  0  0  0.0565  0  3.950062  0  0  0.057596  0  3.973326  0  0  -0.000706  0.055755  0  3.934521  0
C  C83  1  0.38616723  0.91068009  0.68846829  1  0  0.048127  0  3.721269  0  0  0.056598  0  3.950162  0  0  0.057695  0  3.973427  0  0  -0.000627  0.055863  0  3.934605  0
C  C84  1  0.88001631  0.52243017  0.38226945  1  0  0.046827  0  3.719859  0  0  0.057236  0  3.946833  0  0  0.057632  0  3.969571  0  0  0.004616  0.056951  0  3.931706  0
C  C85  1  0.61998358  0.47756952  0.88227444  1  0  0.047033  0  3.719847  0  0  0.057417  0  3.946775  0  0  0.057846  0  3.969532  0  0  0.004661  0.057125  0  3.931559  0
C  C86  1  0.11998793  0.02243332  0.11772592  1  0  0.046953  0  3.71984  0  0  0.057376  0  3.946753  0  0  0.057804  0  3.969511  0  0  0.004673  0.057091  0  3.931616  0
C  C87  1  0.38001902  0.97757046  0.61772976  1  0  0.046864  0  3.719865  0  0  0.057284  0  3.946747  0  0  0.057703  0  3.969497  0  0  0.004614  0.057003  0  3.93158  0
C  C88  1  0.88319547  0.55109970  0.47422955  1  0  -0.107333  0  3.730727  0  0  -0.127736  0  3.982407  0  0  -0.129262  0  4.001802  0  0  -0.083341  -0.126685  0  3.969389  0
C  C89  1  0.61679528  0.44890233  0.97423444  1  0  -0.107272  0  3.730774  0  0  -0.127696  0  3.982485  0  0  -0.129219  0  4.001872  0  0  -0.08343  -0.126695  0  3.969514  0
C  C90  1  0.11680300  0.05109984  0.02576660  1  0  -0.107396  0  3.730654  0  0  -0.127818  0  3.982358  0  0  -0.129342  0  4.001746  0  0  -0.08343  -0.126795  0  3.969358  0
C  C91  1  0.38319840  0.94890294  0.52576898  1  0  -0.107186  0  3.730861  0  0  -0.127577  0  3.982506  0  0  -0.129102  0  4.001898  0  0  -0.083328  -0.126568  0  3.969508  0
C  C92  1  0.88870936  0.64132624  0.49640145  1  0  -0.089546  0  3.819629  0  0  -0.104204  0  4.073775  0  0  -0.106204  0  4.094482  0  0  -0.098746  -0.102717  0  4.05959  0
C  C93  1  0.61128130  0.35867722  0.99640602  1  0  -0.08967  0  3.819717  0  0  -0.104368  0  4.073904  0  0  -0.106369  0  4.09461  0  0  -0.098873  -0.10295  0  4.059814  0
C  C94  1  0.11128796  0.14132562  0.00359299  1  0  -0.089585  0  3.819491  0  0  -0.104292  0  4.073653  0  0  -0.106293  0  4.09436  0  0  -0.098847  -0.102834  0  4.059474  0
C  C95  1  0.38871059  0.85867776  0.50359572  1  0  -0.089671  0  3.819835  0  0  -0.104363  0  4.074004  0  0  -0.106365  0  4.094713  0  0  -0.098913  -0.10296  0  4.059884  0
C  C96  1  0.89105880  0.70717162  0.42722087  1  0  -0.084025  0  3.814881  0  0  -0.098006  0  4.06729  0  0  -0.099251  0  4.087715  0  0  -0.098319  -0.09706  0  4.053268  0
C  C97  1  0.60893359  0.29282890  0.92722657  1  0  -0.083987  0  3.814987  0  0  -0.097946  0  4.067398  0  0  -0.099189  0  4.087822  0  0  -0.098346  -0.09703  0  4.053411  0
C  C98  1  0.10893875  0.20717393  0.07277515  1  0  -0.08404  0  3.814957  0  0  -0.097995  0  4.067378  0  0  -0.099241  0  4.087804  0  0  -0.098351  -0.097078  0  4.053392  0
C  C99  1  0.39106101  0.79282969  0.57277630  1  0  -0.084012  0  3.814874  0  0  -0.097991  0  4.067306  0  0  -0.099236  0  4.087733  0  0  -0.098358  -0.097107  0  4.053355  0
C  C100  1  0.89033021  0.68183570  0.33720823  1  0  -0.132256  0  3.750858  0  0  -0.15287  0  4.005233  0  0  -0.1549  0  4.023342  0  0  -0.095217  -0.151471  0  3.993166  0
C  C101  1  0.60966984  0.31816316  0.83721537  1  0  -0.132332  0  3.751005  0  0  -0.152911  0  4.005356  0  0  -0.154941  0  4.023467  0  0  -0.095256  -0.15156  0  3.99327  0
C  C102  1  0.10967313  0.18183900  0.16278568  1  0  -0.132279  0  3.750944  0  0  -0.152857  0  4.005329  0  0  -0.154887  0  4.023441  0  0  -0.095284  -0.151512  0  3.993261  0
C  C103  1  0.39033366  0.81816561  0.66278827  1  0  -0.132266  0  3.75103  0  0  -0.152877  0  4.00541  0  0  -0.154906  0  4.023522  0  0  -0.095241  -0.151517  0  3.993335  0
C  C104  1  0.88616174  0.85504313  0.76200351  1  0  -0.177404  0  3.654614  0  0  -0.284113  0  3.914356  0  0  -0.280208  0  3.924117  0  0  -0.12611  -0.286379  0  3.907827  0
C  C105  1  0.61384299  0.14495411  0.26200350  1  0  -0.177432  0  3.654483  0  0  -0.284032  0  3.914257  0  0  -0.280134  0  3.924015  0  0  -0.126072  -0.286302  0  3.907721  0
C  C106  1  0.11383896  0.35504401  0.73799619  1  0  -0.177491  0  3.654603  0  0  -0.28414  0  3.914347  0  0  -0.280238  0  3.924109  0  0  -0.126083  -0.286417  0  3.907798  0
C  C107  1  0.38616022  0.64495615  0.23799772  1  0  -0.17741  0  3.654551  0  0  -0.284059  0  3.914321  0  0  -0.280163  0  3.924086  0  0  -0.126078  -0.28634  0  3.907771  0
C  C108  1  0.88790454  0.90607123  0.60214513  1  0  -0.171823  0  3.651012  0  0  -0.273078  0  3.895052  0  0  -0.268992  0  3.906234  0  0  -0.134626  -0.275507  0  3.887598  0
C  C109  1  0.61209929  0.09392478  0.10214561  1  0  -0.171912  0  3.651135  0  0  -0.273008  0  3.89513  0  0  -0.268921  0  3.906309  0  0  -0.13459  -0.27545  0  3.887655  0
C  C110  1  0.11208605  0.40607132  0.89785475  1  0  -0.172032  0  3.650979  0  0  -0.273194  0  3.894991  0  0  -0.269108  0  3.90617  0  0  -0.134642  -0.275625  0  3.887538  0
C  C111  1  0.38790080  0.59392872  0.39785678  1  0  -0.171786  0  3.650941  0  0  -0.272986  0  3.894988  0  0  -0.268897  0  3.906167  0  0  -0.13452  -0.275414  0  3.887515  0
C  C112  1  0.86503814  0.01437433  0.72626659  1  0  0.424524  0  3.83688  0  0  0.347693  0  4.133129  0  0  0.375635  0  4.134873  0  0  0.185477  0.329094  0  4.131355  0
C  C113  1  0.63496084  0.98562616  0.22627156  1  0  0.424455  0  3.836409  0  0  0.347736  0  4.132711  0  0  0.375691  0  4.134447  0  0  0.185512  0.329094  0  4.130946  0
C  C114  1  0.13495547  0.51437159  0.77373055  1  0  0.424554  0  3.836683  0  0  0.347787  0  4.132935  0  0  0.375741  0  4.134674  0  0  0.185495  0.329153  0  4.131153  0
C  C115  1  0.36503917  0.48562870  0.27373154  1  0  0.424502  0  3.83673  0  0  0.347726  0  4.132983  0  0  0.375681  0  4.134725  0  0  0.185447  0.32908  0  4.131242  0
N  N116  1  0.88206301  0.92918722  0.69782670  1  0  -0.097673  0  3.517893  0  0  0.00736  0  3.752261  0  0  -0.014527  0  3.780445  0  0  -0.280619  0.021916  0  3.733  0
N  N117  1  0.61793901  0.07080711  0.19782710  1  0  -0.097407  0  3.517758  0  0  0.007369  0  3.752333  0  0  -0.014513  0  3.780508  0  0  -0.280603  0.021968  0  3.733036  0
N  N118  1  0.11793500  0.42919101  0.80217259  1  0  -0.097473  0  3.517858  0  0  0.007417  0  3.752324  0  0  -0.014462  0  3.780496  0  0  -0.280581  0.022021  0  3.733011  0
N  N119  1  0.38206100  0.57081072  0.30217454  1  0  -0.097355  0  3.517928  0  0  0.007519  0  3.752432  0  0  -0.014363  0  3.780609  0  0  -0.280532  0.022119  0  3.733146  0
O  O120  1  0.99375116  0.35076224  0.48590976  1  0  -0.729573  0  1.96213  0  0  -0.668099  0  2.203576  0  0  -0.694422  0  2.191999  0  0  -0.379752  -0.649327  0  2.210977  0
O  O121  1  0.50625130  0.64923983  0.98591408  1  0  -0.729634  0  1.961998  0  0  -0.668153  0  2.203437  0  0  -0.694473  0  2.191848  0  0  -0.379767  -0.649424  0  2.21086  0
O  O122  1  0.00625131  0.85076051  0.01408745  1  0  -0.729587  0  1.961941  0  0  -0.668114  0  2.203396  0  0  -0.694436  0  2.191809  0  0  -0.379753  -0.649345  0  2.210794  0
O  O123  1  0.49375161  0.14923953  0.51408896  1  0  -0.729612  0  1.962095  0  0  -0.668133  0  2.203551  0  0  -0.694455  0  2.191968  0  0  -0.37979  -0.649423  0  2.210965  0
O  O124  1  0.72117864  0.29707402  0.42008003  1  0  -0.740046  0  1.98933  0  0  -0.675199  0  2.23772  0  0  -0.702577  0  2.22703  0  0  -0.39785  -0.655723  0  2.244542  0
O  O125  1  0.77882259  0.70292715  0.92008095  1  0  -0.740136  0  1.989265  0  0  -0.675295  0  2.237659  0  0  -0.70267  0  2.22695  0  0  -0.397896  -0.655844  0  2.244486  0
O  O126  1  0.27881923  0.79707273  0.07991969  1  0  -0.740142  0  1.98947  0  0  -0.675287  0  2.237837  0  0  -0.702661  0  2.227128  0  0  -0.397864  -0.655813  0  2.244657  0
O  O127  1  0.22118051  0.20292620  0.57991957  1  0  -0.74012  0  1.989471  0  0  -0.675223  0  2.237805  0  0  -0.702599  0  2.227102  0  0  -0.397887  -0.655793  0  2.244616  0
O  O128  1  0.02180332  0.59370313  0.07409742  1  0  -0.711139  0  1.915414  0  0  -0.656662  0  2.156103  0  0  -0.682117  0  2.144802  0  0  -0.387748  -0.638603  0  2.163398  0
O  O129  1  0.47819791  0.40629174  0.57410391  1  0  -0.711231  0  1.915327  0  0  -0.6568  0  2.155967  0  0  -0.682255  0  2.144658  0  0  -0.387823  -0.638798  0  2.163289  0
O  O130  1  0.97819677  0.09370800  0.42589752  1  0  -0.711223  0  1.915365  0  0  -0.656788  0  2.156018  0  0  -0.682242  0  2.144709  0  0  -0.38778  -0.638739  0  2.163321  0
O  O131  1  0.52180737  0.90629656  0.92590071  1  0  -0.711111  0  1.915399  0  0  -0.656652  0  2.156022  0  0  -0.682108  0  2.144724  0  0  -0.387767  -0.638645  0  2.163339  0
O  O132  1  0.83639317  0.69969857  0.14272322  1  0  -0.725056  0  1.984775  0  0  -0.665909  0  2.231128  0  0  -0.6919  0  2.219945  0  0  -0.388355  -0.6475  0  2.23837  0
O  O133  1  0.66361052  0.30029826  0.64272958  1  0  -0.725196  0  1.984858  0  0  -0.666069  0  2.231126  0  0  -0.692058  0  2.21994  0  0  -0.388449  -0.647675  0  2.238377  0
O  O134  1  0.16360730  0.19970462  0.35727142  1  0  -0.725236  0  1.984837  0  0  -0.666093  0  2.231098  0  0  -0.692086  0  2.219914  0  0  -0.388499  -0.647713  0  2.23836  0
O  O135  1  0.33640320  0.80029933  0.85727332  1  0  -0.725033  0  1.984856  0  0  -0.665887  0  2.231114  0  0  -0.691877  0  2.219933  0  0  -0.388379  -0.647491  0  2.238364  0
O  O136  1  0.85551082  0.08208080  0.67633829  1  0  -0.619207  0  2.049308  0  0  -0.563385  0  2.306756  0  0  -0.588077  0  2.299617  0  0  -0.376061  -0.54609  0  2.311218  0
O  O137  1  0.64447953  0.91791009  0.17633759  1  0  -0.619461  0  2.048955  0  0  -0.563634  0  2.306348  0  0  -0.588333  0  2.299206  0  0  -0.376194  -0.546321  0  2.310838  0
O  O138  1  0.14447862  0.58208700  0.82366587  1  0  -0.61943  0  2.048975  0  0  -0.563607  0  2.306375  0  0  -0.588315  0  2.299254  0  0  -0.376194  -0.546298  0  2.310846  0
O  O139  1  0.35551730  0.41791481  0.32366662  1  0  -0.619447  0  2.048984  0  0  -0.563623  0  2.30639  0  0  -0.588328  0  2.299264  0  0  -0.376158  -0.546284  0  2.310874  0
