# generated using pymatgen
data_CdH44C52N6(O3F4)2
_symmetry_space_group_name_H-M   'P 1'
_cell_length_a   12.90310902
_cell_length_b   13.16662305
_cell_length_c   16.32712617
_cell_angle_alpha   111.41891629
_cell_angle_beta   108.13829122
_cell_angle_gamma   94.08890937
_symmetry_Int_Tables_number   1
_chemical_formula_structural   CdH44C52N6(O3F4)2
_chemical_formula_sum   'Cd2 H88 C104 N12 O12 F16'
_cell_volume   2399.68219766
_cell_formula_units_Z   2
loop_
 _symmetry_equiv_pos_site_id
 _symmetry_equiv_pos_as_xyz
  1  'x, y, z'
loop_
 _atom_site_type_symbol
 _atom_site_label
 _atom_site_symmetry_multiplicity
 _atom_site_fract_x
 _atom_site_fract_y
 _atom_site_fract_z
 _atom_site_occupancy
 _atom_site_pbe_bader_charge
 _atom_site_pbe_bader_spin_density
 _atom_site_pbe_cm5_charge
 _atom_site_pbe_ddec_charge
 _atom_site_pbe_ddec_spin_density
 _atom_site_pbe_ddec_sum_bond_order
 _atom_site_pbe_magmom
Cd  Cd0  1  0.61648406  0.37647909  0.74599554  1  1.236122  0  0.775913  0.730015  0  2.23234  0
Cd  Cd1  1  0.38351507  0.62352242  0.25400194  1  1.236165  0  0.775936  0.730007  0  2.232272  0
H  H2  1  0.52762973  0.20294065  0.52581204  1  0.076174  0  0.114432  0.081143  0  1.027961  0
H  H3  1  0.47236924  0.79706003  0.47418884  1  0.076161  0  0.114436  0.081169  0  1.028004  0
H  H4  1  0.84761862  0.33747995  0.72447643  1  0.122058  0  0.112829  0.079883  0  1.047956  0
H  H5  1  0.15238348  0.66252407  0.27552498  1  0.122092  0  0.1128  0.079801  0  1.048001  0
H  H6  1  0.59923480  0.09638965  0.40019243  1  0.151066  0  0.10844  0.122757  0  1.036777  0
H  H7  1  0.40076498  0.90361104  0.59980743  1  0.151139  0  0.10844  0.122743  0  1.036791  0
H  H8  1  0.93223480  0.24022733  0.60878976  1  0.101608  0  0.104359  0.115912  0  1.03256  0
H  H9  1  0.06776528  0.75977085  0.39121005  1  0.101598  0  0.104356  0.115895  0  1.032589  0
H  H10  1  0.84810223  0.15340857  0.39240840  1  0.09079  0  0.102756  0.122686  0  0.990366  0
H  H11  1  0.15190176  0.84658881  0.60759643  1  0.090844  0  0.102716  0.122645  0  0.990464  0
H  H12  1  0.75028744  0.03117007  0.36021081  1  0.125548  0  0.106409  0.131113  0  1.005336  0
H  H13  1  0.24971212  0.96882562  0.63979183  1  0.12572  0  0.106396  0.131085  0  1.005392  0
H  H14  1  0.68189946  0.14795195  0.75491879  1  0.133818  0  0.113065  0.081924  0  1.040164  0
H  H15  1  0.31809962  0.85204539  0.24507808  1  0.133889  0  0.113093  0.081917  0  1.040219  0
H  H16  1  0.78532102  0.47178708  0.96090984  1  0.111977  0  0.116316  0.089295  0  1.00866  0
H  H17  1  0.21467545  0.52820942  0.03908737  1  0.111941  0  0.116299  0.089262  0  1.00866  0
H  H18  1  0.78525951  0.07196010  0.86704299  1  0.129549  0  0.103791  0.115555  0  1.028117  0
H  H19  1  0.21474138  0.92803808  0.13295457  1  0.129455  0  0.103772  0.115525  0  1.028122  0
H  H20  1  0.89221286  0.40869867  0.08270227  1  0.145616  0  0.11069  0.123058  0  1.031596  0
H  H21  1  0.10778722  0.59129951  0.91729509  1  0.145533  0  0.110696  0.123124  0  1.031592  0
H  H22  1  0.84492439  0.18012090  0.09405245  1  0.097722  0  0.102591  0.123487  0  0.992732  0
H  H23  1  0.15507346  0.81988227  0.90594582  1  0.097755  0  0.102597  0.123462  0  0.992723  0
H  H24  1  0.97126834  0.26670402  0.11839009  1  0.114738  0  0.106463  0.13331  0  1.032665  0
H  H25  1  0.02872997  0.73329749  0.88160782  1  0.114724  0  0.106465  0.133301  0  1.032671  0
H  H26  1  0.71283008  0.64067011  0.87877055  1  0.092311  0  0.110445  0.07696  0  1.053405  0
H  H27  1  0.28716859  0.35933308  0.12123037  1  0.092396  0  0.11045  0.076953  0  1.053364  0
H  H28  1  0.44890886  0.42254653  0.85852552  1  0.096677  0  0.11747  0.098516  0  1.013697  0
H  H29  1  0.55108946  0.57745498  0.14147545  1  0.096761  0  0.117506  0.098548  0  1.013717  0
H  H30  1  0.66030427  0.80475875  0.97946129  1  0.078204  0  0.101216  0.108584  0  1.039199  0
H  H31  1  0.33969096  0.19524359  0.02053793  1  0.078428  0  0.101217  0.108577  0  1.039239  0
H  H32  1  0.38772109  0.57790488  0.96203229  1  0.07529  0  0.108011  0.115225  0  1.007781  0
H  H33  1  0.61227672  0.42209414  0.03796782  1  0.075357  0  0.108016  0.115261  0  1.007703  0
H  H34  1  0.39796096  0.77565043  0.03500169  1  0.063334  0  0.099479  0.111039  0  0.997822  0
H  H35  1  0.60203620  0.22434943  0.96500096  1  0.062962  0  0.099457  0.110949  0  0.997929  0
H  H36  1  0.53605641  0.82433304  0.11688116  1  0.142905  0  0.106338  0.12856  0  1.030985  0
H  H37  1  0.46394028  0.17566848  0.88312001  1  0.142951  0  0.10633  0.128506  0  1.030989  0
H  H38  1  0.55049824  0.56323049  0.67496811  1  0.134724  0  0.114371  0.088836  0  1.042221  0
H  H39  1  0.44950201  0.43676852  0.32502892  1  0.134745  0  0.114361  0.088821  0  1.042234  0
H  H40  1  0.36966810  0.24482355  0.58419182  1  0.120449  0  0.110601  0.079717  0  1.048341  0
H  H41  1  0.63033344  0.75517379  0.41580627  1  0.12045  0  0.110599  0.079716  0  1.048361  0
H  H42  1  0.39594275  0.60966281  0.56675857  1  0.060526  0  0.105204  0.112599  0  1.01971  0
H  H43  1  0.60405750  0.39033620  0.43324092  1  0.060522  0  0.105201  0.112582  0  1.019698  0
H  H44  1  0.20856740  0.27676508  0.47119007  1  0.122666  0  0.10474  0.122201  0  1.022647  0
H  H45  1  0.79143547  0.72323478  0.52880970  1  0.122784  0  0.104706  0.122171  0  1.022647  0
H  H46  1  0.16782343  0.40362891  0.37160954  1  0.150614  0  0.105291  0.125327  0  1.030602  0
H  H47  1  0.83217652  0.59637261  0.62839122  1  0.150621  0  0.105322  0.125385  0  1.030571  0
H  H48  1  0.22372942  0.54742812  0.43676575  1  0.082174  0  0.099971  0.114937  0  0.986987  0
H  H49  1  0.77627397  0.45257423  0.56323426  1  0.082222  0  0.099965  0.114956  0  0.986994  0
H  H50  1  0.00747226  0.42288680  0.83511179  1  0.057206  0  0.093538  0.096973  0  1.05102  0
H  H51  1  0.99252735  0.57711305  0.16488717  1  0.057167  0  0.093536  0.096968  0  1.051034  0
H  H52  1  0.03258727  0.28669353  0.90774639  1  0.072852  0  0.091795  0.092576  0  1.02258  0
H  H53  1  0.96741135  0.71330548  0.09225208  1  0.072933  0  0.091768  0.092525  0  1.022625  0
H  H54  1  0.16098264  0.15629245  0.87609452  1  0.025541  0  0.088284  0.083428  0  1.036888  0
H  H55  1  0.83901796  0.84370824  0.12390493  1  0.025522  0  0.088295  0.083466  0  1.036922  0
H  H56  1  0.26728219  0.16797775  0.77441909  1  0.111025  0  0.092488  0.095655  0  1.040063  0
H  H57  1  0.73271626  0.83202042  0.22557848  1  0.111039  0  0.092485  0.095655  0  1.040065  0
H  H58  1  0.24161275  0.30405198  0.70208135  1  0.069876  0  0.091417  0.094459  0  1.035123  0
H  H59  1  0.75838470  0.69594536  0.29791573  1  0.069926  0  0.091435  0.094463  0  1.035074  0
H  H60  1  0.08630366  0.41065460  0.64090373  1  0.025893  0  0.080371  0.073169  0  1.01944  0
H  H61  1  0.91369461  0.58934274  0.35909294  1  0.025963  0  0.080395  0.073196  0  1.019387  0
H  H62  1  0.03440608  0.49188823  0.72619405  1  0.042396  0  0.084796  0.087136  0  1.012817  0
H  H63  1  0.96559352  0.50811162  0.27380429  1  0.042465  0  0.084789  0.087112  0  1.01278  0
H  H64  1  0.19486816  0.60950002  0.72715409  1  0.014722  0  0.075261  0.105894  0  1.047943  0
H  H65  1  0.80513208  0.39049899  0.27284294  1  0.014577  0  0.075229  0.105847  0  1.047934  0
H  H66  1  0.28174682  0.51524684  0.74588987  1  0.009791  0  0.07889  0.110181  0  1.020059  0
H  H67  1  0.71825145  0.48475049  0.25410557  1  0.00987  0  0.0789  0.110196  0  1.020083  0
H  H68  1  0.23336760  0.59388303  0.83505908  1  0.063708  0  0.076246  0.102079  0  1.046118  0
H  H69  1  0.76663231  0.40611431  0.16493676  1  0.063713  0  0.07624  0.102086  0  1.04616  0
H  H70  1  0.84472997  0.79588333  0.77049125  1  0.074645  0  0.092614  0.098292  0  1.037905  0
H  H71  1  0.15526981  0.20411736  0.22951044  1  0.074561  0  0.092582  0.098231  0  1.037904  0
H  H72  1  0.99773769  0.91955196  0.76833987  1  0.048127  0  0.094402  0.096642  0  0.999329  0
H  H73  1  0.00226355  0.08044790  0.23166011  1  0.048143  0  0.09439  0.096629  0  0.999384  0
H  H74  1  0.95352262  0.05097349  0.69070190  1  0.063535  0  0.091908  0.091392  0  1.029616  0
H  H75  1  0.04647716  0.94902719  0.30929796  1  0.063526  0  0.091902  0.091372  0  1.029614  0
H  H76  1  0.75430757  0.05358524  0.61196520  1  0.050196  0  0.091661  0.088441  0  1.04388  0
H  H77  1  0.24569268  0.94641378  0.38803429  1  0.05018  0  0.091686  0.088473  0  1.043915  0
H  H78  1  0.60319283  0.93573018  0.61887837  1  0.072939  0  0.098854  0.104512  0  1.017231  0
H  H79  1  0.39680725  0.06426799  0.38111899  1  0.072945  0  0.098836  0.104491  0  1.01725  0
H  H80  1  0.65369233  0.71987267  0.71953309  1  0.047481  0  0.088369  0.088104  0  1.010143  0
H  H81  1  0.34630891  0.28012719  0.28046627  1  0.047474  0  0.088365  0.088112  0  1.010141  0
H  H82  1  0.55481903  0.74648184  0.63095014  1  -6.9e-05  0  0.086121  0.078444  0  1.003189  0
H  H83  1  0.44518023  0.25351634  0.36904824  1  -4.4e-05  0  0.086105  0.078421  0  1.003239  0
H  H84  1  0.50253785  0.79754516  0.77350985  1  0.016573  0  0.080796  0.112614  0  1.008946  0
H  H85  1  0.49746257  0.20245469  0.22648870  1  0.016547  0  0.080788  0.112601  0  1.008983  0
H  H86  1  0.53602258  0.91995764  0.75641435  1  0.040978  0  0.081845  0.116475  0  1.028  0
H  H87  1  0.46397784  0.08004221  0.24358481  1  0.04099  0  0.081848  0.116468  0  1.027996  0
H  H88  1  0.63347817  0.89103656  0.84486865  1  0.032577  0  0.075371  0.103734  0  1.035231  0
H  H89  1  0.36652079  0.10896413  0.15513101  1  0.032562  0  0.075364  0.10373  0  1.035233  0
C  C90  1  0.61680731  0.21073273  0.54035203  1  0.49055  0  0.045398  0.100993  0  3.955745  0
C  C91  1  0.38319217  0.78927045  0.45964787  1  0.490751  0  0.045352  0.100861  0  3.955936  0
C  C92  1  0.79525894  0.28544645  0.65134771  1  0.454162  0  0.040079  0.090514  0  3.961524  0
C  C93  1  0.20474166  0.71455424  0.34865357  1  0.454181  0  0.040135  0.090539  0  3.96144  0
C  C94  1  0.65675648  0.15238245  0.47065025  1  -0.098188  0  -0.082866  -0.18177  0  3.913829  0
C  C95  1  0.34324411  0.84761823  0.52934981  1  -0.098478  0  -0.082847  -0.18171  0  3.913909  0
C  C96  1  0.84189448  0.23053004  0.58581378  1  0.004075  0  -0.08782  -0.186781  0  3.930225  0
C  C97  1  0.15810530  0.76947064  0.41418669  1  0.004096  0  -0.087837  -0.186747  0  3.930276  0
C  C98  1  0.77190161  0.16163069  0.49308601  1  0.000432  0  0.016955  0.179463  0  3.919384  0
C  C99  1  0.22809783  0.83836833  0.50691511  1  0.000451  0  0.016972  0.179471  0  3.919386  0
C  C100  1  0.81791076  0.09701107  0.41959119  1  -0.028955  0  -0.150598  -0.229196  0  3.922934  0
C  C101  1  0.18208950  0.90298796  0.58041320  1  -0.028813  0  -0.15059  -0.229138  0  3.923051  0
C  C102  1  0.91170845  0.04689867  0.45946045  1  0.08633  0  -0.019682  -0.056262  0  4.042904  0
C  C103  1  0.08829112  0.95309703  0.54054402  1  0.085541  0  -0.019676  -0.056377  0  4.042971  0
C  C104  1  0.89072619  0.94521667  0.46591234  1  0.520047  0  0.091196  0.126313  0  4.09284  0
C  C105  1  0.10927273  0.05477987  0.53409283  1  0.519425  0  0.091208  0.126318  0  4.092921  0
C  C106  1  0.97669897  0.89929556  0.50467010  1  0.503385  0  0.086939  0.114797  0  4.102226  0
C  C107  1  0.02329983  0.10070432  0.49533909  1  0.503524  0  0.086938  0.114718  0  4.102309  0
C  C108  1  0.72867095  0.20325506  0.82856535  1  0.443768  0  0.043948  0.098534  0  3.948347  0
C  C109  1  0.27132878  0.79674145  0.17143144  1  0.443569  0  0.043939  0.098523  0  3.948538  0
C  C110  1  0.78540772  0.38360887  0.94349207  1  0.481208  0  0.045782  0.101897  0  3.953781  0
C  C111  1  0.21458956  0.61638763  0.05650350  1  0.481131  0  0.045711  0.1018  0  3.953903  0
C  C112  1  0.78632461  0.16112212  0.89217190  1  -0.05372  0  -0.086458  -0.18372  0  3.92373  0
C  C113  1  0.21367645  0.83887690  0.10782656  1  -0.053477  0  -0.086437  -0.183681  0  3.923761  0
C  C114  1  0.84457913  0.34799789  0.01112038  1  -0.107164  0  -0.084089  -0.188175  0  3.935762  0
C  C115  1  0.15541914  0.65199944  0.98887568  1  -0.107176  0  -0.0841  -0.188236  0  3.935777  0
C  C116  1  0.84466269  0.23432608  0.98640497  1  0.022195  0  0.015617  0.175728  0  3.930244  0
C  C117  1  0.15533756  0.76567294  0.01359329  1  0.022252  0  0.01559  0.175697  0  3.930079  0
C  C118  1  0.90428685  0.19696313  0.06238620  1  -0.019454  0  -0.1552  -0.237821  0  3.936138  0
C  C119  1  0.09571130  0.80303755  0.93761325  1  -0.019469  0  -0.155222  -0.237769  0  3.936195  0
C  C120  1  0.95217913  0.09575465  0.02932114  1  0.125249  0  -0.017949  -0.050235  0  4.051148  0
C  C121  1  0.04782246  0.90424688  0.97068064  1  0.125221  0  -0.01796  -0.050322  0  4.051275  0
C  C122  1  0.05570791  0.10383283  0.01944786  1  0.4636  0  0.091266  0.124114  0  4.084338  0
C  C123  1  0.94429140  0.89616952  0.98055298  1  0.46341  0  0.091303  0.124199  0  4.084241  0
C  C124  1  0.10216143  0.01088828  0.99137906  1  0.52093  0  0.087508  0.115068  0  4.097093  0
C  C125  1  0.89783788  0.98911408  0.00862301  1  0.521167  0  0.087498  0.115033  0  4.097057  0
C  C126  1  0.64097817  0.63020831  0.89839746  1  0.493584  0  0.040503  0.093607  0  3.962416  0
C  C127  1  0.35902522  0.36979406  0.10160685  1  0.493761  0  0.040484  0.093652  0  3.962473  0
C  C128  1  0.49435563  0.50851087  0.88767171  1  0.504508  0  0.04386  0.087743  0  3.949362  0
C  C129  1  0.50564578  0.49148983  0.11233162  1  0.502907  0  0.043844  0.087798  0  3.949482  0
C  C130  1  0.61128173  0.72155087  0.95513767  1  0.039657  0  -0.085335  -0.178204  0  3.938524  0
C  C131  1  0.38872068  0.27845067  0.04486737  1  0.03918  0  -0.085313  -0.178214  0  3.938789  0
C  C132  1  0.46052878  0.59579198  0.94530486  1  0.011718  0  -0.081829  -0.179137  0  3.945348  0
C  C133  1  0.53946937  0.40420871  0.05469705  1  0.013236  0  -0.081896  -0.179302  0  3.945484  0
C  C134  1  0.51879332  0.70547454  0.97983245  1  -0.115696  0  0.01793  0.182686  0  3.912915  0
C  C135  1  0.48120809  0.29452617  0.02017395  1  -0.115652  0  0.017978  0.18271  0  3.913171  0
C  C136  1  0.48435024  0.80200836  0.04249246  1  0.005673  0  -0.152698  -0.227379  0  3.92679  0
C  C137  1  0.51564791  0.19799233  0.95750945  1  0.006041  0  -0.152683  -0.227159  0  3.926649  0
C  C138  1  0.49372595  0.90387528  0.02154243  1  0.141062  0  -0.02018  -0.057145  0  4.031295  0
C  C139  1  0.50627465  0.09612542  0.97845886  1  0.141176  0  -0.02017  -0.057146  0  4.031294  0
C  C140  1  0.41350632  0.90994379  0.94403277  1  0.468949  0  0.085331  0.112654  0  4.092358  0
C  C141  1  0.58649311  0.09005522  0.05596590  1  0.468834  0  0.085291  0.112614  0  4.092511  0
C  C142  1  0.41844844  0.00332458  0.92321598  1  0.504692  0  0.089934  0.126239  0  4.093166  0
C  C143  1  0.58155070  0.99667694  0.07678335  1  0.504837  0  0.089964  0.126304  0  4.093251  0
C  C144  1  0.47282954  0.50259269  0.62918395  1  0.438074  0  0.040761  0.09144  0  3.956906  0
C  C145  1  0.52716990  0.49740632  0.37081534  1  0.438037  0  0.040752  0.091435  0  3.956916  0
C  C146  1  0.37183239  0.32472283  0.57838922  1  0.465678  0  0.041046  0.085089  0  3.96747  0
C  C147  1  0.62817065  0.67527786  0.42161021  1  0.465661  0  0.041014  0.085078  0  3.967484  0
C  C148  1  0.38674440  0.52759362  0.56847244  1  -0.022375  0  -0.086385  -0.187523  0  3.951505  0
C  C149  1  0.61325683  0.47240623  0.43152692  1  -0.022342  0  -0.086397  -0.187507  0  3.951482  0
C  C150  1  0.28222159  0.34333045  0.51564662  1  -0.049136  0  -0.083088  -0.174499  0  3.911492  0
C  C151  1  0.71778046  0.65666940  0.48435356  1  -0.049268  0  -0.083044  -0.174494  0  3.911558  0
C  C152  1  0.28870996  0.44705898  0.51000592  1  0.026187  0  0.01813  0.186796  0  3.912933  0
C  C153  1  0.71129128  0.55294087  0.48999405  1  0.026276  0  0.018146  0.186803  0  3.912968  0
C  C154  1  0.19419963  0.47086573  0.44245741  1  -0.015281  0  -0.154889  -0.229815  0  3.937366  0
C  C155  1  0.80580294  0.52913663  0.55754301  1  -0.015713  0  -0.154898  -0.229839  0  3.937346  0
C  C156  1  0.09466885  0.48422285  0.47209457  1  0.08878  0  -0.017907  -0.0515  0  4.024999  0
C  C157  1  0.90533523  0.51578285  0.52790842  1  0.08908  0  -0.017893  -0.051425  0  4.024795  0
C  C158  1  0.09509312  0.58157380  0.54524626  1  0.471712  0  0.086703  0.112701  0  4.092348  0
C  C159  1  0.90491014  0.41843189  0.45475531  1  0.471688  0  0.086663  0.112515  0  4.092485  0
C  C160  1  0.00337945  0.59759631  0.57253426  1  0.542808  0  0.090497  0.125732  0  4.092617  0
C  C161  1  0.99662398  0.40241022  0.42746820  1  0.542943  0  0.090395  0.125607  0  4.092858  0
C  C162  1  0.12183690  0.37267845  0.76246312  1  -0.053267  0  -0.017113  0.111189  0  3.961664  0
C  C163  1  0.87815957  0.62731804  0.23753286  1  -0.053783  0  -0.017083  0.111202  0  3.961625  0
C  C164  1  0.06444100  0.36676772  0.82141118  1  -0.039456  0  -0.10387  -0.160732  0  3.979563  0
C  C165  1  0.93555744  0.63323045  0.17858639  1  -0.039481  0  -0.10387  -0.160767  0  3.979581  0
C  C166  1  0.07834694  0.28970364  0.86234259  1  -0.082353  0  -0.101425  -0.081225  0  4.024549  0
C  C167  1  0.92165167  0.71029536  0.13765466  1  -0.082535  0  -0.101406  -0.081124  0  4.024475  0
C  C168  1  0.15038699  0.21709051  0.84491329  1  -0.031507  0  -0.103925  -0.099204  0  4.038971  0
C  C169  1  0.84961064  0.78290766  0.15508408  1  -0.031753  0  -0.103948  -0.099308  0  4.039009  0
C  C170  1  0.20944683  0.22302345  0.78749780  1  -0.090639  0  -0.102342  -0.087116  0  4.019793  0
C  C171  1  0.79055243  0.77697473  0.21250058  1  -0.090434  0  -0.102358  -0.087147  0  4.019779  0
C  C172  1  0.19523493  0.30030733  0.74692422  1  -0.072079  0  -0.104713  -0.152272  0  3.982811  0
C  C173  1  0.80476154  0.69968917  0.25307176  1  -0.071087  0  -0.104731  -0.152205  0  3.982601  0
C  C174  1  0.10633947  0.45521977  0.71748475  1  -0.018698  0  -0.170808  -0.157675  0  3.981389  0
C  C175  1  0.89365880  0.54477757  0.28251192  1  -0.019396  0  -0.170815  -0.157674  0  3.981396  0
C  C176  1  0.20978247  0.54855982  0.75845898  1  -0.07175  0  -0.252637  -0.347912  0  3.940306  0
C  C177  1  0.79021743  0.45143752  0.24153748  1  -0.071451  0  -0.252612  -0.347885  0  3.940365  0
C  C178  1  0.71340242  0.85854404  0.69679975  1  -0.045745  0  -0.014007  0.116579  0  3.967508  0
C  C179  1  0.28659865  0.14145498  0.30319872  1  -0.045744  0  -0.014049  0.116533  0  3.967563  0
C  C180  1  0.82527700  0.85497529  0.73811954  1  -0.089545  0  -0.104299  -0.162344  0  3.985452  0
C  C181  1  0.17472290  0.14502205  0.26187753  1  -0.089446  0  -0.104268  -0.16224  0  3.985336  0
C  C182  1  0.91122839  0.92379274  0.73600903  1  -0.063089  0  -0.101032  -0.086343  0  4.04419  0
C  C183  1  0.08877203  0.07620711  0.26399135  1  -0.063091  0  -0.100999  -0.086351  0  4.044235  0
C  C184  1  0.88647353  0.99643779  0.69149243  1  -0.051928  0  -0.105422  -0.105896  0  4.035256  0
C  C185  1  0.11352591  0.00356123  0.30850685  1  -0.052046  0  -0.105423  -0.105861  0  4.035222  0
C  C186  1  0.77508731  0.99869768  0.64825913  1  -0.035914  0  -0.099478  -0.080664  0  4.034925  0
C  C187  1  0.22491243  0.00129883  0.35173888  1  -0.035854  0  -0.099489  -0.080686  0  4.034931  0
C  C188  1  0.68954102  0.93099610  0.65145221  1  -0.065269  0  -0.097529  -0.149788  0  3.963875  0
C  C189  1  0.31045876  0.06900458  0.34854765  1  -0.065187  0  -0.097515  -0.149795  0  3.963915  0
C  C190  1  0.62091489  0.78692563  0.70155537  1  0.00469  0  -0.164676  -0.149033  0  3.972448  0
C  C191  1  0.37908553  0.21307422  0.29844317  1  0.004661  0  -0.164634  -0.14899  0  3.972546  0
C  C192  1  0.57027630  0.85271585  0.77304103  1  -0.071357  0  -0.250912  -0.352924  0  3.944273  0
C  C193  1  0.42972430  0.14728483  0.22695780  1  -0.07135  0  -0.250904  -0.352913  0  3.944385  0
N  N194  1  0.68452792  0.27618964  0.62951217  1  -1.233904  0  -0.335056  -0.241237  0  3.530878  0
N  N195  1  0.31547319  0.72381355  0.37048936  1  -1.233903  0  -0.335046  -0.241135  0  3.530793  0
N  N196  1  0.72713841  0.31226694  0.85337851  1  -1.255468  0  -0.335171  -0.242203  0  3.520258  0
N  N197  1  0.27285742  0.68773038  0.14661694  1  -1.255297  0  -0.335078  -0.242042  0  3.520307  0
N  N198  1  0.58337672  0.52491630  0.86408979  1  -1.240042  0  -0.334004  -0.245327  0  3.506452  0
N  N199  1  0.41662370  0.47508357  0.13591427  1  -1.240127  0  -0.333996  -0.245358  0  3.506596  0
N  N200  1  0.46596844  0.40289503  0.63448942  1  -1.252097  0  -0.334808  -0.240998  0  3.512608  0
N  N201  1  0.53403344  0.59710399  0.36550924  1  -1.252126  0  -0.334765  -0.240962  0  3.512566  0
N  N202  1  0.82693864  0.55374383  0.78233865  1  0.834067  0  0.08999  0.705256  0  4.440198  0
N  N203  1  0.17306247  0.44625936  0.21766350  1  0.834275  0  0.090005  0.705263  0  4.440134  0
N  N204  1  0.46189652  0.15264142  0.70955956  1  0.807995  0  0.091368  0.710838  0  4.433546  0
N  N205  1  0.53810489  0.84735928  0.29044193  1  0.807979  0  0.091247  0.710558  0  4.433919  0
O  O206  1  0.72494330  0.53594762  0.72804559  1  -0.587852  0  -0.207957  -0.478184  0  2.030232  0
O  O207  1  0.27505712  0.46405224  0.27195541  1  -0.587754  0  -0.207965  -0.478208  0  2.03027  0
O  O208  1  0.90211413  0.61038837  0.77333242  1  -0.541442  0  -0.175668  -0.426986  0  2.010034  0
O  O209  1  0.09788406  0.38961648  0.22666949  1  -0.541742  0  -0.175702  -0.426969  0  2.009873  0
O  O210  1  0.84979411  0.51322470  0.84361696  1  -0.560707  0  -0.194975  -0.463978  0  1.978107  0
O  O211  1  0.15020880  0.48677933  0.15638587  1  -0.560698  0  -0.194953  -0.463952  0  1.978072  0
O  O212  1  0.46939973  0.25602747  0.76063978  1  -0.590578  0  -0.212504  -0.473183  0  2.021117  0
O  O213  1  0.53059825  0.74397238  0.23935938  1  -0.590581  0  -0.212446  -0.473085  0  2.021148  0
O  O214  1  0.49478001  0.12779005  0.64084256  1  -0.543074  0  -0.197172  -0.461714  0  1.950367  0
O  O215  1  0.50522497  0.87220815  0.35916030  1  -0.543065  0  -0.197112  -0.461582  0  1.950526  0
O  O216  1  0.42271094  0.07864845  0.72993359  1  -0.527917  0  -0.182396  -0.442431  0  1.9938  0
O  O217  1  0.57728901  0.92135307  0.27006839  1  -0.527907  0  -0.182392  -0.442349  0  1.993827  0
F  F218  1  0.78372598  0.89023354  0.43456804  1  -0.630879  0  -0.070435  -0.09897  0  1.444706  0
F  F219  1  0.21627100  0.10976547  0.56543064  1  -0.630947  0  -0.070443  -0.098957  0  1.444649  0
F  F220  1  0.95077504  0.79873262  0.50715394  1  -0.630656  0  -0.078932  -0.111493  0  1.440097  0
F  F221  1  0.04922488  0.20126477  0.49285417  1  -0.630707  0  -0.078828  -0.111362  0  1.440157  0
F  F222  1  0.11388480  0.20519710  0.03879197  1  -0.624157  0  -0.071525  -0.099451  0  1.419486  0
F  F223  1  0.88611485  0.79480693  0.96121067  1  -0.624106  0  -0.071514  -0.099419  0  1.41946  0
F  F224  1  0.20377632  0.02507315  0.98347139  1  -0.631081  0  -0.082159  -0.116877  0  1.423773  0
F  F225  1  0.79622316  0.97493003  0.01652790  1  -0.631118  0  -0.08214  -0.116868  0  1.423778  0
F  F226  1  0.32676747  0.82137481  0.88644930  1  -0.632304  0  -0.080221  -0.105968  0  1.406459  0
F  F227  1  0.67322775  0.17862754  0.11355176  1  -0.63229  0  -0.080185  -0.105962  0  1.406479  0
F  F228  1  0.33495989  0.00297736  0.84799910  1  -0.625358  0  -0.082721  -0.098419  0  1.387974  0
F  F229  1  0.66503546  0.99702165  0.15199918  1  -0.625299  0  -0.082761  -0.098466  0  1.388083  0
F  F230  1  0.18880953  0.66396298  0.59199740  1  -0.634485  0  -0.078305  -0.105766  0  1.412207  0
F  F231  1  0.81119583  0.33604106  0.40800481  1  -0.634368  0  -0.078293  -0.105696  0  1.41225  0
F  F232  1  0.01152504  0.69430331  0.64531324  1  -0.627693  0  -0.081836  -0.103339  0  1.392559  0
F  F233  1  0.98848097  0.30569990  0.35469195  1  -0.627658  0  -0.081762  -0.103238  0  1.392598  0
