# generated using pymatgen
data_CuH14C12(NO)4
_symmetry_space_group_name_H-M   'P 1'
_cell_length_a   7.54031938
_cell_length_b   9.46055083
_cell_length_c   9.61509739
_cell_angle_alpha   89.99972079
_cell_angle_beta   90.00028276
_cell_angle_gamma   90.89940154
_symmetry_Int_Tables_number   1
_chemical_formula_structural   CuH14C12(NO)4
_chemical_formula_sum   'Cu2 H28 C24 N8 O8'
_cell_volume   685.81399275
_cell_formula_units_Z   2
loop_
 _symmetry_equiv_pos_site_id
 _symmetry_equiv_pos_as_xyz
  1  'x, y, z'
loop_
 _atom_site_type_symbol
 _atom_site_label
 _atom_site_symmetry_multiplicity
 _atom_site_fract_x
 _atom_site_fract_y
 _atom_site_fract_z
 _atom_site_occupancy
 _atom_site_hle17_ddec_charge
 _atom_site_hle17_ddec_spin_density
 _atom_site_hle17_ddec_sum_bond_order
 _atom_site_hle17_magmom
 _atom_site_hse06_10hf_ddec_charge
 _atom_site_hse06_10hf_ddec_spin_density
 _atom_site_hse06_10hf_ddec_sum_bond_order
 _atom_site_hse06_10hf_magmom
 _atom_site_hse06_ddec_charge
 _atom_site_hse06_ddec_spin_density
 _atom_site_hse06_ddec_sum_bond_order
 _atom_site_hse06_magmom
 _atom_site_pbe_cm5_charge
 _atom_site_pbe_ddec_charge
 _atom_site_pbe_ddec_spin_density
 _atom_site_pbe_ddec_sum_bond_order
 _atom_site_pbe_magmom
Cu  Cu0  1  0.76206117  0.75445984  0.04731501  1  0.843318  0.715666  1.764058  0.499  0.819431  0.79791  2.14614  0.61  0.9088  0.871103  2.080157  0.691  0.739205  0.762655  0.748505  2.195145  0.562
Cu  Cu1  1  0.23793873  0.24553351  0.54731211  1  0.843542  -0.71576  1.764254  -0.499  0.819452  -0.797914  2.146298  -0.61  0.908768  -0.871097  2.080298  -0.691  0.739272  0.762761  -0.748506  2.195199  -0.562
H  H2  1  0.56203313  0.45666152  0.45717283  1  0.102232  -0.000117  0.968162  -0.001  0.113665  -0.000176  1.024429  -0.001  0.115831  -0.000125  1.024076  0.0  0.117359  0.112152  -0.000207  1.024558  -0.001
H  H3  1  0.43796825  0.54334899  0.95717038  1  0.102453  0.000119  0.968427  0.001  0.113774  0.000178  1.024751  0.001  0.115953  0.000127  1.024376  0.0  0.117506  0.112263  0.000209  1.024882  0.001
H  H4  1  0.47839668  0.21636342  0.82223559  1  0.106964  -3.8e-05  0.949844  -0.001  0.114813  1.8e-05  1.01559  0.0  0.118096  2.5e-05  1.011254  0.0  0.137405  0.112499  -1.3e-05  1.018417  0.0
H  H5  1  0.52157796  0.78362582  0.32222995  1  0.106917  3.6e-05  0.950038  0.001  0.114772  -1.7e-05  1.015744  0.0  0.118052  -2.4e-05  1.011408  0.0  0.137422  0.11246  1.4e-05  1.018574  0.0
H  H6  1  0.85188730  0.49349539  0.63197454  1  0.130154  -0.000419  0.992883  -0.001  0.139952  -0.000302  1.051603  0.0  0.143039  -0.000237  1.04975  0.0  0.123408  0.13759  -0.000371  1.053118  -0.001
H  H7  1  0.14810926  0.50653673  0.13196339  1  0.130044  0.000423  0.992593  0.001  0.139822  0.000304  1.051397  0.0  0.142919  0.000239  1.049536  0.0  0.123306  0.137459  0.000373  1.05291  0.001
H  H8  1  0.74199616  0.26350377  0.95327999  1  0.089835  0.000339  0.949701  0.001  0.099554  0.000374  1.009781  0.001  0.101321  0.000234  1.009429  0.0  0.121181  0.098395  0.000593  1.009755  0.001
H  H9  1  0.25799745  0.73647830  0.45327754  1  0.08989  -0.00034  0.949741  -0.001  0.09962  -0.000374  1.009849  -0.001  0.101389  -0.000235  1.009498  0.0  0.121215  0.098465  -0.000594  1.009816  -0.001
H  H10  1  0.98758766  0.18511197  0.80747361  1  0.118006  0.000647  0.964387  0.001  0.133834  0.000359  1.032451  0.0  0.135563  0.000226  1.032619  0.0  0.090681  0.132636  0.000485  1.032297  0.001
H  H11  1  0.01238463  0.81485304  0.30749562  1  0.117547  -0.000644  0.9648  -0.001  0.133554  -0.000357  1.032722  0.0  0.135255  -0.000226  1.032916  0.0  0.090477  0.132356  -0.000483  1.032571  -0.001
H  H12  1  0.07219664  0.28747297  0.94743133  1  0.112623  -7.9e-05  0.939614  0.0  0.135213  -5.3e-05  0.996961  0.0  0.136723  -3.2e-05  0.997163  0.0  0.092699  0.134162  -6.7e-05  0.996782  0.0
H  H13  1  0.92778219  0.71250508  0.44745913  1  0.112437  7.9e-05  0.939791  0.0  0.134999  5.3e-05  0.997185  0.0  0.136508  3.2e-05  0.997379  0.0  0.092669  0.13395  6.7e-05  0.997007  0.0
H  H14  1  0.06077416  0.36309756  0.77734652  1  0.112508  0.000282  0.970428  0.0  0.124262  0.000275  1.048787  0.0  0.12619  0.000254  1.046996  0.0  0.087834  0.122581  0.000273  1.050358  0.0
H  H15  1  0.93923497  0.63686396  0.27734771  1  0.112361  -0.000281  0.970576  0.0  0.124135  -0.000275  1.048955  0.0  0.126046  -0.000254  1.047173  0.0  0.087768  0.122455  -0.000273  1.050525  0.0
H  H16  1  0.96277767  0.01606968  0.64380845  1  0.107195  -9.1e-05  0.967657  0.0  0.117286  -0.000176  1.024082  -0.001  0.119757  -0.00013  1.023207  0.0  0.118171  0.115328  -0.000207  1.0251  -0.001
H  H17  1  0.03724256  0.98392192  0.14382763  1  0.107294  9.1e-05  0.967338  0.0  0.117387  0.000177  1.023752  0.001  0.119855  0.00013  1.022876  0.0  0.118233  0.115423  0.000208  1.024771  0.001
H  H18  1  0.94592734  0.28681405  0.29418776  1  0.114933  -1.1e-05  0.933866  0.0  0.123667  1e-06  0.994697  0.0  0.127053  5e-06  0.99038  0.0  0.139579  0.121129  -2.4e-05  0.997665  0.0
H  H19  1  0.05407458  0.71319824  0.79420035  1  0.114931  1.3e-05  0.934094  0.0  0.12367  -1e-06  0.994893  0.0  0.127049  -5e-06  0.990584  0.0  0.139661  0.121155  2.4e-05  0.997832  0.0
H  H20  1  0.64474264  0.96966783  0.50145727  1  0.120663  -0.000422  0.994051  -0.001  0.131464  -0.000333  1.052874  0.0  0.13429  -0.000254  1.05134  0.0  0.121582  0.12934  -0.000395  1.054238  -0.001
H  H21  1  0.35528421  0.03030847  0.00146303  1  0.120648  0.000422  0.994108  0.001  0.131402  0.000334  1.052977  0.0  0.134229  0.000255  1.051445  0.0  0.121528  0.129278  0.000397  1.054336  0.001
H  H22  1  0.50367726  0.07261685  0.31199886  1  0.087627  -0.000513  0.903251  -0.001  0.099094  -0.000158  0.961702  0.0  0.100871  -0.000108  0.960005  0.0  0.125105  0.09736  -0.000161  0.963847  0.0
H  H23  1  0.49633383  0.92738996  0.81197079  1  0.087638  0.000511  0.903448  0.001  0.098928  0.000158  0.961982  0.0  0.100695  0.000108  0.960291  0.0  0.125121  0.097207  0.000161  0.964107  0.0
H  H24  1  0.48326486  0.32457813  0.29359066  1  0.115838  0.000881  0.98858  0.001  0.130446  0.000598  1.061381  0.001  0.132694  0.000432  1.060182  0.0  0.087445  0.128815  0.000758  1.062138  0.001
H  H25  1  0.51673643  0.67545215  0.79355669  1  0.115702  -0.000878  0.988757  -0.001  0.130324  -0.000598  1.061527  -0.001  0.132572  -0.000432  1.060332  0.0  0.087381  0.1287  -0.000758  1.062277  -0.001
H  H26  1  0.47780342  0.26097801  0.12117342  1  0.109293  -7.3e-05  0.954386  0.0  0.130135  -5e-06  1.016556  0.0  0.131618  -3e-06  1.016631  0.0  0.09014  0.129045  -8e-06  1.016449  0.0
H  H27  1  0.52221857  0.73902741  0.62114227  1  0.10935  7.3e-05  0.954569  0.0  0.130142  5e-06  1.016785  0.0  0.131611  3e-06  1.016876  0.0  0.090163  0.129058  8e-06  1.016674  0.0
H  H28  1  0.67587067  0.33971440  0.18600817  1  0.118492  -0.000131  0.993487  0.0  0.137042  -7e-05  1.058221  0.0  0.138975  -4.8e-05  1.058434  0.0  0.089576  0.135584  -8.7e-05  1.058184  0.0
H  H29  1  0.32416685  0.66027256  0.68600356  1  0.118424  0.000135  0.993259  0.0  0.137029  7e-05  1.057984  0.0  0.138958  4.9e-05  1.058206  0.0  0.089596  0.135575  8.7e-05  1.057935  0.0
C  C30  1  0.58631599  0.41251379  0.55906796  1  -0.004197  0.003019  3.742014  0.003  -0.033279  -0.000454  4.01033  0.0  -0.031708  -4e-06  4.033101  0.0  -0.0064  -0.034057  -0.000491  3.994767  -0.001
C  C31  1  0.41370423  0.58748876  0.05904202  1  -0.003984  -0.003005  3.74307  -0.003  -0.032932  0.000456  4.011314  0.0  -0.031354  4e-06  4.034082  0.0  -0.006241  -0.033724  0.000495  3.995746  0.001
C  C32  1  0.53611519  0.28781585  0.74622175  1  0.156446  0.007748  3.638078  0.007  0.098646  0.001147  3.90625  0.001  0.114271  0.001753  3.919444  0.002  0.137971  0.089061  0.000822  3.896612  0.001
C  C33  1  0.46388326  0.71218190  0.24623389  1  0.156902  -0.007724  3.638837  -0.007  0.099167  -0.001144  3.906921  -0.001  0.114804  -0.001753  3.92011  -0.002  0.138194  0.089572  -0.000818  3.897285  -0.001
C  C34  1  0.72947357  0.43333779  0.64500080  1  -0.035783  -0.004817  3.63485  -0.005  -0.075168  -0.002143  3.885234  -0.003  -0.072787  -0.00191  3.902823  -0.002  0.006098  -0.076775  -0.002209  3.873538  -0.003
C  C35  1  0.27056970  0.56666621  0.14496287  1  -0.035906  0.00481  3.634148  0.005  -0.07525  0.002145  3.884504  0.003  -0.07289  0.001912  3.902106  0.002  0.00598  -0.07685  0.002212  3.872805  0.003
C  C36  1  0.80791868  0.34270841  0.88657339  1  0.027048  0.010934  3.604455  0.012  0.011673  0.006619  3.832674  0.008  0.010152  0.004491  3.845413  0.005  0.018145  0.012699  0.008046  3.823745  0.009
C  C37  1  0.19204696  0.65727959  0.38659079  1  0.026599  -0.010906  3.604143  -0.012  0.011075  -0.006606  3.832613  -0.008  0.009547  -0.004478  3.845332  -0.005  0.018001  0.012098  -0.008029  3.823697  -0.009
C  C38  1  0.99386694  0.29165509  0.85146042  1  -0.322338  0.0001  3.663417  0.0  -0.406531  0.00027  3.909495  0.0  -0.408729  0.000186  3.918289  0.0  -0.246333  -0.404695  0.000328  3.903487  0.0
C  C39  1  0.00604931  0.70832944  0.35146215  1  -0.321144  -9.6e-05  3.662698  0.0  -0.405474  -0.000269  3.908676  0.0  -0.40762  -0.000186  3.917499  0.0  -0.245925  -0.40364  -0.000327  3.902678  0.0
C  C40  1  0.82094438  0.48015834  0.97164969  1  0.627896  -0.005095  3.855631  -0.009  0.582996  -0.000713  4.169214  -0.004  0.618261  -0.001248  4.163992  -0.004  0.208642  0.559251  -0.000144  4.17172  -0.004
C  C41  1  0.17904662  0.51989030  0.47165422  1  0.628542  0.005092  3.855734  0.009  0.583739  0.000709  4.169132  0.004  0.619022  0.001243  4.163886  0.004  0.208906  0.559983  0.000143  4.171665  0.004
C  C42  1  0.91280037  0.06459256  0.55010661  1  -0.004649  0.002738  3.756043  0.003  -0.032523  -0.000232  4.022459  0.0  -0.030378  0.000279  4.044539  0.001  -0.008452  -0.033794  -0.000608  4.007763  0.0
C  C43  1  0.08718244  0.93540416  0.05012315  1  -0.004515  -0.002728  3.756471  -0.003  -0.03239  0.000232  4.022887  0.0  -0.030235  -0.000278  4.044977  -0.001  -0.008355  -0.03366  0.00061  4.008179  0.0
C  C44  1  0.91057642  0.20622409  0.37002175  1  0.162708  0.006518  3.606982  0.006  0.108213  0.000647  3.871741  0.001  0.124279  0.001342  3.884158  0.001  0.141736  0.098459  0.000158  3.862594  0.0
C  C45  1  0.08942962  0.79378147  0.86999873  1  0.162554  -0.006514  3.607629  -0.006  0.108106  -0.000645  3.872381  -0.001  0.124178  -0.001342  3.884801  -0.001  0.141659  0.098337  -0.000157  3.863208  0.0
C  C46  1  0.75670185  0.03980453  0.48128434  1  -0.046783  -0.00455  3.672994  -0.005  -0.089071  -0.001981  3.928767  -0.002  -0.08704  -0.001779  3.94684  -0.002  0.002027  -0.090723  -0.002079  3.917072  -0.002
C  C47  1  0.24327533  0.96019453  0.98130695  1  -0.046903  0.004557  3.672402  0.005  -0.08914  0.001985  3.928209  0.002  -0.087118  0.001782  3.946288  0.002  0.00202  -0.090786  0.002082  3.916507  0.002
C  C48  1  0.61720799  0.12652074  0.26120490  1  0.043195  0.010223  3.585568  0.011  0.024409  0.006161  3.823268  0.007  0.023926  0.004353  3.836044  0.005  0.019768  0.024992  0.007647  3.814803  0.008
C  C49  1  0.38281917  0.87346284  0.76118907  1  0.043252  -0.010218  3.586538  -0.011  0.024947  -0.006161  3.823522  -0.007  0.024496  -0.004351  3.836306  -0.005  0.019788  0.025518  -0.007646  3.815085  -0.008
C  C50  1  0.56177347  0.27216056  0.21366562  1  -0.344714  0.001644  3.703567  0.002  -0.432437  0.001227  3.94971  0.001  -0.435844  0.000829  3.959772  0.001  -0.256534  -0.429936  0.001423  3.942732  0.001
C  C51  1  0.43824989  0.72786770  0.71363311  1  -0.344477  -0.001649  3.704489  -0.002  -0.432308  -0.001227  3.950489  -0.001  -0.435718  -0.000828  3.960572  -0.001  -0.256444  -0.429806  -0.001422  3.9435  -0.001
C  C52  1  0.67001797  0.02564833  0.14098809  1  0.614915  -0.004525  3.858327  -0.008  0.568375  -0.000206  4.174868  -0.003  0.603511  -0.000792  4.1699  -0.003  0.207212  0.544763  0.000687  4.177322  -0.003
C  C53  1  0.32999802  0.97433698  0.64097878  1  0.614908  0.004531  3.85818  0.008  0.568383  0.000203  4.174635  0.003  0.603485  0.000793  4.169711  0.003  0.207353  0.544763  -0.000685  4.177092  0.003
N  N54  1  0.46651119  0.32081157  0.62267934  1  -0.363726  -0.071521  3.338636  -0.087  -0.323072  -0.050414  3.659355  -0.065  -0.353737  -0.042925  3.679579  -0.058  -0.380555  -0.303956  -0.054081  3.646918  -0.068
N  N55  1  0.53342873  0.67916419  0.12268364  1  -0.363906  0.071602  3.33902  0.088  -0.323387  0.050464  3.659833  0.065  -0.354098  0.042962  3.680106  0.059  -0.380739  -0.304228  0.05414  3.647373  0.068
N  N56  1  0.69549357  0.35419130  0.76292173  1  -0.062936  -0.001977  3.546878  -0.003  0.029281  -0.001074  3.756991  -0.002  0.015868  -0.000717  3.781743  -0.001  -0.23409  0.037942  -0.001325  3.74013  -0.002
N  N57  1  0.30452895  0.64584309  0.26292307  1  -0.063364  0.001977  3.546651  0.003  0.02887  0.001073  3.756799  0.002  0.015458  0.000715  3.781541  0.001  -0.234056  0.037535  0.001323  3.739946  0.002
N  N58  1  0.00801683  0.16867939  0.48017465  1  -0.364579  -0.07095  3.346484  -0.087  -0.325656  -0.050222  3.671864  -0.065  -0.356051  -0.042611  3.690157  -0.058  -0.379411  -0.306395  -0.054436  3.66042  -0.068
N  N59  1  0.99203408  0.83133992  0.98017849  1  -0.364445  0.071019  3.347092  0.087  -0.325618  0.050265  3.672563  0.065  -0.356044  0.04264  3.690897  0.058  -0.379297  -0.306331  0.054485  3.661109  0.068
N  N60  1  0.75630099  0.12977516  0.36844490  1  -0.067487  -0.001703  3.541123  -0.003  0.025156  -0.000947  3.753097  -0.002  0.011481  -0.000672  3.777997  -0.001  -0.233628  0.03403  -0.001109  3.736107  -0.002
N  N61  1  0.24368619  0.87022323  0.86842740  1  -0.067495  0.001701  3.5407  0.003  0.025017  0.000945  3.752577  0.002  0.011335  0.000671  3.777476  0.001  -0.233732  0.033894  0.001107  3.735595  0.002
O  O62  1  0.88213462  0.47097838  0.09219335  1  -0.616165  0.000581  1.969402  0.002  -0.58068  0.000147  2.206644  0.001  -0.606241  -0.000702  2.198194  0.0  -0.317991  -0.56272  0.001073  2.211748  0.002
O  O63  1  0.11788266  0.52901242  0.59222069  1  -0.616607  -0.000568  1.969124  -0.002  -0.581127  -0.000144  2.20624  -0.001  -0.60668  0.000703  2.19776  0.0  -0.318249  -0.563177  -0.00107  2.211378  -0.002
O  O64  1  0.76904066  0.59466640  0.91267536  1  -0.588782  0.104331  2.067036  0.135  -0.562812  0.069484  2.350385  0.099  -0.60534  0.054736  2.343831  0.082  -0.321846  -0.534631  0.078051  2.354948  0.107
O  O65  1  0.23093496  0.40537000  0.41264951  1  -0.589139  -0.104426  2.06671  -0.136  -0.563136  -0.069544  2.349903  -0.099  -0.605679  -0.054777  2.343336  -0.082  -0.321827  -0.534944  -0.078129  2.354441  -0.107
O  O66  1  0.74241423  0.91124918  0.18398192  1  -0.598113  0.097979  2.126407  0.127  -0.569667  0.066183  2.418353  0.094  -0.613012  0.052348  2.414283  0.078  -0.321798  -0.541582  0.073727  2.421664  0.101
O  O67  1  0.25759436  0.08874450  0.68400592  1  -0.598077  -0.098059  2.126042  -0.127  -0.569653  -0.066244  2.417839  -0.094  -0.612982  -0.0524  2.413756  -0.078  -0.321721  -0.541609  -0.073801  2.421229  -0.101
O  O68  1  0.63324129  0.05507573  0.01781081  1  -0.601728  0.001528  1.952992  0.003  -0.567678  0.00064  2.191582  0.002  -0.591609  -0.000354  2.182156  0.001  -0.316156  -0.551231  0.001266  2.197841  0.003
O  O69  1  0.36675486  0.94492731  0.51778622  1  -0.60188  -0.00152  1.952936  -0.003  -0.567935  -0.000635  2.19161  -0.002  -0.591858  0.000354  2.182194  -0.001  -0.316412  -0.551481  -0.001264  2.197878  -0.003
