# generated using pymatgen
data_LiPH10C9O4
_symmetry_space_group_name_H-M   'P 1'
_cell_length_a   5.74721042
_cell_length_b   11.84691894
_cell_length_c   15.12291271
_cell_angle_alpha   102.80774470
_cell_angle_beta   89.98236230
_cell_angle_gamma   104.05781894
_symmetry_Int_Tables_number   1
_chemical_formula_structural   LiPH10C9O4
_chemical_formula_sum   'Li4 P4 H40 C36 O16'
_cell_volume   972.41940553
_cell_formula_units_Z   4
loop_
 _symmetry_equiv_pos_site_id
 _symmetry_equiv_pos_as_xyz
  1  'x, y, z'
loop_
 _atom_site_type_symbol
 _atom_site_label
 _atom_site_symmetry_multiplicity
 _atom_site_fract_x
 _atom_site_fract_y
 _atom_site_fract_z
 _atom_site_occupancy
 _atom_site_hle17_bader_spin_density
 _atom_site_hle17_ddec_charge
 _atom_site_hle17_ddec_spin_density
 _atom_site_hle17_ddec_sum_bond_order
 _atom_site_hle17_magmom
 _atom_site_hse06_10hf_bader_spin_density
 _atom_site_hse06_10hf_ddec_charge
 _atom_site_hse06_10hf_ddec_spin_density
 _atom_site_hse06_10hf_ddec_sum_bond_order
 _atom_site_hse06_10hf_magmom
 _atom_site_hse06_bader_spin_density
 _atom_site_hse06_ddec_charge
 _atom_site_hse06_ddec_spin_density
 _atom_site_hse06_ddec_sum_bond_order
 _atom_site_hse06_magmom
 _atom_site_pbe_bader_spin_density
 _atom_site_pbe_cm5_charge
 _atom_site_pbe_ddec_charge
 _atom_site_pbe_ddec_spin_density
 _atom_site_pbe_ddec_sum_bond_order
 _atom_site_pbe_magmom
Li  Li0  1  0.08564675  0.42952589  0.03696147  1  0  0.860772  0  0.402035  0  0  0.82734  0  0.495869  0  0  0.835251  0  0.481128  0  0  0.529846  0.821527  0  0.506504  0
Li  Li1  1  0.65645150  0.57044395  0.46302405  1  0  0.860839  0  0.401843  0  0  0.827157  0  0.495816  0  0  0.835208  0  0.481063  0  0  0.529618  0.82128  0  0.506446  0
Li  Li2  1  0.91435315  0.57047688  0.96303744  1  0  0.860748  0  0.402068  0  0  0.827333  0  0.495875  0  0  0.835241  0  0.481137  0  0  0.529896  0.821532  0  0.506506  0
Li  Li3  1  0.34354995  0.42954455  0.53697773  1  0  0.860828  0  0.40181  0  0  0.827144  0  0.495794  0  0  0.835192  0  0.481043  0  0  0.529623  0.821272  0  0.506422  0
P  P4  1  0.54016198  0.33458889  0.93589214  1  0  1.296312  0  4.640442  0  0  1.171367  0  5.113518  0  0  1.210188  0  5.088676  0  0  0.313343  1.14441  0  5.130228  0
P  P5  1  0.20605224  0.66550085  0.56409366  1  0  1.296261  0  4.639514  0  0  1.171412  0  5.111545  0  0  1.210228  0  5.086784  0  0  0.313912  1.144458  0  5.128225  0
P  P6  1  0.45983452  0.66542102  0.06410534  1  0  1.296101  0  4.640404  0  0  1.171114  0  5.113457  0  0  1.209932  0  5.088631  0  0  0.313375  1.144156  0  5.13017  0
P  P7  1  0.79394528  0.33448677  0.43590929  1  0  1.296344  0  4.639432  0  0  1.171469  0  5.111465  0  0  1.210307  0  5.086715  0  0  0.313919  1.14452  0  5.12813  0
H  H8  1  0.84846925  0.17472084  0.86201303  1  0  0.078103  0  0.981898  0  0  0.087965  0  1.050811  0  0  0.090382  0  1.049544  0  0  0.10199  0.086188  0  1.051824  0
H  H9  1  0.67406468  0.82578371  0.63811120  1  0  0.079219  0  0.983147  0  0  0.088992  0  1.051916  0  0  0.091375  0  1.050676  0  0  0.102631  0.087229  0  1.052924  0
H  H10  1  0.15152452  0.82528013  0.13798294  1  0  0.078168  0  0.981824  0  0  0.087971  0  1.050782  0  0  0.090387  0  1.049518  0  0  0.101996  0.086193  0  1.051799  0
H  H11  1  0.32593868  0.17421904  0.36188440  1  0  0.079229  0  0.98305  0  0  0.088994  0  1.051833  0  0  0.091385  0  1.050574  0  0  0.102656  0.087232  0  1.05284  0
H  H12  1  0.77924266  0.95374586  0.82923465  1  0  0.080412  0  0.967914  0  0  0.091521  0  1.029991  0  0  0.093915  0  1.029521  0  0  0.097711  0.089767  0  1.030467  0
H  H13  1  0.82538205  0.04674235  0.67090035  1  0  0.078555  0  0.966875  0  0  0.090142  0  1.028976  0  0  0.092467  0  1.028588  0  0  0.097203  0.088461  0  1.029369  0
H  H14  1  0.22074151  0.04625332  0.17076101  1  0  0.080575  0  0.967807  0  0  0.091632  0  1.029945  0  0  0.094032  0  1.029457  0  0  0.097757  0.089903  0  1.030396  0
H  H15  1  0.17460561  0.95325683  0.32909531  1  0  0.078552  0  0.96698  0  0  0.090126  0  1.029085  0  0  0.09245  0  1.028702  0  0  0.097181  0.088445  0  1.029477  0
H  H16  1  0.39009529  0.82784373  0.85983653  1  0  0.096514  0  0.958266  0  0  0.106921  0  1.018575  0  0  0.109776  0  1.017117  0  0  0.10265  0.104837  0  1.019706  0
H  H17  1  0.56187851  0.17241066  0.64012485  1  0  0.096555  0  0.958256  0  0  0.107161  0  1.018253  0  0  0.110118  0  1.016692  0  0  0.103125  0.105006  0  1.019456  0
H  H18  1  0.60988899  0.17216261  0.14016366  1  0  0.096571  0  0.958076  0  0  0.106935  0  1.018424  0  0  0.10979  0  1.016968  0  0  0.102652  0.104852  0  1.019555  0
H  H19  1  0.43810691  0.82758404  0.35987004  1  0  0.09655  0  0.958201  0  0  0.107146  0  1.018215  0  0  0.110101  0  1.016657  0  0  0.103133  0.104989  0  1.019419  0
H  H20  1  0.06623979  0.92356280  0.92473701  1  0  0.081495  0  0.969278  0  0  0.092669  0  1.031861  0  0  0.09507  0  1.031284  0  0  0.099072  0.090932  0  1.032398  0
H  H21  1  0.14250873  0.07629437  0.57508931  1  0  0.082715  0  0.969834  0  0  0.094218  0  1.0318  0  0  0.096582  0  1.031323  0  0  0.099637  0.092493  0  1.032256  0
H  H22  1  0.93375365  0.07644447  0.07526664  1  0  0.081552  0  0.969254  0  0  0.092714  0  1.031841  0  0  0.095113  0  1.031269  0  0  0.09911  0.090976  0  1.032381  0
H  H23  1  0.85748186  0.92369675  0.42490365  1  0  0.082683  0  0.969924  0  0  0.094259  0  1.031804  0  0  0.096614  0  1.031343  0  0  0.099666  0.092531  0  1.03226  0
H  H24  1  0.13567996  0.14437346  0.95750592  1  0  0.084042  0  0.977269  0  0  0.093653  0  1.043805  0  0  0.096649  0  1.042057  0  0  0.103845  0.091469  0  1.045169  0
H  H25  1  0.99152376  0.85549601  0.54241431  1  0  0.082872  0  0.975718  0  0  0.092554  0  1.04253  0  0  0.095552  0  1.040722  0  0  0.103461  0.090368  0  1.04394  0
H  H26  1  0.86431566  0.85563469  0.04249655  1  0  0.08397  0  0.977173  0  0  0.093554  0  1.043769  0  0  0.096548  0  1.042022  0  0  0.103816  0.091369  0  1.045136  0
H  H27  1  0.00846597  0.14449689  0.45757698  1  0  0.082844  0  0.97592  0  0  0.092528  0  1.042722  0  0  0.095524  0  1.040916  0  0  0.103449  0.090343  0  1.044133  0
H  H28  1  0.49082430  0.47167769  0.85011502  1  0  0.131267  0  0.950796  0  0  0.146478  0  1.006425  0  0  0.148784  0  1.006196  0  0  0.121461  0.144766  0  1.006771  0
H  H29  1  0.01908415  0.52827327  0.64981905  1  0  0.130839  0  0.950704  0  0  0.14594  0  1.006455  0  0  0.148245  0  1.00624  0  0  0.121369  0.144239  0  1.006796  0
H  H30  1  0.50915371  0.52831613  0.14988172  1  0  0.131297  0  0.950745  0  0  0.146469  0  1.006402  0  0  0.148777  0  1.00617  0  0  0.121454  0.144755  0  1.006746  0
H  H31  1  0.98093540  0.47173403  0.35018989  1  0  0.130876  0  0.950687  0  0  0.145943  0  1.006434  0  0  0.148263  0  1.006217  0  0  0.121357  0.144237  0  1.006772  0
H  H32  1  0.60863252  0.35729900  0.78501180  1  0  0.132706  0  0.935623  0  0  0.144953  0  0.996535  0  0  0.147522  0  0.995765  0  0  0.112318  0.143093  0  0.997167  0
H  H33  1  0.25141947  0.64258541  0.71494977  1  0  0.132053  0  0.935714  0  0  0.144619  0  0.996222  0  0  0.14715  0  0.995485  0  0  0.112217  0.1428  0  0.996825  0
H  H34  1  0.39134252  0.64269931  0.21498834  1  0  0.132756  0  0.935404  0  0  0.144876  0  0.996457  0  0  0.147449  0  0.995684  0  0  0.112285  0.143014  0  0.99709  0
H  H35  1  0.74860348  0.35741826  0.28504929  1  0  0.132061  0  0.935828  0  0  0.144616  0  0.996313  0  0  0.147158  0  0.995589  0  0  0.112236  0.142796  0  0.996915  0
H  H36  1  0.18480381  0.21501150  0.77568049  1  0  0.102091  0  0.927277  0  0  0.117385  0  0.989435  0  0  0.118798  0  0.990158  0  0  0.105547  0.116351  0  0.989013  0
H  H37  1  0.97036432  0.78499620  0.72432152  1  0  0.10295  0  0.928019  0  0  0.118386  0  0.989733  0  0  0.119809  0  0.990428  0  0  0.105952  0.117359  0  0.989329  0
H  H38  1  0.81517553  0.78498148  0.22432403  1  0  0.102098  0  0.927404  0  0  0.117383  0  0.989518  0  0  0.118795  0  0.99024  0  0  0.105596  0.116341  0  0.989107  0
H  H39  1  0.02967132  0.21501196  0.27568294  1  0  0.1029  0  0.928067  0  0  0.118372  0  0.989755  0  0  0.119799  0  0.990445  0  0  0.105919  0.117344  0  0.989354  0
H  H40  1  0.07737157  0.33964532  0.82860111  1  0  0.120388  0  0.926837  0  0  0.135847  0  0.985055  0  0  0.138688  0  0.983463  0  0  0.120007  0.13374  0  0.986371  0
H  H41  1  0.73795048  0.66041920  0.67155420  1  0  0.120524  0  0.927108  0  0  0.136269  0  0.984737  0  0  0.139084  0  0.983144  0  0  0.120038  0.134207  0  0.986013  0
H  H42  1  0.92261089  0.66035390  0.17140183  1  0  0.120441  0  0.926837  0  0  0.135873  0  0.985048  0  0  0.138714  0  0.983456  0  0  0.120022  0.133764  0  0.986368  0
H  H43  1  0.26207736  0.33959075  0.32845188  1  0  0.120616  0  0.926891  0  0  0.136364  0  0.984533  0  0  0.139177  0  0.982949  0  0  0.120088  0.134302  0  0.985809  0
H  H44  1  0.96650975  0.32256208  0.59491458  1  0  0.4072  0  0.889846  0  0  0.374633  0  0.970974  0  0  0.387123  0  0.955874  0  0  0.308904  0.365873  0  0.980301  0
H  H45  1  0.64484658  0.67782120  0.90535352  1  0  0.406279  0  0.890523  0  0  0.374306  0  0.970843  0  0  0.386795  0  0.956221  0  0  0.308607  0.365554  0  0.980133  0
H  H46  1  0.03349355  0.67743360  0.40509238  1  0  0.407266  0  0.889744  0  0  0.374684  0  0.970874  0  0  0.387178  0  0.955785  0  0  0.308944  0.36592  0  0.980206  0
H  H47  1  0.35516594  0.32218247  0.09464687  1  0  0.40635  0  0.890419  0  0  0.374458  0  0.970611  0  0  0.386947  0  0.955999  0  0  0.308654  0.365707  0  0.979905  0
C  C48  1  0.49612776  0.17394325  0.91129662  1  0  -0.241484  0  3.776955  0  0  -0.195569  0  4.007488  0  0  -0.20542  0  4.033086  0  0  -0.029515  -0.188986  0  3.990232  0
C  C49  1  0.32248794  0.82616268  0.58873128  1  0  -0.240405  0  3.780939  0  0  -0.194308  0  4.01093  0  0  -0.204194  0  4.036564  0  0  -0.029589  -0.187701  0  3.993649  0
C  C50  1  0.50386304  0.82606221  0.08870407  1  0  -0.24134  0  3.777246  0  0  -0.195361  0  4.007687  0  0  -0.205211  0  4.033286  0  0  -0.02951  -0.188785  0  3.990441  0
C  C51  1  0.67751533  0.17383293  0.41126443  1  0  -0.240512  0  3.781279  0  0  -0.194416  0  4.011283  0  0  -0.204305  0  4.036921  0  0  -0.029585  -0.187803  0  3.993993  0
C  C52  1  0.67675902  0.11940017  0.87513260  1  0  -0.046051  0  3.763777  0  0  -0.067661  0  4.002848  0  0  -0.067966  0  4.025422  0  0  -0.079447  -0.067254  0  3.987458  0
C  C53  1  0.55755527  0.88090998  0.62492274  1  0  -0.049207  0  3.769056  0  0  -0.071008  0  4.008521  0  0  -0.071238  0  4.031002  0  0  -0.080855  -0.070636  0  3.993192  0
C  C54  1  0.32322948  0.88059721  0.12486077  1  0  -0.046064  0  3.763932  0  0  -0.067643  0  4.002997  0  0  -0.06795  0  4.025571  0  0  -0.07944  -0.067232  0  3.987615  0
C  C55  1  0.44245421  0.11909458  0.37507647  1  0  -0.049286  0  3.76903  0  0  -0.071086  0  4.008496  0  0  -0.071316  0  4.030986  0  0  -0.080942  -0.07072  0  3.993166  0
C  C56  1  0.63759165  0.99548154  0.85679731  1  0  -0.071016  0  3.773746  0  0  -0.082596  0  4.021892  0  0  -0.085915  0  4.044595  0  0  -0.091015  -0.080342  0  4.006442  0
C  C57  1  0.64204137  0.00482731  0.64324346  1  0  -0.067394  0  3.770758  0  0  -0.079297  0  4.019209  0  0  -0.082562  0  4.041964  0  0  -0.089746  -0.0771  0  4.003704  0
C  C58  1  0.36238596  0.00451496  0.14319921  1  0  -0.071377  0  3.773726  0  0  -0.082949  0  4.021913  0  0  -0.08627  0  4.044622  0  0  -0.091119  -0.080708  0  4.006448  0
C  C59  1  0.35794847  0.99517276  0.35675301  1  0  -0.067346  0  3.77061  0  0  -0.079209  0  4.019011  0  0  -0.082477  0  4.041766  0  0  -0.089715  -0.07701  0  4.003506  0
C  C60  1  0.41782046  0.92450881  0.87384222  1  0  -0.051485  0  3.733512  0  0  -0.065873  0  3.978768  0  0  -0.066423  0  4.00004  0  0  -0.084852  -0.065301  0  3.96421  0
C  C61  1  0.49319630  0.07570084  0.62614543  1  0  -0.050255  0  3.732091  0  0  -0.064797  0  3.977386  0  0  -0.065404  0  3.998638  0  0  -0.084744  -0.064196  0  3.962852  0
C  C62  1  0.58216505  0.07549304  0.12615257  1  0  -0.05131  0  3.733159  0  0  -0.06561  0  3.978353  0  0  -0.066159  0  3.999629  0  0  -0.084758  -0.065046  0  3.963803  0
C  C63  1  0.50679742  0.92429656  0.37385058  1  0  -0.050265  0  3.731921  0  0  -0.064826  0  3.977287  0  0  -0.065427  0  3.998538  0  0  -0.084727  -0.064226  0  3.962749  0
C  C64  1  0.23704869  0.97815544  0.90985235  1  0  -0.076375  0  3.770493  0  0  -0.086108  0  4.01681  0  0  -0.089629  0  4.039764  0  0  -0.091594  -0.083736  0  4.001166  0
C  C65  1  0.25880422  0.02183371  0.59006670  1  0  -0.080623  0  3.772983  0  0  -0.090818  0  4.019852  0  0  -0.094396  0  4.04288  0  0  -0.093255  -0.088371  0  4.004129  0
C  C66  1  0.76293902  0.02184734  0.09014723  1  0  -0.076558  0  3.770746  0  0  -0.086298  0  4.017067  0  0  -0.089822  0  4.040026  0  0  -0.091669  -0.083922  0  4.001421  0
C  C67  1  0.74119168  0.97816457  0.40992748  1  0  -0.080575  0  3.773012  0  0  -0.090824  0  4.019882  0  0  -0.094398  0  4.04292  0  0  -0.093288  -0.088371  0  4.004155  0
C  C68  1  0.27556549  0.10218237  0.92838267  1  0  -0.057775  0  3.775238  0  0  -0.080824  0  4.017672  0  0  -0.081275  0  4.040101  0  0  -0.08473  -0.080322  0  4.002399  0
C  C69  1  0.17359510  0.89778225  0.57158037  1  0  -0.055403  0  3.775028  0  0  -0.07855  0  4.017465  0  0  -0.07893  0  4.039871  0  0  -0.084002  -0.078104  0  4.002218  0
C  C70  1  0.72442569  0.89782039  0.07161492  1  0  -0.05766  0  3.775119  0  0  -0.080701  0  4.017574  0  0  -0.081151  0  4.040002  0  0  -0.084666  -0.080198  0  4.002304  0
C  C71  1  0.82640469  0.10221336  0.42841600  1  0  -0.055288  0  3.775186  0  0  -0.078444  0  4.017616  0  0  -0.078823  0  4.040021  0  0  -0.083964  -0.078003  0  4.002375  0
C  C72  1  0.46840918  0.37443880  0.83195251  1  0  -0.40387  0  3.697896  0  0  -0.424972  0  3.948383  0  0  -0.432967  0  3.958448  0  0  -0.16047  -0.419382  0  3.941548  0
C  C73  1  0.09404749  0.62553503  0.66803409  1  0  -0.401769  0  3.694621  0  0  -0.423203  0  3.945135  0  0  -0.431151  0  3.955166  0  0  -0.160075  -0.417632  0  3.938266  0
C  C74  1  0.53159809  0.62556134  0.16805389  1  0  -0.403967  0  3.697791  0  0  -0.424853  0  3.947974  0  0  -0.432859  0  3.958044  0  0  -0.160456  -0.419257  0  3.941133  0
C  C75  1  0.90597240  0.37446599  0.33196982  1  0  -0.401966  0  3.694672  0  0  -0.42331  0  3.945161  0  0  -0.431329  0  3.955284  0  0  -0.160102  -0.417731  0  3.938284  0
C  C76  1  0.22010831  0.31307949  0.78665454  1  0  -0.220998  0  3.691979  0  0  -0.264433  0  3.943651  0  0  -0.269401  0  3.952579  0  0  -0.148527  -0.260925  0  3.937438  0
C  C77  1  0.90732003  0.68696774  0.71342157  1  0  -0.225367  0  3.693503  0  0  -0.2689  0  3.944916  0  0  -0.273815  0  3.953678  0  0  -0.15007  -0.265459  0  3.938931  0
C  C78  1  0.77989112  0.68691888  0.21335421  1  0  -0.220963  0  3.692706  0  0  -0.264292  0  3.944245  0  0  -0.269255  0  3.953165  0  0  -0.148511  -0.260777  0  3.938037  0
C  C79  1  0.09271297  0.31303860  0.28657795  1  0  -0.225303  0  3.69357  0  0  -0.26891  0  3.944975  0  0  -0.273794  0  3.953729  0  0  -0.15005  -0.265473  0  3.938997  0
C  C80  1  0.19172101  0.33948646  0.69462499  1  0  0.723944  0  3.730462  0  0  0.679426  0  4.033378  0  0  0.711361  0  4.025039  0  0  0.248396  0.657672  0  4.038547  0
C  C81  1  0.85278674  0.66072007  0.80546737  1  0  0.726747  0  3.728783  0  0  0.682502  0  4.031148  0  0  0.714455  0  4.0227  0  0  0.248077  0.660732  0  4.036422  0
C  C82  1  0.80830545  0.66052073  0.30536673  1  0  0.723814  0  3.73039  0  0  0.679109  0  4.033538  0  0  0.711054  0  4.025194  0  0  0.24818  0.65736  0  4.038696  0
C  C83  1  0.14724011  0.33928096  0.19453851  1  0  0.72675  0  3.728532  0  0  0.682594  0  4.030841  0  0  0.714535  0  4.02241  0  0  0.247978  0.660818  0  4.036126  0
O  O84  1  0.80422337  0.39707525  0.96137524  1  0  -0.946728  0  1.905265  0  0  -0.888342  0  2.166091  0  0  -0.907222  0  2.144742  0  0  -0.501717  -0.874867  0  2.180502  0
O  O85  1  0.40766149  0.60303786  0.53869571  1  0  -0.946992  0  1.905482  0  0  -0.888816  0  2.166883  0  0  -0.907775  0  2.145588  0  0  -0.50199  -0.875298  0  2.181257  0
O  O86  1  0.19576867  0.60292573  0.03862270  1  0  -0.94676  0  1.905215  0  0  -0.888338  0  2.165994  0  0  -0.907218  0  2.144646  0  0  -0.501764  -0.874866  0  2.180412  0
O  O87  1  0.59234527  0.39695779  0.46130596  1  0  -0.946976  0  1.905438  0  0  -0.888796  0  2.166828  0  0  -0.907754  0  2.145526  0  0  -0.501974  -0.875285  0  2.181201  0
O  O88  1  0.35810979  0.36245947  0.00673156  1  0  -0.889961  0  1.996082  0  0  -0.818786  0  2.247236  0  0  -0.84072  0  2.228215  0  0  -0.427078  -0.803246  0  2.259804  0
O  O89  1  0.99626424  0.63744692  0.49318601  1  0  -0.890006  0  1.995874  0  0  -0.81848  0  2.247291  0  0  -0.840478  0  2.228206  0  0  -0.426618  -0.802901  0  2.259845  0
O  O90  1  0.64189483  0.63753885  0.99326924  1  0  -0.889865  0  1.995966  0  0  -0.818683  0  2.247205  0  0  -0.840597  0  2.228145  0  0  -0.427123  -0.803146  0  2.259771  0
O  O91  1  0.00373900  0.36254515  0.50681505  1  0  -0.890007  0  1.995803  0  0  -0.818463  0  2.247178  0  0  -0.840458  0  2.228083  0  0  -0.426628  -0.802895  0  2.259733  0
O  O92  1  0.96795069  0.30202152  0.65869119  1  0  -0.566181  0  2.059376  0  0  -0.514378  0  2.278453  0  0  -0.536912  0  2.263451  0  0  -0.323293  -0.498682  0  2.287446  0
O  O93  1  0.66694225  0.69839994  0.84155800  1  0  -0.565329  0  2.058015  0  0  -0.514461  0  2.277011  0  0  -0.537028  0  2.2624  0  0  -0.322755  -0.498741  0  2.285968  0
O  O94  1  0.03202252  0.69796965  0.34130972  1  0  -0.566015  0  2.059912  0  0  -0.514126  0  2.279026  0  0  -0.536658  0  2.264035  0  0  -0.3231  -0.498441  0  2.288024  0
O  O95  1  0.33308122  0.30160822  0.15844646  1  0  -0.565377  0  2.057924  0  0  -0.514632  0  2.276884  0  0  -0.537192  0  2.262278  0  0  -0.322825  -0.498918  0  2.285855  0
O  O96  1  0.36244340  0.38997790  0.65568741  1  0  -0.622971  0  1.896243  0  0  -0.580205  0  2.109242  0  0  -0.599264  0  2.099356  0  0  -0.3426  -0.567192  0  2.1158  0
O  O97  1  0.97276895  0.61012790  0.84436459  1  0  -0.623952  0  1.895686  0  0  -0.581438  0  2.108709  0  0  -0.600504  0  2.098819  0  0  -0.342366  -0.568433  0  2.115316  0
O  O98  1  0.63755121  0.61001781  0.34432551  1  0  -0.623152  0  1.895103  0  0  -0.580336  0  2.108161  0  0  -0.599418  0  2.098302  0  0  -0.342726  -0.567323  0  2.114714  0
O  O99  1  0.02724447  0.38987756  0.15563544  1  0  -0.624061  0  1.895241  0  0  -0.581547  0  2.108206  0  0  -0.600606  0  2.09831  0  0  -0.342333  -0.568541  0  2.114816  0
