# generated using pymatgen
data_ZnH31C26NO8
_symmetry_space_group_name_H-M   'P 1'
_cell_length_a   12.70999224
_cell_length_b   14.06354143
_cell_length_c   16.94293645
_cell_angle_alpha   92.14794159
_cell_angle_beta   90.23816121
_cell_angle_gamma   94.85432340
_symmetry_Int_Tables_number   1
_chemical_formula_structural   ZnH31C26NO8
_chemical_formula_sum   'Zn2 H62 C52 N2 O16'
_cell_volume   3015.44262283
_cell_formula_units_Z   2
loop_
 _symmetry_equiv_pos_site_id
 _symmetry_equiv_pos_as_xyz
  1  'x, y, z'
loop_
 _atom_site_type_symbol
 _atom_site_label
 _atom_site_symmetry_multiplicity
 _atom_site_fract_x
 _atom_site_fract_y
 _atom_site_fract_z
 _atom_site_occupancy
 _atom_site_pbe_bader_charge
 _atom_site_pbe_bader_spin_density
 _atom_site_pbe_cm5_charge
 _atom_site_pbe_ddec_charge
 _atom_site_pbe_ddec_spin_density
 _atom_site_pbe_ddec_sum_bond_order
 _atom_site_pbe_magmom
Zn  Zn0  1  0.40504607  0.49263105  0.48087940  1  1.308621  0  0.689674  0.881507  0  2.467956  0
Zn  Zn1  1  0.62103820  0.50313669  0.49173257  1  1.307882  0  0.684978  0.871166  0  2.45236  0
H  H2  1  0.67534602  0.58699186  0.71693754  1  0.106375  0  0.102676  0.111762  0  1.001743  0
H  H3  1  0.74194805  0.74504167  0.39774201  1  0.07473  0  0.091447  0.092105  0  0.996594  0
H  H4  1  0.92552081  0.72409022  0.34099697  1  0.013637  0  0.080052  0.099714  0  1.020948  0
H  H5  1  0.91493485  0.84201285  0.38005536  1  0.022499  0  0.082052  0.104467  0  1.020134  0
H  H6  1  0.90884921  0.81800327  0.27643931  1  0.031716  0  0.084241  0.110022  0  1.003003  0
H  H7  1  0.22655169  0.62115670  0.65953488  1  -0.003128  0  0.090656  0.051509  0  1.002095  0
H  H8  1  0.26533145  0.69143705  0.74599287  1  0.068972  0  0.096906  0.05167  0  1.014076  0
H  H9  1  0.11312707  0.50989913  0.74258752  1  0.00332  0  0.091344  0.087554  0  0.9678  0
H  H10  1  0.15223165  0.58025254  0.82787443  1  0.069882  0  0.090568  0.085107  0  1.00094  0
H  H11  1  0.06876573  0.72159316  0.76977696  1  -0.009855  0  0.080092  0.100326  0  1.016691  0
H  H12  1  0.97505243  0.62236651  0.78129345  1  0.019662  0  0.086757  0.115667  0  0.999077  0
H  H13  1  0.41812817  0.40363023  0.21832008  1  0.110569  0  0.103118  0.110703  0  0.991948  0
H  H14  1  0.02620967  0.64781847  0.68643588  1  0.037462  0  0.07907  0.104138  0  1.042532  0
H  H15  1  0.34019389  0.79226842  0.84540305  1  0.045035  0  0.090872  0.044264  0  0.993303  0
H  H16  1  0.40306305  0.77696358  0.93793634  1  0.031946  0  0.091818  0.052692  0  1.012152  0
H  H17  1  0.16491638  0.73870595  0.90661811  1  0.045097  0  0.09378  0.089195  0  0.983092  0
H  H18  1  0.22976532  0.73010306  0.99828267  1  0.020765  0  0.093782  0.088305  0  0.969541  0
H  H19  1  0.29080912  0.90740576  0.99654039  1  0.020309  0  0.082972  0.104661  0  1.025233  0
H  H20  1  0.15111542  0.88828636  0.99191833  1  0.010662  0  0.087741  0.114576  0  1.000785  0
H  H21  1  0.22375851  0.91503610  0.90522207  1  0.018062  0  0.086221  0.110149  0  1.001362  0
H  H22  1  0.50856929  0.81622294  0.20532708  1  0.072004  0  0.098556  0.064451  0  0.980345  0
H  H23  1  0.44668536  0.78819673  0.11114313  1  0.046493  0  0.092307  0.050006  0  0.990844  0
H  H24  1  0.60998857  0.70080064  0.98609054  1  0.104101  0  0.10227  0.107128  0  1.013395  0
H  H25  1  0.65142169  0.91784966  0.13835200  1  0.030279  0  0.093024  0.087071  0  0.966217  0
H  H26  1  0.58839301  0.89031226  0.04599406  1  0.021607  0  0.091419  0.082894  0  0.97565  0
H  H27  1  0.42658530  0.96862574  0.09497405  1  0.012163  0  0.081741  0.102111  0  1.028065  0
H  H28  1  0.54093390  0.05015647  0.09990175  1  0.035743  0  0.08926  0.117771  0  0.996734  0
H  H29  1  0.49096036  0.99701761  0.18703242  1  0.030219  0  0.084329  0.107615  0  1.018852  0
H  H30  1  0.30997773  0.96642157  0.30396443  1  0.043205  0  0.102749  0.067983  0  0.963942  0
H  H31  1  0.39822807  0.07160379  0.31579304  1  0.041008  0  0.099561  0.059599  0  0.992365  0
H  H32  1  0.18901047  0.03620326  0.40402297  1  0.010537  0  0.090338  0.083126  0  0.990847  0
H  H33  1  0.27323631  0.14317278  0.40905073  1  0.048547  0  0.094611  0.09593  0  0.983105  0
H  H34  1  0.24290187  0.16426319  0.26249721  1  0.027866  0  0.088206  0.114594  0  0.997368  0
H  H35  1  0.41477491  0.55637349  0.98185373  1  0.078946  0  0.102079  0.101823  0  1.004555  0
H  H36  1  0.12235817  0.15837290  0.31495162  1  0.006995  0  0.084148  0.107673  0  1.015383  0
H  H37  1  0.15754351  0.05736525  0.25828109  1  0.008227  0  0.082605  0.102514  0  1.011109  0
H  H38  1  0.79653401  0.01164300  0.51650836  1  0.03676  0  0.102869  0.068234  0  0.971271  0
H  H39  1  0.73186314  0.90734574  0.46859693  1  0.05422  0  0.100011  0.06273  0  1.017664  0
H  H40  1  0.72096298  0.96304810  0.64521048  1  0.001099  0  0.092226  0.086033  0  0.971924  0
H  H41  1  0.65005448  0.86183672  0.59911626  1  0.062184  0  0.094768  0.096041  0  0.985534  0
H  H42  1  0.81784497  0.79336661  0.55958990  1  0.008233  0  0.085952  0.115438  0  1.00661  0
H  H43  1  0.81714520  0.81650416  0.66308600  1  0.017228  0  0.090059  0.119266  0  0.995978  0
H  H44  1  0.89345361  0.89537797  0.60193695  1  -0.022553  0  0.079517  0.097315  0  1.017319  0
H  H45  1  0.97154743  0.27174306  0.37231537  1  0.040806  0  0.113956  0.085661  0  0.961337  0
H  H46  1  0.39876020  0.44900151  0.07843585  1  0.066085  0  0.100014  0.102243  0  0.999284  0
H  H47  1  0.88282657  0.36338682  0.37219688  1  0.055392  0  0.109428  0.074587  0  0.971534  0
H  H48  1  0.87607359  0.19727143  0.48568436  1  0.030107  0  0.093778  0.087868  0  0.972225  0
H  H49  1  0.78710826  0.28813940  0.48839595  1  0.057343  0  0.096789  0.101926  0  0.988959  0
H  H50  1  0.72230425  0.24131255  0.35249741  1  0.044027  0  0.089105  0.121034  0  0.995158  0
H  H51  1  0.70693639  0.14287313  0.41473493  1  0.076289  0  0.089663  0.126749  0  1.039422  0
H  H52  1  0.81176305  0.15020741  0.34509106  1  0.026035  0  0.080219  0.099545  0  1.011057  0
H  H53  1  0.02020203  0.72702587  0.45731966  1  0.061179  0  0.10733  0.075026  0  0.99392  0
H  H54  1  0.14129871  0.67246246  0.44511837  1  0.080634  0  0.110262  0.077386  0  0.97686  0
H  H55  1  0.08173578  0.78587854  0.59413458  1  0.028526  0  0.097014  0.092292  0  0.978206  0
H  H56  1  0.20379910  0.73654035  0.57678666  1  0.049342  0  0.098162  0.094578  0  0.985432  0
H  H57  1  0.69515637  0.64905694  0.85679646  1  0.054755  0  0.097635  0.101297  0  1.001821  0
H  H58  1  0.23888927  0.84313045  0.46112359  1  0.053368  0  0.092161  0.128396  0  1.002709  0
H  H59  1  0.21942437  0.91161757  0.54831976  1  0.049312  0  0.095624  0.130663  0  0.984099  0
H  H60  1  0.11592284  0.89241238  0.47741605  1  0.02183  0  0.081959  0.098442  0  1.024878  0
H  H61  1  0.74948140  0.71272869  0.21766348  1  0.060894  0  0.09166  0.051627  0  0.998153  0
H  H62  1  0.75345017  0.62330780  0.29067629  1  0.03054  0  0.09056  0.055123  0  0.991836  0
H  H63  1  0.72607074  0.83440124  0.32897085  1  0.003974  0  0.090842  0.084604  0  0.976462  0
C  C64  1  0.50316904  0.31378275  0.48453241  1  1.688779  0  0.21719  0.655162  0  4.2576  0
C  C65  1  0.97247707  0.45704147  0.48426328  1  0.756543  0  0.109445  0.094868  0  4.172517  0
C  C66  1  0.86733955  0.48247277  0.49338092  1  0.911486  0  0.239606  0.265388  0  3.94681  0
C  C67  1  0.15839449  0.50542662  0.48385900  1  0.917511  0  0.238502  0.265395  0  3.951005  0
C  C68  1  0.52510726  0.50088518  0.33543282  1  1.576552  0  0.213543  0.614128  0  4.164035  0
C  C69  1  0.50222890  0.53378524  0.63550080  1  1.562592  0  0.216118  0.617724  0  4.147774  0
C  C70  1  0.51692415  0.53010647  0.25186388  1  0.044614  0  -0.02185  -0.107105  0  3.964812  0
C  C71  1  0.50634008  0.57266828  0.71897831  1  -0.002948  0  -0.028007  -0.127591  0  3.95392  0
C  C72  1  0.56218554  0.61891280  0.22742337  1  0.52642  0  0.079962  0.133042  0  4.044953  0
C  C73  1  0.41528765  0.58900207  0.76346911  1  0.592644  0  0.086197  0.1519  0  4.040026  0
C  C74  1  0.54924626  0.64557171  0.14896311  1  0.473303  0  0.073522  0.096866  0  4.020376  0
C  C75  1  0.52219928  0.68202953  0.47069401  1  1.692133  0  0.214963  0.648129  0  4.270518  0
C  C76  1  0.42697646  0.63135940  0.84016581  1  0.454518  0  0.069053  0.080824  0  4.009992  0
C  C77  1  0.49191556  0.58389304  0.09364338  1  -0.063607  0  -0.01949  0.026556  0  4.065207  0
C  C78  1  0.52733273  0.64669430  0.87658944  1  -0.016063  0  -0.018385  0.030024  0  4.055798  0
C  C79  1  0.44458918  0.49660680  0.12051388  1  -0.000987  0  -0.099602  -0.142462  0  4.029037  0
C  C80  1  0.61695719  0.63493239  0.82985378  1  -0.066091  0  -0.105814  -0.154244  0  4.04242  0
C  C81  1  0.45608177  0.47056207  0.19787915  1  -0.096679  0  -0.09592  -0.100562  0  4.047902  0
C  C82  1  0.60630277  0.59864179  0.75273828  1  -0.071695  0  -0.094493  -0.090102  0  4.035397  0
C  C83  1  0.47886700  0.60201512  0.01041464  1  -0.048124  0  -0.088488  -0.107664  0  3.989717  0
C  C84  1  0.54054816  0.65782128  0.96263828  1  -0.025477  0  -0.093106  -0.127623  0  3.975584  0
C  C85  1  0.72468923  0.69298750  0.27766052  1  0.438341  0  -0.06967  0.042432  0  3.887587  0
C  C86  1  0.52870616  0.78376121  0.46341478  1  -0.314222  0  -0.022399  -0.126403  0  3.92326  0
C  C87  1  0.76539132  0.76895397  0.33875214  1  -0.030822  0  -0.171308  -0.134881  0  3.979391  0
C  C88  1  0.88506457  0.78947725  0.33388018  1  -0.082668  0  -0.24361  -0.349929  0  3.995594  0
C  C89  1  0.23778793  0.61888809  0.72406563  1  0.436246  0  -0.064698  0.049174  0  3.890395  0
C  C90  1  0.13598515  0.58354817  0.76429056  1  -0.011864  0  -0.172699  -0.141303  0  3.992934  0
C  C91  1  0.04672398  0.64722961  0.74950768  1  -0.049919  0  -0.246129  -0.352204  0  3.988188  0
C  C92  1  0.33414434  0.75226000  0.90043975  1  0.402642  0  -0.069404  0.032039  0  3.911938  0
C  C93  1  0.23239225  0.76901445  0.94303024  1  -0.002206  0  -0.16624  -0.13074  0  3.984027  0
C  C94  1  0.22402135  0.87567963  0.96014348  1  -0.048197  0  -0.241972  -0.348336  0  3.981083  0
C  C95  1  0.52298381  0.80892008  0.14126476  1  0.382919  0  -0.066884  0.03597  0  3.896108  0
C  C96  1  0.57384290  0.90115999  0.10959900  1  -0.015472  0  -0.16616  -0.126125  0  3.98578  0
C  C97  1  0.49402754  0.21198523  0.46971350  1  -0.336182  0  -0.026325  -0.133449  0  3.913591  0
C  C98  1  0.50437535  0.98372840  0.12363410  1  -0.064793  0  -0.241845  -0.35027  0  3.979849  0
C  C99  1  0.33681779  0.02592720  0.34534264  1  0.403507  0  -0.064215  0.033312  0  3.887533  0
C  C100  1  0.24452456  0.08245267  0.36974556  1  0.015625  0  -0.170606  -0.139502  0  3.975598  0
C  C101  1  0.18891792  0.11744135  0.29741500  1  -0.050506  0  -0.241573  -0.345014  0  3.985392  0
C  C102  1  0.72716858  0.95933295  0.51840661  1  0.404223  0  -0.064858  0.03115  0  3.880375  0
C  C103  1  0.72325154  0.90915172  0.59659738  1  -0.006632  0  -0.169697  -0.139451  0  3.97608  0
C  C104  1  0.81840043  0.85054928  0.60574609  1  0.013301  0  -0.24199  -0.345434  0  3.974005  0
C  C105  1  0.91900336  0.31228095  0.40941716  1  0.367559  0  -0.05566  0.028241  0  3.839815  0
C  C106  1  0.83634867  0.24675284  0.44911408  1  0.003522  0  -0.168987  -0.141097  0  3.978534  0
C  C107  1  0.76559387  0.19193709  0.38650102  1  -0.109036  0  -0.244409  -0.352155  0  3.952748  0
C  C108  1  0.55079216  0.97051249  0.46902123  1  0.659543  0  0.080697  0.146872  0  4.149784  0
C  C109  1  0.08482690  0.69706928  0.48888166  1  0.325332  0  -0.056127  0.030731  0  3.826987  0
C  C110  1  0.13848220  0.76871323  0.54791548  1  0.00502  0  -0.165583  -0.135495  0  3.980298  0
C  C111  1  0.18031520  0.85875298  0.50623711  1  -0.082401  0  -0.240213  -0.354123  0  3.957455  0
C  C112  1  0.47429195  0.02656102  0.44323932  1  0.658904  0  0.076943  0.139247  0  4.161233  0
C  C113  1  0.48451081  0.12584034  0.45576796  1  0.03227  0  -0.038516  -0.092488  0  4.168977  0
C  C114  1  0.53694118  0.87082674  0.46293054  1  0.02707  0  -0.039062  -0.097841  0  4.167779  0
C  C115  1  0.05297354  0.52705625  0.49778665  1  0.72235  0  0.105759  0.085493  0  4.171172  0
N  N116  1  0.24597005  0.49162013  0.47282864  1  -1.139003  0  -0.260654  -0.243248  0  3.097087  0
N  N117  1  0.78071061  0.50215831  0.49876473  1  -1.14004  0  -0.259535  -0.244266  0  3.090558  0
O  O118  1  0.41769430  0.35137004  0.50059993  1  -1.139846  0  -0.314403  -0.539435  0  2.24655  0
O  O119  1  0.31785364  0.55421899  0.73631632  1  -1.07866  0  -0.194908  -0.203473  0  2.5613  0
O  O120  1  0.33634646  0.65164277  0.88029653  1  -1.072656  0  -0.197835  -0.22166  0  2.54227  0
O  O121  1  0.59280073  0.73400360  0.12688610  1  -1.077158  0  -0.204477  -0.235277  0  2.540341  0
O  O122  1  0.38333915  0.98078476  0.41096573  1  -1.045079  0  -0.184096  -0.207844  0  2.531667  0
O  O123  1  0.63850495  0.01557401  0.50640358  1  -1.043637  0  -0.178434  -0.194783  0  2.515251  0
O  O124  1  0.99196253  0.36616516  0.46617464  1  -1.023541  0  -0.163199  -0.169993  0  2.499763  0
O  O125  1  0.03492345  0.61383881  0.52931228  1  -1.022677  0  -0.1649  -0.179726  0  2.521999  0
O  O126  1  0.60533279  0.64876995  0.49717212  1  -1.141431  0  -0.310267  -0.541537  0  2.255559  0
O  O127  1  0.59551053  0.35630643  0.47918087  1  -1.141781  0  -0.308381  -0.541092  0  2.26176  0
O  O128  1  0.43504415  0.63550968  0.45137827  1  -1.139247  0  -0.314137  -0.544101  0  2.245342  0
O  O129  1  0.44039337  0.46276620  0.36514468  1  -1.166955  0  -0.326058  -0.561751  0  2.298486  0
O  O130  1  0.58686091  0.50194517  0.60869503  1  -1.154922  0  -0.32599  -0.56149  0  2.31238  0
O  O131  1  0.61382196  0.51576102  0.37095032  1  -1.154845  0  -0.314592  -0.551629  0  2.316749  0
O  O132  1  0.41774122  0.53810041  0.59538245  1  -1.144966  0  -0.315066  -0.547055  0  2.345767  0
O  O133  1  0.61085689  0.68402540  0.28123997  1  -1.092199  0  -0.198152  -0.220362  0  2.548664  0
