# generated using pymatgen
data_CuP2H24(C7O2)4
_symmetry_space_group_name_H-M   'P 1'
_cell_length_a   8.84959906
_cell_length_b   10.55746633
_cell_length_c   16.33177622
_cell_angle_alpha   103.21444070
_cell_angle_beta   96.64033596
_cell_angle_gamma   113.66943228
_symmetry_Int_Tables_number   1
_chemical_formula_structural   CuP2H24(C7O2)4
_chemical_formula_sum   'Cu2 P4 H48 C56 O16'
_cell_volume   1323.18117021
_cell_formula_units_Z   2
loop_
 _symmetry_equiv_pos_site_id
 _symmetry_equiv_pos_as_xyz
  1  'x, y, z'
loop_
 _atom_site_type_symbol
 _atom_site_label
 _atom_site_symmetry_multiplicity
 _atom_site_fract_x
 _atom_site_fract_y
 _atom_site_fract_z
 _atom_site_occupancy
 _atom_site_hle17_ddec_charge
 _atom_site_hle17_ddec_spin_density
 _atom_site_hle17_ddec_sum_bond_order
 _atom_site_hle17_magmom
 _atom_site_hse06_10hf_ddec_charge
 _atom_site_hse06_10hf_ddec_spin_density
 _atom_site_hse06_10hf_ddec_sum_bond_order
 _atom_site_hse06_10hf_magmom
 _atom_site_hse06_ddec_charge
 _atom_site_hse06_ddec_spin_density
 _atom_site_hse06_ddec_sum_bond_order
 _atom_site_hse06_magmom
 _atom_site_pbe_cm5_charge
 _atom_site_pbe_ddec_charge
 _atom_site_pbe_ddec_spin_density
 _atom_site_pbe_ddec_sum_bond_order
 _atom_site_pbe_magmom
Cu  Cu0  1  0.12225158  0.95215782  0.95404218  1  0.982936  -0.563632  1.737873  -0.4  1.020079  -0.760863  2.116211  -0.621  1.115055  -0.869327  2.051728  -0.735  0.707481  0.940021  -0.602527  2.18568  -0.483
Cu  Cu1  1  0.87775964  0.04790146  0.04598155  1  0.983048  0.563668  1.737635  0.4  1.02015  0.760838  2.115854  0.621  1.115072  0.869317  2.051465  0.735  0.70743  0.939981  0.602515  2.185474  0.483
P  P2  1  0.05284494  0.05346092  0.23224999  1  0.987358  -0.000353  4.29451  0.001  0.891131  -0.00034  4.734369  0.0  0.923784  -0.000278  4.720237  0.0  0.23714  0.868012  -0.0003  4.742795  0.0
P  P3  1  0.94716675  0.94653986  0.76775578  1  0.987169  0.000352  4.294582  -0.001  0.891119  0.000339  4.734232  0.0  0.923787  0.000277  4.720163  0.0  0.237114  0.867991  0.000299  4.742689  0.0
P  P4  1  0.52896400  0.82202127  0.07292434  1  1.004598  0.002659  4.232338  0.002  0.911914  0.00411  4.661651  0.003  0.947957  0.003338  4.644379  0.003  0.250043  0.886283  0.004057  4.673354  0.003
P  P5  1  0.47103673  0.17799359  0.92708105  1  1.0046  -0.002661  4.232209  -0.002  0.911799  -0.004112  4.6618  -0.003  0.947818  -0.003339  4.644532  -0.003  0.250182  0.886177  -0.004058  4.673502  -0.003
H  H6  1  0.55903895  0.59779987  0.05837477  1  0.114076  2e-05  0.935291  0.0  0.127758  8.6e-05  0.994113  0.0  0.128613  5.1e-05  0.995103  0.0  0.116347  0.127012  8.8e-05  0.993782  0.0
H  H7  1  0.44096574  0.40220745  0.94161871  1  0.114012  -2e-05  0.935367  0.0  0.1277  -8.6e-05  0.994193  0.0  0.128554  -5.1e-05  0.995179  0.0  0.116334  0.126954  -8.8e-05  0.993861  0.0
H  H8  1  0.62553516  0.70984443  0.16736079  1  0.112046  -0.000113  0.935361  0.0  0.122449  -6.7e-05  0.998284  0.0  0.12404  -4.4e-05  0.998331  0.0  0.113831  0.120997  -4.4e-05  0.998724  0.0
H  H9  1  0.37447705  0.29015099  0.83263196  1  0.11206  0.000113  0.935288  0.0  0.122483  6.7e-05  0.9982  0.0  0.124072  4.4e-05  0.998248  0.0  0.113874  0.121031  4.4e-05  0.998638  0.0
H  H10  1  0.89569228  0.63165966  0.97276104  1  0.118932  0.000506  0.955497  0.001  0.125047  4.1e-05  1.023499  0.0  0.128877  3.6e-05  1.020976  0.0  0.106324  0.122554  4.7e-05  1.025044  0.0
H  H11  1  0.10430457  0.36837483  0.02721524  1  0.118888  -0.000506  0.95578  -0.001  0.125004  -4.1e-05  1.023778  0.0  0.128833  -3.6e-05  1.021258  0.0  0.106301  0.122537  -4.8e-05  1.025294  0.0
H  H12  1  0.39773757  0.97271553  0.13364348  1  0.128501  6.4e-05  0.920467  0.0  0.139373  7.4e-05  0.981203  0.0  0.139687  5.6e-05  0.982365  0.0  0.121211  0.138722  7.9e-05  0.981238  0.0
H  H13  1  0.60229567  0.02730260  0.86637475  1  0.128448  -6.4e-05  0.920602  0.0  0.139314  -7.5e-05  0.981316  0.0  0.139632  -5.6e-05  0.982472  0.0  0.121193  0.138667  -7.9e-05  0.981349  0.0
H  H14  1  0.14933367  0.76110638  0.80359993  1  0.11886  0.000685  0.962807  0.001  0.125623  7e-06  1.029602  0.0  0.128572  2.8e-05  1.028946  0.0  0.103171  0.123662  -1.4e-05  1.029696  0.0
H  H15  1  0.85061810  0.23892997  0.19642967  1  0.118985  -0.000688  0.962827  -0.001  0.125654  -7e-06  1.029701  0.0  0.128603  -2.8e-05  1.029047  0.0  0.103187  0.123693  1.4e-05  1.029796  0.0
H  H16  1  0.88215217  0.46404664  0.05971432  1  0.096053  -0.000113  0.960859  0.0  0.107465  9.3e-05  1.018264  0.0  0.109627  4.7e-05  1.017356  0.0  0.10076  0.106102  0.000188  1.018974  0.0
H  H17  1  0.11791116  0.53598480  0.94024526  1  0.095923  0.000113  0.961127  0.0  0.107325  -9.3e-05  1.01853  0.0  0.109481  -4.7e-05  1.017631  0.0  0.100782  0.105971  -0.000188  1.01922  0.0
H  H18  1  0.25593743  0.78543418  0.11124517  1  0.12264  -2e-06  0.96737  0.0  0.129694  5.4e-05  1.033526  0.0  0.13202  6.9e-05  1.033275  0.0  0.114433  0.127629  1.5e-05  1.034286  0.0
H  H19  1  0.74406275  0.21459254  0.88877668  1  0.122671  2e-06  0.967225  0.0  0.129711  -5.4e-05  1.033404  0.0  0.132041  -6.9e-05  1.033149  0.0  0.114369  0.127647  -1.4e-05  1.034167  0.0
H  H20  1  0.31489718  0.67989859  0.70940985  1  0.080383  -0.000277  0.944773  -0.001  0.093495  -1.8e-05  0.999437  0.0  0.09624  -6e-06  0.996924  0.0  0.098571  0.091327  -2.5e-05  1.001449  0.0
H  H21  1  0.68497838  0.32006717  0.29060335  1  0.080361  0.000277  0.944631  0.001  0.093516  1.8e-05  0.99924  0.0  0.096269  6e-06  0.996719  0.0  0.098502  0.091345  2.5e-05  1.001255  0.0
H  H22  1  0.93705674  0.55342802  0.22017920  1  0.083875  0.000535  0.989441  0.001  0.093276  1e-06  1.05702  0.0  0.094405  6e-06  1.060035  0.0  0.094427  0.09258  1e-06  1.054603  0.0
H  H23  1  0.06301098  0.44656763  0.77978382  1  0.08411  -0.000535  0.989546  -0.001  0.093543  -1e-06  1.057034  0.0  0.094682  -6e-06  1.060032  0.0  0.094593  0.092843  -1e-06  1.054625  0.0
H  H24  1  0.56443886  0.64974433  0.77418685  1  0.086629  0.000641  0.982235  0.001  0.096337  -2.1e-05  1.048076  0.0  0.098617  -8e-06  1.048922  0.0  0.093694  0.094448  -3.7e-05  1.04811  0.0
H  H25  1  0.43541244  0.35018135  0.22580234  1  0.086621  -0.000642  0.982399  -0.001  0.096398  2.1e-05  1.048196  0.0  0.098679  8e-06  1.049042  0.0  0.09367  0.094508  3.8e-05  1.048233  0.0
H  H26  1  0.00887570  0.80993612  0.29292236  1  0.087216  -0.000164  0.974152  0.0  0.094935  -7e-05  1.043018  0.0  0.096935  -5.8e-05  1.042371  0.0  0.098403  0.093664  -6.9e-05  1.043327  0.0
H  H27  1  0.99117804  0.19005399  0.70706226  1  0.087213  0.000164  0.97412  0.0  0.095079  7e-05  1.042813  0.0  0.097039  5.8e-05  1.042212  0.0  0.098363  0.093799  7e-05  1.043138  0.0
H  H28  1  0.65343780  0.71080178  0.93253441  1  0.099499  -0.000471  0.950847  -0.001  0.10759  -0.000238  1.018134  0.0  0.110433  -0.000182  1.015774  0.0  0.103837  0.105334  -0.00026  1.019962  0.0
H  H29  1  0.34649941  0.28918047  0.06745555  1  0.099366  0.000472  0.951166  0.001  0.107573  0.000238  1.018245  0.0  0.110415  0.000182  1.015892  0.0  0.103814  0.105315  0.00026  1.020077  0.0
H  H30  1  0.31297874  0.23795461  0.33321692  1  0.109607  -4.2e-05  0.924053  0.0  0.122835  -1.4e-05  0.980122  0.0  0.124228  -8e-06  0.979668  0.0  0.117703  0.121792  -1.4e-05  0.980732  0.0
H  H31  1  0.68704813  0.76201582  0.66679497  1  0.109581  4.2e-05  0.923982  0.0  0.122872  1.4e-05  0.980039  0.0  0.124267  8e-06  0.979581  0.0  0.117657  0.121827  1.4e-05  0.98065  0.0
H  H32  1  0.33457637  0.07620814  0.28852587  1  0.121471  -5e-06  0.927827  0.0  0.131856  -1.2e-05  0.98866  0.0  0.133791  -1.2e-05  0.987892  0.0  0.117836  0.130413  -9e-06  0.989434  0.0
H  H33  1  0.66541804  0.92375682  0.71147776  1  0.121328  5e-06  0.928039  0.0  0.131738  1.1e-05  0.988878  0.0  0.133645  1.2e-05  0.988143  0.0  0.117809  0.130295  9e-06  0.989657  0.0
H  H34  1  0.78257223  0.02721324  0.26185417  1  0.135641  5.5e-05  0.942135  0.0  0.143528  4.9e-05  1.004166  0.0  0.146365  3.5e-05  1.002155  0.0  0.119518  0.14156  5.2e-05  1.005677  0.0
H  H35  1  0.21742100  0.97275390  0.73814665  1  0.13575  -5.5e-05  0.941883  0.0  0.143524  -4.9e-05  1.004087  0.0  0.146379  -3.5e-05  1.002081  0.0  0.119529  0.141556  -5.2e-05  1.005598  0.0
H  H36  1  0.88243592  0.96467758  0.33456935  1  0.107014  3.1e-05  0.946647  0.0  0.115434  7e-06  1.013789  0.0  0.117357  7e-06  1.013092  0.0  0.111283  0.113921  5e-06  1.014558  0.0
H  H37  1  0.11756011  0.03529283  0.66542969  1  0.106956  -3.1e-05  0.946633  0.0  0.115309  -7e-06  1.01387  0.0  0.117248  -7e-06  1.01317  0.0  0.111201  0.113797  -5e-06  1.014639  0.0
H  H38  1  0.96862619  0.35939979  0.50026305  1  0.104086  -1e-06  0.94786  0.0  0.116254  -1e-06  1.006227  0.0  0.119587  -0.0  1.004022  0.0  0.104255  0.113911  -0.0  1.007808  0.0
H  H39  1  0.03137391  0.64057598  0.49975356  1  0.104092  0.0  0.948018  0.0  0.116278  1e-06  1.006337  0.0  0.119609  0.0  1.004137  0.0  0.104285  0.113935  1e-06  1.007918  0.0
H  H40  1  0.38209522  0.89387300  0.37109061  1  0.11402  9e-06  0.935342  0.0  0.124668  2e-06  0.992438  0.0  0.128594  1e-06  0.989551  0.0  0.106852  0.121841  3e-06  0.994654  0.0
H  H41  1  0.61792574  0.10611478  0.62891803  1  0.114067  -9e-06  0.935439  0.0  0.124681  -2e-06  0.992562  0.0  0.128607  -1e-06  0.989676  0.0  0.106852  0.121851  -3e-06  0.994783  0.0
H  H42  1  0.14613601  0.42982428  0.64869775  1  0.087854  6.5e-05  0.968624  0.0  0.0995  2e-05  1.02977  0.0  0.101983  1.6e-05  1.028875  0.0  0.098923  0.09773  1.3e-05  1.030431  0.0
H  H43  1  0.85388618  0.57015482  0.35131089  1  0.087943  -6.5e-05  0.968739  0.0  0.099601  -2e-05  1.029823  0.0  0.102088  -1.6e-05  1.028933  0.0  0.098929  0.09783  -1.3e-05  1.030486  0.0
H  H44  1  0.24332247  0.68763978  0.42910793  1  0.08413  -3e-06  0.957008  0.0  0.096604  1e-06  1.013035  0.0  0.099142  0.0  1.012002  0.0  0.097735  0.094753  1e-06  1.013893  0.0
H  H45  1  0.75669739  0.31233719  0.57089167  1  0.084041  3e-06  0.957065  0.0  0.096539  -1e-06  1.013077  0.0  0.099078  -0.0  1.012044  0.0  0.097708  0.094687  -1e-06  1.013937  0.0
H  H46  1  0.35114671  0.32524976  0.67215187  1  0.087493  -1.2e-05  0.962486  0.0  0.094804  5e-06  1.029687  0.0  0.097178  2e-06  1.029934  0.0  0.094634  0.093185  -1.1e-05  1.029486  0.0
H  H47  1  0.64888115  0.67472504  0.32784850  1  0.087421  1.2e-05  0.962605  0.0  0.094703  -5e-06  1.029845  0.0  0.097071  -2e-06  1.0301  0.0  0.094592  0.093083  1.1e-05  1.029649  0.0
H  H48  1  0.14456402  0.43166371  0.33425908  1  0.094715  7e-06  0.966249  0.0  0.100549  5e-06  1.03269  0.0  0.103812  3e-06  1.031029  0.0  0.096885  0.09813  5e-06  1.034109  0.0
H  H49  1  0.85543798  0.56832088  0.66572407  1  0.094661  -7e-06  0.966316  0.0  0.100528  -5e-06  1.032709  0.0  0.103832  -4e-06  1.031006  0.0  0.096887  0.098109  -4e-06  1.03413  0.0
H  H50  1  0.37599955  0.15554397  0.54640486  1  0.107865  2e-06  0.957147  0.0  0.118063  1e-06  1.018161  0.0  0.121223  1e-06  1.016283  0.0  0.102482  0.115808  2e-06  1.019556  0.0
H  H51  1  0.62400387  0.84442105  0.45358707  1  0.107704  -2e-06  0.957037  0.0  0.117896  -1e-06  1.018092  0.0  0.12106  -1e-06  1.016206  0.0  0.102363  0.115634  -1e-06  1.019481  0.0
H  H52  1  0.20470007  0.38930906  0.18919733  1  0.134559  -2.1e-05  0.957137  0.0  0.144644  -1.3e-05  1.015973  0.0  0.147753  -9e-06  1.013884  0.0  0.110922  0.142445  -1e-05  1.017405  0.0
H  H53  1  0.79526413  0.61069282  0.81078006  1  0.13454  2e-05  0.957235  0.0  0.144707  1.3e-05  1.015963  0.0  0.147816  9e-06  1.013873  0.0  0.110923  0.142506  1e-05  1.017396  0.0
C  C54  1  0.99368185  0.86759150  0.17409153  1  -0.319628  -0.014488  3.714304  -0.013  -0.290769  -0.004825  3.963659  -0.005  -0.308236  -0.003787  3.990631  -0.004  -0.046599  -0.277612  -0.00436  3.943629  -0.004
C  C55  1  0.00633650  0.13241801  0.82590492  1  -0.319656  0.014482  3.714489  0.013  -0.290865  0.004822  3.963928  0.005  -0.308342  0.003786  3.990894  0.004  -0.046536  -0.277707  0.004358  3.9439  0.004
C  C56  1  0.45153128  0.77053561  0.95867940  1  -0.351433  -0.022713  3.739238  -0.021  -0.323699  -0.00751  3.998864  -0.008  -0.340839  -0.005477  4.021708  -0.006  -0.054435  -0.312712  -0.008112  3.983799  -0.008
C  C57  1  0.54845783  0.22950524  0.04133044  1  -0.351465  0.022741  3.739414  0.021  -0.323605  0.00752  3.998902  0.008  -0.340705  0.005483  4.021696  0.006  -0.054576  -0.312601  0.008117  3.983777  0.008
C  C58  1  0.96043848  0.81614293  0.08238174  1  0.371071  0.006944  3.83489  0.008  0.36193  0.002186  4.096278  0.003  0.382675  0.002232  4.11322  0.003  0.08315  0.347821  0.001466  4.080781  0.002
C  C59  1  0.03955809  0.18387956  0.91761292  1  0.371094  -0.006944  3.835062  -0.008  0.362017  -0.002182  4.096317  -0.003  0.382771  -0.00223  4.113239  -0.003  0.082997  0.347905  -0.001463  4.080832  -0.002
C  C60  1  0.30690468  0.78544420  0.92257237  1  0.376288  0.010673  3.885125  0.015  0.368519  0.000824  4.144196  0.004  0.389974  0.001189  4.160394  0.003  0.085911  0.35482  0.000214  4.131876  0.003
C  C61  1  0.69310419  0.21462590  0.07745530  1  0.376121  -0.010692  3.88512  -0.015  0.368272  -0.000831  4.144279  -0.004  0.389721  -0.001195  4.160467  -0.004  0.085793  0.35458  -0.000211  4.131955  -0.003
C  C62  1  0.91966850  0.66944962  0.04283546  1  -0.180542  -0.014136  3.69902  -0.013  -0.211432  -0.001297  3.966324  -0.001  -0.221028  -0.000877  3.984744  -0.001  -0.107337  -0.204581  -0.002332  3.952709  -0.002
C  C63  1  0.08035351  0.33057840  0.95714563  1  -0.180608  0.014133  3.699458  0.013  -0.211521  0.001294  3.966707  0.001  -0.221117  0.000877  3.985124  0.001  -0.107426  -0.204689  0.002334  3.953087  0.002
C  C64  1  0.26016687  0.75046481  0.83122665  1  -0.193173  -0.025535  3.692599  -0.023  -0.219  -0.005492  3.95157  -0.006  -0.229439  -0.003707  3.972436  -0.004  -0.111009  -0.211839  -0.006538  3.936901  -0.007
C  C65  1  0.73979378  0.24958677  0.16879658  1  -0.193146  0.025565  3.692976  0.023  -0.218777  0.005501  3.95183  0.006  -0.229224  0.003713  3.97272  0.004  -0.110824  -0.211617  0.006539  3.937162  0.007
C  C66  1  0.91186169  0.57646913  0.09190416  1  -0.032231  0.010383  3.746796  0.01  -0.044479  0.001815  4.001769  0.002  -0.040235  0.001762  4.021857  0.002  -0.086672  -0.047256  0.001478  3.987325  0.002
C  C67  1  0.08819493  0.42355792  0.90806538  1  -0.032061  -0.010388  3.747059  -0.01  -0.044302  -0.001813  4.00202  -0.002  -0.040061  -0.001761  4.022113  -0.002  -0.086712  -0.047079  -0.001476  3.987567  -0.002
C  C68  1  0.35295460  0.70435855  0.77941758  1  -0.040526  0.014742  3.801966  0.015  -0.048932  0.00179  4.051911  0.002  -0.044207  0.001796  4.071078  0.002  -0.091465  -0.051968  0.001568  4.039332  0.002
C  C69  1  0.64697503  0.29566155  0.22059845  1  -0.04061  -0.014768  3.802444  -0.015  -0.049102  -0.001792  4.052343  -0.002  -0.044383  -0.001801  4.071525  -0.002  -0.091442  -0.052139  -0.001568  4.03977  -0.002
C  C70  1  0.94223167  0.62647427  0.18206627  1  -0.093109  -0.019654  3.782559  -0.018  -0.118504  -0.004827  4.046168  -0.005  -0.128421  -0.00336  4.075946  -0.003  -0.10573  -0.110045  -0.00508  4.023598  -0.005
C  C71  1  0.05782863  0.37353108  0.81790695  1  -0.093342  0.019636  3.783084  0.018  -0.118767  0.004824  4.046608  0.005  -0.128679  0.003357  4.076366  0.003  -0.105722  -0.110307  0.005075  4.024042  0.005
C  C72  1  0.49354491  0.68786881  0.81528853  1  -0.113304  -0.027876  3.782256  -0.025  -0.135823  -0.005487  4.046192  -0.005  -0.144815  -0.003628  4.072132  -0.004  -0.116343  -0.130655  -0.00617  4.029845  -0.006
C  C73  1  0.50637179  0.31212420  0.18471286  1  -0.113308  0.027922  3.782533  0.025  -0.135894  0.005493  4.04653  0.005  -0.144898  0.003639  4.072486  0.004  -0.116291  -0.130722  0.006177  4.030173  0.006
C  C74  1  0.98269364  0.77097043  0.22250382  1  -0.057407  0.007078  3.791015  0.008  -0.078489  0.000816  4.046403  0.001  -0.076428  0.001171  4.071839  0.001  -0.092953  -0.079565  0.000385  4.027467  0.001
C  C75  1  0.01734572  0.22903374  0.77748084  1  -0.057386  -0.007083  3.79121  -0.008  -0.078568  -0.000815  4.046619  -0.001  -0.076466  -0.00117  4.072075  -0.001  -0.092946  -0.079646  -0.000385  4.027681  -0.001
C  C76  1  0.54221008  0.72100363  0.90454303  1  -0.027046  0.012261  3.769827  0.012  -0.056152  0.000799  4.040034  0.001  -0.051206  0.001116  4.059123  0.002  -0.085568  -0.058898  0.000606  4.027506  0.001
C  C77  1  0.45774574  0.27900140  0.09545638  1  -0.026932  -0.012285  3.77042  -0.012  -0.056127  -0.000798  4.040656  -0.001  -0.051183  -0.001123  4.059721  -0.002  -0.08556  -0.058872  -0.000606  4.028145  -0.001
C  C78  1  0.24996280  0.11858837  0.31527875  1  -0.191624  2.1e-05  3.579124  0.0  -0.230696  0.000229  3.840722  0.0  -0.22952  0.000133  3.842541  0.0  -0.070217  -0.231427  0.000298  3.839785  0.0
C  C79  1  0.75003559  0.88137984  0.68472805  1  -0.191216  -2.1e-05  3.57912  0.0  -0.230446  -0.000227  3.840834  0.0  -0.229237  -0.000133  3.842646  0.0  -0.070147  -0.231218  -0.000297  3.839871  0.0
C  C80  1  0.52693931  0.66704822  0.10724050  1  -0.185428  0.000751  3.591272  0.001  -0.226525  0.001195  3.849865  0.001  -0.225115  0.000899  3.852131  0.001  -0.069585  -0.227881  0.001197  3.849624  0.001
C  C81  1  0.47307281  0.33295802  0.89275510  1  -0.185193  -0.000751  3.591105  -0.001  -0.226366  -0.001196  3.849813  -0.001  -0.22494  -0.000899  3.852054  -0.001  -0.069586  -0.227726  -0.001199  3.849574  -0.001
C  C82  1  0.90349241  0.04901551  0.30225321  1  -0.197175  -0.000388  3.571672  0.0  -0.237553  -0.000171  3.830742  0.0  -0.236071  -0.000119  3.831466  0.0  -0.075202  -0.238573  -0.000177  3.830515  0.0
C  C83  1  0.09650587  0.95095922  0.69774906  1  -0.197108  0.000388  3.571374  0.0  -0.23738  0.000171  3.830672  0.0  -0.23599  0.000119  3.831524  0.0  -0.075098  -0.238416  0.000177  3.830422  0.0
C  C84  1  0.38858737  0.86672654  0.13546313  1  -0.183559  0.000902  3.560617  0.001  -0.226081  0.000741  3.819116  0.001  -0.222818  0.000651  3.818091  0.001  -0.072567  -0.228216  0.000673  3.820627  0.001
C  C85  1  0.61142031  0.13328180  0.86454844  1  -0.183384  -0.000902  3.560588  -0.001  -0.225884  -0.000739  3.819146  -0.001  -0.222624  -0.000651  3.818111  -0.001  -0.072463  -0.228024  -0.000674  3.820663  -0.001
C  C86  1  0.18899042  0.16281302  0.45489069  1  0.139259  5e-06  3.802536  0.0  0.131178  5e-06  4.064507  0.0  0.135782  7e-06  4.083829  0.0  0.063427  0.127903  3e-06  4.05148  0.0
C  C87  1  0.81099894  0.83714867  0.54511643  1  0.139496  0.0  3.802304  0.0  0.131381  -8e-06  4.064324  0.0  0.135992  -5e-06  4.083644  0.0  0.063586  0.128057  -1e-06  4.051304  0.0
C  C88  1  0.33331607  0.61598535  0.19971445  1  0.140238  -0.000262  3.800757  0.0  0.13079  -6.8e-05  4.063473  0.0  0.136876  -6.1e-05  4.080997  0.0  0.066825  0.126497  -8.5e-05  4.05172  0.0
C  C89  1  0.66669262  0.38402089  0.80028033  1  0.140387  0.000258  3.800632  0.0  0.130855  7.1e-05  4.063367  0.0  0.136938  5.9e-05  4.080892  0.0  0.066825  0.126565  8.3e-05  4.051607  0.0
C  C90  1  0.07093322  0.21910327  0.44191751  1  0.149954  -7e-06  3.812821  0.0  0.138708  -4e-06  4.076611  0.0  0.145208  -8e-06  4.095836  0.0  0.068324  0.134059  -1e-06  4.063688  0.0
C  C91  1  0.92905609  0.78086275  0.55808965  1  0.149834  1e-06  3.812542  0.0  0.138669  6e-06  4.076358  0.0  0.145174  6e-06  4.095561  0.0  0.068205  0.133997  -1e-06  4.063448  0.0
C  C92  1  0.37912890  0.75908529  0.25050015  1  0.145623  0.000102  3.806885  0.0  0.135896  9.1e-05  4.069924  0.0  0.142158  6e-05  4.088057  0.0  0.067256  0.131467  7.5e-05  4.057813  0.0
C  C93  1  0.62089642  0.24091769  0.74950554  1  0.145514  -9.9e-05  3.807161  0.0  0.135947  -9.1e-05  4.070002  0.0  0.142203  -5.6e-05  4.088136  0.0  0.067275  0.131527  -7.5e-05  4.057888  0.0
C  C94  1  0.05960328  0.31649010  0.51238333  1  -0.166435  -8e-06  3.788549  0.0  -0.190138  -6e-06  4.043909  0.0  -0.194102  -1e-06  4.064283  0.0  -0.106046  -0.187353  -0.0  4.030057  0.0
C  C95  1  0.94039792  0.68348354  0.48762568  1  -0.166563  1.3e-05  3.788741  0.0  -0.190264  5e-06  4.044107  0.0  -0.194225  3e-06  4.064478  0.0  -0.106108  -0.187484  0.0  4.030269  0.0
C  C96  1  0.34742305  0.78264485  0.33320077  1  -0.158588  -0.00021  3.774572  0.0  -0.179774  -7.4e-05  4.031346  0.0  -0.182884  -4.6e-05  4.050488  0.0  -0.100807  -0.177768  -9.5e-05  4.018651  0.0
C  C97  1  0.65259732  0.21734185  0.66680400  1  -0.158669  0.000207  3.774777  0.0  -0.179869  7.1e-05  4.031522  0.0  -0.182981  4.4e-05  4.050667  0.0  -0.100762  -0.177863  9.6e-05  4.018823  0.0
C  C98  1  0.15860131  0.35484682  0.59484274  1  -0.071593  2e-05  3.812189  0.0  -0.086575  6e-06  4.063314  0.0  -0.087393  4e-06  4.08445  0.0  -0.101287  -0.085952  2e-06  4.048924  0.0
C  C99  1  0.84141288  0.64513229  0.40516174  1  -0.071676  -2.5e-05  3.812265  0.0  -0.086638  -7e-06  4.063338  0.0  -0.087465  -6e-06  4.084474  0.0  -0.101238  -0.086017  -4e-06  4.048954  0.0
C  C100  1  0.26659127  0.66646347  0.36445501  1  -0.071927  0.000194  3.814105  0.0  -0.086145  6.1e-05  4.065636  0.0  -0.087848  3.4e-05  4.088042  0.0  -0.099431  -0.084973  8e-05  4.050534  0.0
C  C101  1  0.73341939  0.33351999  0.63554135  1  -0.071691  -0.000191  3.814189  0.0  -0.085938  -5.7e-05  4.065722  0.0  -0.087647  -3.3e-05  4.08815  0.0  -0.099383  -0.084767  -7.8e-05  4.050618  0.0
C  C102  1  0.27123762  0.29518278  0.60818869  1  -0.077597  6e-06  3.805589  0.0  -0.091989  1.8e-05  4.060316  0.0  -0.093893  9e-06  4.081678  0.0  -0.10331  -0.090685  2e-06  4.045758  0.0
C  C103  1  0.72878787  0.70480286  0.39181379  1  -0.077426  -0.0  3.80583  0.0  -0.091782  -1.6e-05  4.060535  0.0  -0.093689  -8e-06  4.081917  0.0  -0.103218  -0.09048  1e-06  4.045972  0.0
C  C104  1  0.21250160  0.52439583  0.31212739  1  -0.077545  -0.00011  3.797035  0.0  -0.091231  -1.1e-05  4.052637  0.0  -0.093154  -1.4e-05  4.073599  0.0  -0.101473  -0.090012  8e-06  4.038697  0.0
C  C105  1  0.78748443  0.47559305  0.68785791  1  -0.07754  0.000107  3.797082  0.0  -0.091247  1.1e-05  4.052716  0.0  -0.093206  1.3e-05  4.073669  0.0  -0.10144  -0.090027  -9e-06  4.038774  0.0
C  C106  1  0.28531845  0.19988215  0.53820094  1  -0.152343  -1.1e-05  3.782781  0.0  -0.176908  -3e-06  4.036093  0.0  -0.179153  -5e-06  4.055678  0.0  -0.103538  -0.175239  2e-06  4.022809  0.0
C  C107  1  0.71468445  0.80008609  0.46180124  1  -0.152199  5e-06  3.782689  0.0  -0.176753  3e-06  4.036029  0.0  -0.178999  4e-06  4.055611  0.0  -0.103494  -0.175076  -4e-06  4.022746  0.0
C  C108  1  0.24598134  0.49996296  0.23014178  1  -0.157656  0.000207  3.752871  0.0  -0.181863  9.7e-05  4.009645  0.0  -0.183992  5.7e-05  4.028022  0.0  -0.098291  -0.180329  0.000133  3.997312  0.0
C  C109  1  0.75399429  0.50003892  0.76984179  1  -0.157719  -0.000203  3.752778  0.0  -0.181975  -0.0001  4.009569  0.0  -0.184106  -5.4e-05  4.027958  0.0  -0.098372  -0.18044  -0.000132  3.997233  0.0
O  O110  1  0.07279331  0.15708586  0.17980957  1  -0.724288  -6.4e-05  1.947061  0.001  -0.678595  -0.000148  2.215881  0.0  -0.702425  -0.000626  2.197223  0.0  -0.357071  -0.658899  0.00025  2.227967  0.001
O  O111  1  0.92723360  0.84294200  0.82021343  1  -0.724254  6.5e-05  1.947217  -0.001  -0.678566  0.000148  2.215943  0.0  -0.702401  0.000626  2.197274  0.0  -0.357107  -0.658888  -0.000247  2.228028  -0.001
O  O112  1  0.70995308  0.94290085  0.10568422  1  -0.76054  0.025837  2.146308  0.032  -0.705404  0.028195  2.444835  0.039  -0.739723  0.024413  2.428586  0.036  -0.366764  -0.679004  0.025341  2.4556  0.034
O  O113  1  0.29003500  0.05713131  0.89432855  1  -0.760524  -0.025851  2.146302  -0.032  -0.705388  -0.028202  2.444941  -0.039  -0.739764  -0.024418  2.428805  -0.036  -0.366789  -0.679006  -0.025349  2.455683  -0.034
O  O114  1  0.96745599  0.90169917  0.03243311  1  -0.639829  -0.012292  2.298159  -0.017  -0.629813  -0.000802  2.637723  -0.002  -0.683008  -4.5e-05  2.630284  -0.001  -0.362802  -0.585068  -0.001273  2.639022  -0.003
O  O115  1  0.03253028  0.09833628  0.96757085  1  -0.639955  0.01227  2.298222  0.017  -0.629938  0.000812  2.637723  0.002  -0.683126  5.1e-05  2.630268  0.001  -0.362726  -0.585195  0.001276  2.639035  0.003
O  O116  1  0.22073465  0.82757918  0.97389638  1  -0.621422  -0.081478  2.149857  -0.105  -0.596795  -0.054811  2.450215  -0.081  -0.641123  -0.041913  2.445588  -0.065  -0.351523  -0.566189  -0.052728  2.454292  -0.075
O  O117  1  0.77931199  0.17252894  0.02613743  1  -0.621262  0.081487  2.149685  0.105  -0.596744  0.054818  2.450098  0.081  -0.641064  0.04192  2.445506  0.065  -0.351462  -0.566129  0.052729  2.454193  0.075
O  O118  1  0.21673382  0.07013923  0.38960809  1  -0.251658  4.6e-05  2.3204  0.0  -0.187326  8.6e-05  2.553625  0.0  -0.201785  3.4e-05  2.555946  0.0  -0.189291  -0.176996  0.000124  2.551711  0.0
O  O119  1  0.78326514  0.92983006  0.61040075  1  -0.251941  -4.6e-05  2.320667  0.0  -0.187586  -8.7e-05  2.55394  0.0  -0.202057  -3.3e-05  2.556259  0.0  -0.189286  -0.177146  -0.000125  2.551966  0.0
O  O120  1  0.36273916  0.57990239  0.11797291  1  -0.246439  0.00094  2.355321  0.001  -0.175904  0.001083  2.588737  0.002  -0.192494  0.00066  2.593978  0.001  -0.179665  -0.164067  0.001276  2.585171  0.002
O  O121  1  0.63727454  0.42011579  0.88202335  1  -0.246707  -0.00094  2.355246  -0.001  -0.176111  -0.001083  2.588683  -0.002  -0.192703  -0.000661  2.593917  -0.001  -0.179769  -0.164271  -0.001276  2.585111  -0.002
O  O122  1  0.96610142  0.19050560  0.36389085  1  -0.235634  -0.000124  2.325059  0.0  -0.167873  -6.7e-05  2.554339  0.0  -0.183876  -4.6e-05  2.556526  0.0  -0.180068  -0.156314  -8.4e-05  2.552432  0.0
O  O123  1  0.03388162  0.80946582  0.63612103  1  -0.235557  0.000123  2.32468  0.0  -0.167965  6.8e-05  2.554084  0.0  -0.183939  4.5e-05  2.556299  0.0  -0.180098  -0.156359  8.5e-05  2.552149  0.0
O  O124  1  0.45480839  0.88106941  0.22418620  1  -0.254856  3.3e-05  2.305697  0.0  -0.187479  1.4e-05  2.53885  0.0  -0.203287  3.2e-05  2.541027  0.0  -0.186556  -0.176292  -1.2e-05  2.537251  0.0
O  O125  1  0.54521292  0.11894330  0.77582744  1  -0.254863  -3.4e-05  2.305768  0.0  -0.187496  -1.6e-05  2.538865  0.0  -0.203287  -3.3e-05  2.541023  0.0  -0.186536  -0.176327  1.2e-05  2.537283  0.0
