# generated using pymatgen
data_Zn2H20C31N4O9
_symmetry_space_group_name_H-M   'P 1'
_cell_length_a   10.95127550
_cell_length_b   11.42760383
_cell_length_c   12.16565599
_cell_angle_alpha   80.92876584
_cell_angle_beta   84.77400795
_cell_angle_gamma   68.17561913
_symmetry_Int_Tables_number   1
_chemical_formula_structural   Zn2H20C31N4O9
_chemical_formula_sum   'Zn4 H40 C62 N8 O18'
_cell_volume   1394.82002463
_cell_formula_units_Z   2
loop_
 _symmetry_equiv_pos_site_id
 _symmetry_equiv_pos_as_xyz
  1  'x, y, z'
loop_
 _atom_site_type_symbol
 _atom_site_label
 _atom_site_symmetry_multiplicity
 _atom_site_fract_x
 _atom_site_fract_y
 _atom_site_fract_z
 _atom_site_occupancy
 _atom_site_hle17_bader_spin_density
 _atom_site_hle17_ddec_charge
 _atom_site_hle17_ddec_spin_density
 _atom_site_hle17_ddec_sum_bond_order
 _atom_site_hle17_magmom
 _atom_site_hse06_10hf_bader_spin_density
 _atom_site_hse06_10hf_ddec_charge
 _atom_site_hse06_10hf_ddec_spin_density
 _atom_site_hse06_10hf_ddec_sum_bond_order
 _atom_site_hse06_10hf_magmom
 _atom_site_hse06_bader_spin_density
 _atom_site_hse06_ddec_charge
 _atom_site_hse06_ddec_spin_density
 _atom_site_hse06_ddec_sum_bond_order
 _atom_site_hse06_magmom
 _atom_site_pbe_bader_spin_density
 _atom_site_pbe_cm5_charge
 _atom_site_pbe_ddec_charge
 _atom_site_pbe_ddec_spin_density
 _atom_site_pbe_ddec_sum_bond_order
 _atom_site_pbe_magmom
Zn  Zn0  1  0.96847416  0.35400506  0.43449227  1  0  1.152898  0  1.789625  0  0  0.986811  0  2.261942  0  0  1.033131  0  2.201162  0  0  0.717616  0.954008  0  2.304352  0
Zn  Zn1  1  0.03152526  0.64599410  0.56550771  1  0  1.152885  0  1.789626  0  0  0.986798  0  2.261946  0  0  1.033114  0  2.201165  0  0  0.717607  0.953996  0  2.304356  0
Zn  Zn2  1  0.17538265  0.92807707  0.35560132  1  0  1.102803  0  1.7563  0  0  0.919689  0  2.230006  0  0  0.968674  0  2.169619  0  0  0.702525  0.885251  0  2.271644  0
Zn  Zn3  1  0.82461825  0.07192304  0.64439922  1  0  1.1028  0  1.756317  0  0  0.919689  0  2.230029  0  0  0.968672  0  2.169642  0  0  0.702523  0.885253  0  2.271672  0
H  H4  1  0.51060666  0.59576158  0.32512715  1  0  0.096392  0  0.962633  0  0  0.105966  0  1.025864  0  0  0.109352  0  1.023292  0  0  0.103481  0.103503  0  1.02779  0
H  H5  1  0.48939169  0.40424044  0.67487414  1  0  0.096407  0  0.962588  0  0  0.105969  0  1.025841  0  0  0.10936  0  1.023258  0  0  0.103501  0.103506  0  1.027771  0
H  H6  1  0.68345499  0.38126971  0.32071806  1  0  0.088405  0  0.984636  0  0  0.096706  0  1.048105  0  0  0.099428  0  1.047888  0  0  0.096461  0.094503  0  1.048901  0
H  H7  1  0.31654611  0.61873230  0.67928136  1  0  0.088438  0  0.984636  0  0  0.096734  0  1.048104  0  0  0.099456  0  1.047888  0  0  0.096471  0.094523  0  1.048907  0
H  H8  1  0.62782988  0.18749146  0.38724099  1  0  0.114475  0  0.957612  0  0  0.121116  0  1.021891  0  0  0.125261  0  1.018608  0  0  0.106723  0.118143  0  1.024265  0
H  H9  1  0.37217066  0.81250960  0.61275780  1  0  0.114513  0  0.957636  0  0  0.121147  0  1.021919  0  0  0.125291  0  1.018636  0  0  0.106735  0.118175  0  1.024292  0
H  H10  1  0.15509575  0.18768541  0.86631188  1  0  0.090268  0  0.957755  0  0  0.097385  0  1.02427  0  0  0.101638  0  1.020855  0  0  0.099304  0.094346  0  1.026657  0
H  H11  1  0.84490423  0.81231470  0.13368710  1  0  0.090294  0  0.95765  0  0  0.097424  0  1.024158  0  0  0.101679  0  1.020742  0  0  0.09932  0.09439  0  1.026542  0
H  H12  1  0.36473933  0.23526399  0.82993732  1  0  0.079518  0  0.968747  0  0  0.090116  0  1.032404  0  0  0.093054  0  1.031473  0  0  0.096029  0.087961  0  1.03333  0
H  H13  1  0.63526080  0.76473327  0.17006371  1  0  0.079534  0  0.968778  0  0  0.090165  0  1.032389  0  0  0.093096  0  1.031464  0  0  0.096046  0.087992  0  1.033325  0
H  H14  1  0.46751240  0.23029468  0.63966290  1  0  0.101816  0  0.95524  0  0  0.111218  0  1.018669  0  0  0.114281  0  1.016784  0  0  0.107347  0.109028  0  1.019949  0
H  H15  1  0.53249069  0.76970447  0.36033843  1  0  0.101823  0  0.955214  0  0  0.111222  0  1.018658  0  0  0.114285  0  1.016773  0  0  0.107333  0.109032  0  1.019938  0
H  H16  1  0.20093935  0.21011663  0.27494886  1  0  0.111036  0  0.960325  0  0  0.114481  0  1.033049  0  0  0.117323  0  1.029868  0  0  0.137662  0.112309  0  1.035533  0
H  H17  1  0.79906098  0.78988254  0.72504940  1  0  0.111044  0  0.960286  0  0  0.114491  0  1.033014  0  0  0.117335  0  1.029828  0  0  0.137668  0.112319  0  1.035498  0
H  H18  1  0.36880810  0.06550483  0.97332864  1  0  0.111154  0  0.981456  0  0  0.11866  0  1.049067  0  0  0.120624  0  1.049479  0  0  0.118815  0.117274  0  1.048773  0
H  H19  1  0.63119167  0.93449339  0.02667228  1  0  0.111124  0  0.981475  0  0  0.11863  0  1.049087  0  0  0.120594  0  1.049498  0  0  0.118795  0.117242  0  1.048798  0
H  H20  1  0.30073709  0.88215594  0.11639807  1  0  0.105296  0  0.98645  0  0  0.113076  0  1.04901  0  0  0.115004  0  1.049256  0  0  0.115619  0.111637  0  1.049015  0
H  H21  1  0.69926233  0.11784322  0.88360438  1  0  0.105267  0  0.986461  0  0  0.113023  0  1.049045  0  0  0.114951  0  1.049293  0  0  0.115611  0.111584  0  1.049051  0
H  H22  1  0.25901397  0.35742280  0.13182658  1  0  0.094897  0  0.898879  0  0  0.115273  0  0.95272  0  0  0.116196  0  0.951901  0  0  0.122774  0.114337  0  0.953656  0
H  H23  1  0.74098545  0.64257636  0.86817340  1  0  0.0949  0  0.898867  0  0  0.115237  0  0.952745  0  0  0.116158  0  0.951933  0  0  0.12278  0.114303  0  0.953679  0
H  H24  1  0.26858901  0.33067366  0.99079662  1  0  0.074157  0  0.933377  0  0  0.091073  0  0.998214  0  0  0.091297  0  0.998069  0  0  0.110514  0.090717  0  0.998547  0
H  H25  1  0.73140822  0.66932646  0.00920340  1  0  0.074165  0  0.933373  0  0  0.091078  0  0.998211  0  0  0.091303  0  0.998064  0  0  0.110525  0.090722  0  0.998543  0
H  H26  1  0.50111589  0.12503276  0.21241831  1  0  0.108886  0  0.966896  0  0  0.115123  0  1.032369  0  0  0.118659  0  1.03047  0  0  0.10427  0.112417  0  1.033989  0
H  H27  1  0.49888317  0.87496735  0.78758156  1  0  0.108881  0  0.96691  0  0  0.115125  0  1.032378  0  0  0.118653  0  1.030489  0  0  0.104265  0.112419  0  1.034  0
H  H28  1  0.73748388  0.08830815  0.20240665  1  0  0.08929  0  0.977736  0  0  0.099616  0  1.041332  0  0  0.101091  0  1.042312  0  0  0.100035  0.098431  0  1.040933  0
H  H29  1  0.26251589  0.91169007  0.79759262  1  0  0.089323  0  0.977768  0  0  0.099646  0  1.041357  0  0  0.101122  0  1.042338  0  0  0.100063  0.098462  0  1.040958  0
H  H30  1  0.68390944  0.36842541  0.91093322  1  0  0.098548  0  0.934147  0  0  0.112089  0  0.987601  0  0  0.114674  0  0.986938  0  0  0.104714  0.11018  0  0.988176  0
H  H31  1  0.31608906  0.63157376  0.08906601  1  0  0.09854  0  0.934127  0  0  0.112083  0  0.987583  0  0  0.114669  0  0.986918  0  0  0.104717  0.110172  0  0.988159  0
H  H32  1  0.44542214  0.40698502  0.92053461  1  0  0.089737  0  0.956666  0  0  0.09985  0  1.019687  0  0  0.102244  0  1.019728  0  0  0.098792  0.098125  0  1.019655  0
H  H33  1  0.55457763  0.59301319  0.07946466  1  0  0.089769  0  0.956608  0  0  0.099875  0  1.019639  0  0  0.102271  0  1.019677  0  0  0.098806  0.098149  0  1.019606  0
H  H34  1  0.92865564  0.10246203  0.08695772  1  0  0.104364  0  0.906565  0  0  0.120404  0  0.962975  0  0  0.121543  0  0.962599  0  0  0.121044  0.119464  0  0.963285  0
H  H35  1  0.07134378  0.89753713  0.91304226  1  0  0.104395  0  0.906559  0  0  0.120411  0  0.963003  0  0  0.121549  0  0.962627  0  0  0.121048  0.11947  0  0.963314  0
H  H36  1  0.91096023  0.22101866  0.97007735  1  0  0.11362  0  0.948152  0  0  0.125387  0  1.011845  0  0  0.128352  0  1.008077  0  0  0.115261  0.12313  0  1.01459  0
H  H37  1  0.08903975  0.77898146  0.02992326  1  0  0.113588  0  0.948172  0  0  0.125363  0  1.011865  0  0  0.128329  0  1.008097  0  0  0.115255  0.123107  0  1.01461  0
H  H38  1  0.87826107  0.44982929  0.00903246  1  0  0.10917  0  0.96348  0  0  0.120277  0  1.024004  0  0  0.122841  0  1.02311  0  0  0.121926  0.11841  0  1.024786  0
H  H39  1  0.12173927  0.55016987  0.99096663  1  0  0.109194  0  0.963534  0  0  0.120301  0  1.024056  0  0  0.122864  0  1.023161  0  0  0.121942  0.118434  0  1.024837  0
H  H40  1  0.90249513  0.54193972  0.20403268  1  0  0.115148  0  0.948248  0  0  0.125888  0  1.004584  0  0  0.128181  0  1.003919  0  0  0.121592  0.124159  0  1.005294  0
H  H41  1  0.09750556  0.45805849  0.79596734  1  0  0.115137  0  0.948229  0  0  0.125891  0  1.004544  0  0  0.128183  0  1.003878  0  0  0.121583  0.124162  0  1.005254  0
H  H42  1  0.92466514  0.16105888  0.28434148  1  0  0.119663  0  0.954039  0  0  0.124256  0  1.022462  0  0  0.127627  0  1.018753  0  0  0.14083  0.12173  0  1.02525  0
H  H43  1  0.07533427  0.83894029  0.71565932  1  0  0.119665  0  0.954071  0  0  0.124239  0  1.022505  0  0  0.127608  0  1.018798  0  0  0.14083  0.121715  0  1.025288  0
C  C44  1  0.42541975  0.29545971  0.42527672  1  0  -0.05862  0  3.718205  0  0  -0.04848  0  3.955985  0  0  -0.054785  0  3.978677  0  0  -0.014336  -0.044174  0  3.940607  0
C  C45  1  0.57458206  0.70454040  0.57472211  1  0  -0.058625  0  3.718306  0  0  -0.048458  0  3.956106  0  0  -0.054764  0  3.9788  0  0  -0.014323  -0.044152  0  3.940726  0
C  C46  1  0.32767524  0.41756604  0.42974083  1  0  -0.059678  0  3.670702  0  0  -0.052357  0  3.902323  0  0  -0.053602  0  3.921764  0  0  0.001284  -0.051468  0  3.889489  0
C  C47  1  0.67232601  0.58243312  0.57025983  1  0  -0.059616  0  3.670665  0  0  -0.052294  0  3.902291  0  0  -0.053538  0  3.92173  0  0  0.001297  -0.051405  0  3.889456  0
C  C48  1  0.35891763  0.52658571  0.39320314  1  0  -0.0971  0  3.73562  0  0  -0.081717  0  3.970875  0  0  -0.090898  0  3.993957  0  0  -0.018536  -0.07606  0  3.955712  0
C  C49  1  0.64108270  0.47341345  0.60680005  1  0  -0.097085  0  3.735685  0  0  -0.081699  0  3.970934  0  0  -0.090882  0  3.994016  0  0  -0.018492  -0.076042  0  3.95577  0
C  C50  1  0.48764736  0.51082768  0.35294052  1  0  -0.049008  0  3.7328  0  0  -0.076798  0  3.986378  0  0  -0.074705  0  4.005326  0  0  -0.079453  -0.077932  0  3.973632  0
C  C51  1  0.51235409  0.48917338  0.64705983  1  0  -0.049026  0  3.73284  0  0  -0.076817  0  3.986426  0  0  -0.074721  0  4.005375  0  0  -0.079544  -0.077952  0  3.973677  0
C  C52  1  0.58378049  0.39071262  0.34980888  1  0  -0.074141  0  3.761485  0  0  -0.087429  0  4.018753  0  0  -0.09119  0  4.038983  0  0  -0.094533  -0.085028  0  4.005372  0
C  C53  1  0.41621969  0.60928939  0.65018980  1  0  -0.074197  0  3.761452  0  0  -0.087474  0  4.018704  0  0  -0.091236  0  4.038934  0  0  -0.094516  -0.085065  0  4.005326  0
C  C54  1  0.55298165  0.28256855  0.38561703  1  0  -0.040388  0  3.688201  0  0  -0.06784  0  3.944317  0  0  -0.065248  0  3.960784  0  0  -0.07263  -0.069272  0  3.932824  0
C  C55  1  0.44701981  0.71743251  0.61438004  1  0  -0.040402  0  3.688297  0  0  -0.067849  0  3.944403  0  0  -0.065256  0  3.96087  0  0  -0.072624  -0.06928  0  3.932907  0
C  C56  1  0.39247867  0.17774545  0.46029107  1  0  0.407735  0  3.687349  0  0  0.385935  0  3.95423  0  0  0.407027  0  3.956968  0  0  0.171674  0.371291  0  3.952727  0
C  C57  1  0.60752314  0.82225466  0.53970776  1  0  0.407761  0  3.687339  0  0  0.385863  0  3.954352  0  0  0.406955  0  3.957095  0  0  0.171656  0.371223  0  3.952843  0
C  C58  1  0.32952289  0.16774953  0.57417580  1  0  -0.041201  0  3.704465  0  0  -0.030711  0  3.937178  0  0  -0.036762  0  3.95973  0  0  -0.010955  -0.026893  0  3.92228  0
C  C59  1  0.67047948  0.83225153  0.42582449  1  0  -0.041328  0  3.704686  0  0  -0.030762  0  3.937368  0  0  -0.036824  0  3.959927  0  0  -0.010926  -0.026946  0  3.922472  0
C  C60  1  0.22082022  0.12838422  0.59778476  1  0  -0.04415  0  3.617873  0  0  -0.038414  0  3.852187  0  0  -0.039065  0  3.869059  0  0  0.011549  -0.038057  0  3.841051  0
C  C61  1  0.77917961  0.87161875  0.40221463  1  0  -0.043889  0  3.617658  0  0  -0.038211  0  3.851978  0  0  -0.038847  0  3.868849  0  0  0.011561  -0.037856  0  3.840845  0
C  C62  1  0.15716180  0.13967707  0.70354124  1  0  -0.078916  0  3.718832  0  0  -0.062502  0  3.952584  0  0  -0.070026  0  3.973988  0  0  -0.014817  -0.057804  0  3.938398  0
C  C63  1  0.84284072  0.86032114  0.29645863  1  0  -0.079026  0  3.718881  0  0  -0.062582  0  3.952624  0  0  -0.070118  0  3.974033  0  0  -0.014809  -0.057886  0  3.938439  0
C  C64  1  0.20782130  0.18045719  0.78569814  1  0  -0.059284  0  3.747669  0  0  -0.085396  0  4.00088  0  0  -0.083621  0  4.018339  0  0  -0.080078  -0.086229  0  3.988961  0
C  C65  1  0.79217904  0.81954197  0.21430177  1  0  -0.059346  0  3.747679  0  0  -0.085482  0  4.000909  0  0  -0.083705  0  4.018367  0  0  -0.08013  -0.086318  0  3.988982  0
C  C66  1  0.32198198  0.20812010  0.76509187  1  0  -0.08277  0  3.784093  0  0  -0.09616  0  4.040998  0  0  -0.099113  0  4.060485  0  0  -0.095564  -0.094361  0  4.027847  0
C  C67  1  0.67801999  0.79187715  0.23490819  1  0  -0.082737  0  3.784103  0  0  -0.096146  0  4.041002  0  0  -0.099092  0  4.060489  0  0  -0.095552  -0.094327  0  4.02786  0
C  C68  1  0.38043804  0.20494441  0.65862506  1  0  -0.037136  0  3.684103  0  0  -0.063153  0  3.934209  0  0  -0.061312  0  3.95184  0  0  -0.069396  -0.06413  0  3.922112  0
C  C69  1  0.61956470  0.79505570  0.34137533  1  0  -0.037212  0  3.684186  0  0  -0.06324  0  3.934305  0  0  -0.061395  0  3.951933  0  0  -0.069435  -0.064217  0  3.9222  0
C  C70  1  0.19051513  0.42218841  0.46422071  1  0  0.667811  0  3.926691  0  0  0.613427  0  4.22645  0  0  0.648161  0  4.216875  0  0  0.212795  0.589396  0  4.23272  0
C  C71  1  0.80948520  0.57781076  0.53578166  1  0  0.667778  0  3.92667  0  0  0.613368  0  4.226472  0  0  0.648104  0  4.216895  0  0  0.212788  0.589338  0  4.232741  0
C  C72  1  0.26130871  0.65978523  0.39451122  1  0  0.679582  0  3.866607  0  0  0.627901  0  4.154817  0  0  0.663533  0  4.147091  0  0  0.222873  0.603828  0  4.159267  0
C  C73  1  0.73869219  0.34021488  0.60549015  1  0  0.679564  0  3.866625  0  0  0.627894  0  4.154812  0  0  0.663525  0  4.147089  0  0  0.222895  0.603821  0  4.159262  0
C  C74  1  0.17011940  0.08205360  0.50829685  1  0  0.700972  0  3.863174  0  0  0.638641  0  4.170197  0  0  0.67553  0  4.159362  0  0  0.222578  0.613431  0  4.176904  0
C  C75  1  0.82988043  0.91794936  0.49170253  1  0  0.700952  0  3.863137  0  0  0.638652  0  4.170137  0  0  0.675533  0  4.159312  0  0  0.222608  0.613444  0  4.176844  0
C  C76  1  0.03237317  0.11234882  0.73042725  1  0  0.636867  0  3.947327  0  0  0.583055  0  4.252084  0  0  0.616787  0  4.245081  0  0  0.197676  0.56019  0  4.256161  0
C  C77  1  0.96762737  0.88765224  0.26957154  1  0  0.636939  0  3.947455  0  0  0.583139  0  4.25218  0  0  0.616876  0  4.245174  0  0  0.197719  0.560281  0  4.256244  0
C  C78  1  0.23528252  0.14504467  0.21319557  1  0  0.187007  0  3.630897  0  0  0.120203  0  3.904198  0  0  0.135311  0  3.915641  0  0  0.148998  0.110384  0  3.896213  0
C  C79  1  0.76471654  0.85495544  0.78680430  1  0  0.187022  0  3.630947  0  0  0.120218  0  3.904239  0  0  0.135326  0  3.915681  0  0  0.149003  0.110399  0  3.896256  0
C  C80  1  0.32357030  0.06744523  0.05620512  1  0  -0.084057  0  3.6891  0  0  -0.122329  0  3.945331  0  0  -0.122851  0  3.966823  0  0  -0.005871  -0.121734  0  3.930385  0
C  C81  1  0.67642856  0.93255299  0.94379505  1  0  -0.08407  0  3.689066  0  0  -0.122344  0  3.945299  0  0  -0.122867  0  3.966791  0  0  -0.005881  -0.121748  0  3.93035  0
C  C82  1  0.29087413  0.97733730  0.12767071  1  0  0.017241  0  3.739404  0  0  -0.014469  0  3.996586  0  0  -0.01187  0  4.017044  0  0  0.002034  -0.016092  0  3.982502  0
C  C83  1  0.70912528  0.02266186  0.87233009  1  0  0.017349  0  3.739265  0  0  -0.014331  0  3.996454  0  0  -0.011733  0  4.016913  0  0  0.002082  -0.015954  0  3.982369  0
C  C84  1  0.31175069  0.29005148  0.07264095  1  0  -0.032488  0  3.661925  0  0  -0.105705  0  3.918436  0  0  -0.100266  0  3.928062  0  0  -0.040136  -0.109126  0  3.911918  0
C  C85  1  0.68824837  0.70994863  0.92735810  1  0  -0.032441  0  3.661871  0  0  -0.10563  0  3.918371  0  0  -0.100191  0  3.927995  0  0  -0.040123  -0.109051  0  3.911855  0
C  C86  1  0.45718651  0.26777789  0.06626829  1  0  0.055731  0  3.759557  0  0  0.078939  0  3.995419  0  0  0.077549  0  4.020642  0  0  -0.015848  0.079657  0  3.978408  0
C  C87  1  0.54281275  0.73222412  0.93373293  1  0  0.055734  0  3.759531  0  0  0.078962  0  3.995351  0  0  0.077574  0  4.020571  0  0  -0.015841  0.07968  0  3.978343  0
C  C88  1  0.54033594  0.17823310  0.14540195  1  0  -0.106363  0  3.73692  0  0  -0.125488  0  3.981535  0  0  -0.128231  0  4.003526  0  0  -0.08994  -0.123614  0  3.966872  0
C  C89  1  0.45966256  0.82176607  0.85459810  1  0  -0.106371  0  3.736973  0  0  -0.125509  0  3.98158  0  0  -0.128247  0  4.003576  0  0  -0.089937  -0.123637  0  3.966919  0
C  C90  1  0.67387137  0.15816575  0.14018249  1  0  -0.106357  0  3.746973  0  0  -0.124545  0  3.992811  0  0  -0.12813  0  4.017093  0  0  -0.088394  -0.122083  0  3.97663  0
C  C91  1  0.32612769  0.84183437  0.85981820  1  0  -0.106401  0  3.747063  0  0  -0.124574  0  3.992896  0  0  -0.128159  0  4.017176  0  0  -0.088419  -0.122113  0  3.976716  0
C  C92  1  0.72727655  0.22582529  0.05651472  1  0  0.067134  0  3.755205  0  0  0.084579  0  3.997675  0  0  0.083723  0  4.022315  0  0  -0.012314  0.085021  0  3.981013  0
C  C93  1  0.27272505  0.77417292  0.94348440  1  0  0.067118  0  3.755188  0  0  0.084545  0  3.997696  0  0  0.08369  0  4.022337  0  0  -0.012319  0.084986  0  3.981033  0
C  C94  1  0.64376997  0.31624769  0.97808014  1  0  -0.110133  0  3.749902  0  0  -0.129263  0  3.998868  0  0  -0.131476  0  4.019754  0  0  -0.089121  -0.127747  0  3.984606  0
C  C95  1  0.35622924  0.68374957  0.02191932  1  0  -0.110115  0  3.749872  0  0  -0.129244  0  3.998859  0  0  -0.131457  0  4.019743  0  0  -0.089144  -0.127726  0  3.984594  0
C  C96  1  0.50940414  0.33695082  0.98281665  1  0  -0.124721  0  3.773995  0  0  -0.143093  0  4.019304  0  0  -0.146189  0  4.042036  0  0  -0.093355  -0.14073  0  4.00386  0
C  C97  1  0.49059563  0.66304740  0.01718180  1  0  -0.124776  0  3.77391  0  0  -0.143151  0  4.019223  0  0  -0.146247  0  4.041953  0  0  -0.09337  -0.140787  0  4.003777  0
C  C98  1  0.87263174  0.20197101  0.05475206  1  0  -0.056392  0  3.620152  0  0  -0.122978  0  3.868273  0  0  -0.118408  0  3.876396  0  0  -0.047573  -0.125742  0  3.862533  0
C  C99  1  0.12736803  0.79802720  0.94524803  1  0  -0.056354  0  3.620115  0  0  -0.122942  0  3.868277  0  0  -0.118375  0  3.876407  0  0  -0.04757  -0.125706  0  3.862536  0
C  C100  1  0.89033674  0.40629920  0.09510025  1  0  -0.091474  0  3.716185  0  0  -0.133203  0  3.977926  0  0  -0.132977  0  3.998616  0  0  -0.007453  -0.133328  0  3.963751  0
C  C101  1  0.10966268  0.59369996  0.90490056  1  0  -0.09147  0  3.716253  0  0  -0.133204  0  3.977995  0  0  -0.132977  0  3.998683  0  0  -0.007451  -0.133328  0  3.963819  0
C  C102  1  0.90284477  0.45009057  0.19093837  1  0  -0.001426  0  3.755877  0  0  -0.034338  0  4.020675  0  0  -0.032051  0  4.04035  0  0  -0.002477  -0.035833  0  4.007484  0
C  C103  1  0.09715556  0.54990859  0.80906153  1  0  -0.001499  0  3.755908  0  0  -0.034425  0  4.020711  0  0  -0.032136  0  4.040384  0  0  -0.002511  -0.035919  0  4.007517  0
C  C104  1  0.91417255  0.25350241  0.23745173  1  0  0.171546  0  3.617066  0  0  0.110095  0  3.885858  0  0  0.123832  0  3.897389  0  0  0.151975  0.10121  0  3.877847  0
C  C105  1  0.08582686  0.74649675  0.76254825  1  0  0.171524  0  3.617126  0  0  0.110088  0  3.885923  0  0  0.123824  0  3.897456  0  0  0.151978  0.101202  0  3.877912  0
N  N106  1  0.23638322  0.02680979  0.22493412  1  0  -0.39089  0  3.302845  0  0  -0.311796  0  3.605644  0  0  -0.332672  0  3.616324  0  0  -0.357023  -0.297484  0  3.597919  0
N  N107  1  0.76361548  0.97319127  0.77506564  1  0  -0.390973  0  3.302798  0  0  -0.311892  0  3.605615  0  0  -0.332766  0  3.616292  0  0  -0.357058  -0.29758  0  3.597892  0
N  N108  1  0.28648466  0.17347821  0.11134470  1  0  -0.067965  0  3.58122  0  0  0.028197  0  3.800809  0  0  0.013116  0  3.826607  0  0  -0.245401  0.03821  0  3.78288  0
N  N109  1  0.71351624  0.82652191  0.88865338  1  0  -0.067982  0  3.581309  0  0  0.028187  0  3.800876  0  0  0.013106  0  3.826673  0  0  -0.245391  0.0382  0  3.782947  0
N  N110  1  0.89796492  0.28215504  0.12620499  1  0  -0.050014  0  3.572361  0  0  0.04308  0  3.793232  0  0  0.028101  0  3.820289  0  0  -0.239304  0.053233  0  3.774239  0
N  N111  1  0.10203358  0.71784412  0.87379506  1  0  -0.049992  0  3.572398  0  0  0.043117  0  3.793257  0  0  0.02814  0  3.820314  0  0  -0.239283  0.05327  0  3.774264  0
N  N112  1  0.91766710  0.35370878  0.27867874  1  0  -0.389682  0  3.304559  0  0  -0.312864  0  3.599163  0  0  -0.332601  0  3.61036  0  0  -0.357403  -0.299341  0  3.591444  0
N  N113  1  0.08233287  0.64629133  0.72132105  1  0  -0.389635  0  3.304576  0  0  -0.312804  0  3.599166  0  0  -0.332539  0  3.610362  0  0  -0.357396  -0.29928  0  3.591443  0
O  O114  1  0.13918472  0.38381117  0.39386833  1  0  -0.630203  0  2.058928  0  0  -0.566797  0  2.325421  0  0  -0.595078  0  2.311902  0  0  -0.310129  -0.546742  0  2.334258  0
O  O115  1  0.86081526  0.61618894  0.60613229  1  0  -0.630205  0  2.058998  0  0  -0.566794  0  2.325515  0  0  -0.595075  0  2.311992  0  0  -0.31014  -0.546744  0  2.33436  0
O  O116  1  0.13830704  0.45340716  0.55747931  1  0  -0.653096  0  2.065478  0  0  -0.596593  0  2.332241  0  0  -0.623169  0  2.319079  0  0  -0.324179  -0.577463  0  2.340854  0
O  O117  1  0.86169202  0.54659296  0.44252138  1  0  -0.653103  0  2.065342  0  0  -0.596594  0  2.332126  0  0  -0.623167  0  2.31895  0  0  -0.324186  -0.577463  0  2.340737  0
O  O118  1  0.14534199  0.68263286  0.43591271  1  0  -0.658711  0  2.113176  0  0  -0.588046  0  2.388904  0  0  -0.615412  0  2.371653  0  0  -0.319991  -0.569285  0  2.40054  0
O  O119  1  0.85465799  0.31736726  0.56408626  1  0  -0.658681  0  2.113241  0  0  -0.588014  0  2.388967  0  0  -0.615382  0  2.371719  0  0  -0.319979  -0.569252  0  2.400602  0
O  O120  1  0.30143215  0.74915255  0.35044553  1  0  -0.624864  0  2.033284  0  0  -0.55241  0  2.299156  0  0  -0.580774  0  2.284028  0  0  -0.31101  -0.532329  0  2.308646  0
O  O121  1  0.69856818  0.25084661  0.64955520  1  0  -0.624895  0  2.033269  0  0  -0.552449  0  2.299139  0  0  -0.580813  0  2.284014  0  0  -0.311045  -0.532368  0  2.308631  0
O  O122  1  0.41739295  0.09619133  0.39785851  1  0  -0.432946  0  1.950266  0  0  -0.39386  0  2.16175  0  0  -0.410567  0  2.160769  0  0  -0.240824  -0.382454  0  2.162489  0
O  O123  1  0.58260886  0.90380878  0.60214195  1  0  -0.432947  0  1.950204  0  0  -0.393836  0  2.161758  0  0  -0.41054  0  2.16077  0  0  -0.240834  -0.382431  0  2.162493  0
O  O124  1  0.08337581  0.16003322  0.44331902  1  0  -0.648947  0  2.081837  0  0  -0.580092  0  2.355962  0  0  -0.609689  0  2.342172  0  0  -0.304543  -0.559335  0  2.364826  0
O  O125  1  0.91662234  0.83996690  0.55668092  1  0  -0.64897  0  2.081791  0  0  -0.580123  0  2.355905  0  0  -0.609718  0  2.342116  0  0  -0.30457  -0.559371  0  2.364776  0
O  O126  1  0.22472881  0.96449315  0.49716437  1  0  -0.609385  0  2.032562  0  0  -0.538987  0  2.301082  0  0  -0.568527  0  2.285304  0  0  -0.303507  -0.518198  0  2.311165  0
O  O127  1  0.77527193  0.03550981  0.50283659  1  0  -0.609382  0  2.032555  0  0  -0.538993  0  2.301071  0  0  -0.568531  0  2.285295  0  0  -0.303507  -0.518196  0  2.311138  0
O  O128  1  0.01011930  0.04584871  0.66255170  1  0  -0.661855  0  2.108108  0  0  -0.58232  0  2.384464  0  0  -0.611858  0  2.368251  0  0  -0.324412  -0.56168  0  2.395118  0
O  O129  1  0.98988125  0.95415235  0.33744709  1  0  -0.661862  0  2.108175  0  0  -0.582342  0  2.384532  0  0  -0.611886  0  2.368323  0  0  -0.324413  -0.561703  0  2.39518  0
O  O130  1  0.96045587  0.15238626  0.81239969  1  0  -0.6088  0  1.912921  0  0  -0.568359  0  2.13796  0  0  -0.590006  0  2.128813  0  0  -0.326273  -0.553154  0  2.143688  0
O  O131  1  0.03954410  0.84761385  0.18760011  1  0  -0.608817  0  1.912918  0  0  -0.568384  0  2.13795  0  0  -0.590029  0  2.128798  0  0  -0.32629  -0.553183  0  2.143674  0
