# generated using pymatgen
data_Zn5H12(C10O11)2
_symmetry_space_group_name_H-M   'P 1'
_cell_length_a   7.37666175
_cell_length_b   11.95228357
_cell_length_c   15.90700000
_cell_angle_alpha   90.00000000
_cell_angle_beta   90.00000000
_cell_angle_gamma   107.27695992
_symmetry_Int_Tables_number   1
_chemical_formula_structural   Zn5H12(C10O11)2
_chemical_formula_sum   'Zn10 H24 C40 O44'
_cell_volume   1339.20781331
_cell_formula_units_Z   2
loop_
 _symmetry_equiv_pos_site_id
 _symmetry_equiv_pos_as_xyz
  1  'x, y, z'
loop_
 _atom_site_type_symbol
 _atom_site_label
 _atom_site_symmetry_multiplicity
 _atom_site_fract_x
 _atom_site_fract_y
 _atom_site_fract_z
 _atom_site_occupancy
 _atom_site_pbe_bader_charge
 _atom_site_pbe_bader_spin_density
 _atom_site_pbe_cm5_charge
 _atom_site_pbe_ddec_charge
 _atom_site_pbe_ddec_spin_density
 _atom_site_pbe_ddec_sum_bond_order
 _atom_site_pbe_magmom
Zn  Zn0  1  0.00001024  0.00000438  0.00000692  1  1.438435  0  0.699108  1.125929  0  2.324642  0
Zn  Zn1  1  0.00000268  0.49999999  0.50000063  1  1.438537  0  0.699111  1.125871  0  2.324244  0
Zn  Zn2  1  0.74148907  0.98474370  0.18741749  1  1.396485  0  0.685409  1.023617  0  2.291488  0
Zn  Zn3  1  0.25851832  0.51525540  0.68742566  1  1.396275  0  0.685422  1.023597  0  2.291689  0
Zn  Zn4  1  0.25854673  0.01525804  0.81256679  1  1.396092  0  0.685353  1.02357  0  2.291565  0
Zn  Zn5  1  0.74149115  0.48473670  0.31257434  1  1.396314  0  0.685396  1.023536  0  2.29165  0
Zn  Zn6  1  0.00498625  0.82330499  0.16994091  1  1.329105  0  0.676134  0.957635  0  2.276575  0
Zn  Zn7  1  0.99500548  0.67668973  0.66994342  1  1.329135  0  0.676176  0.957624  0  2.276473  0
Zn  Zn8  1  0.99500809  0.17670638  0.83006287  1  1.329198  0  0.676162  0.957606  0  2.276505  0
Zn  Zn9  1  0.00498604  0.32329886  0.33005406  1  1.329073  0  0.67616  0.957593  0  2.276343  0
H  H10  1  0.35279896  0.57046437  0.13553216  1  0.13869  0  0.108721  0.126341  0  1.011631  0
H  H11  1  0.64718207  0.92953911  0.63552901  1  0.138499  0  0.108687  0.126237  0  1.011661  0
H  H12  1  0.64718514  0.42954262  0.86446722  1  0.138616  0  0.108786  0.126465  0  1.011647  0
H  H13  1  0.35273769  0.07044686  0.36446659  1  0.138886  0  0.108771  0.126303  0  1.011572  0
H  H14  1  0.26208974  0.40900902  0.03340856  1  0.126131  0  0.112684  0.117182  0  0.99639  0
H  H15  1  0.73788873  0.09099185  0.53340479  1  0.126103  0  0.112645  0.117065  0  0.996452  0
H  H16  1  0.73791446  0.59099184  0.96659332  1  0.12657  0  0.112651  0.117115  0  0.996408  0
H  H17  1  0.26201603  0.90899674  0.46659270  1  0.127026  0  0.112689  0.117219  0  0.996286  0
H  H18  1  0.18310421  0.22025059  0.99350600  1  0.641312  0  0.29883  0.384671  0  0.946551  0
H  H19  1  0.81693610  0.27975203  0.49349783  1  0.641799  0  0.298837  0.384729  0  0.946541  0
H  H20  1  0.81693412  0.77975641  0.00649840  1  0.64176  0  0.298847  0.384748  0  0.946497  0
H  H21  1  0.18308605  0.72025233  0.50650154  1  0.641728  0  0.298799  0.384671  0  0.946613  0
H  H22  1  0.32703350  0.14955139  0.98337776  1  0.651017  0  0.289764  0.377499  0  0.96782  0
H  H23  1  0.67298862  0.35044160  0.48336770  1  0.651059  0  0.289779  0.377447  0  0.967864  0
H  H24  1  0.67299164  0.85044509  0.01662413  1  0.65115  0  0.289784  0.377554  0  0.967745  0
H  H25  1  0.32701660  0.64955576  0.51662853  1  0.651117  0  0.289741  0.377445  0  0.96788  0
H  H26  1  0.46937130  0.06997547  0.21688376  1  0.625639  0  0.32812  0.414641  0  0.853022  0
H  H27  1  0.53063214  0.43003504  0.71689948  1  0.625999  0  0.328121  0.414661  0  0.852993  0
H  H28  1  0.53065134  0.93004117  0.78310744  1  0.625978  0  0.328151  0.414735  0  0.853015  0
H  H29  1  0.46937317  0.56995969  0.28310869  1  0.625916  0  0.328098  0.414693  0  0.852889  0
H  H30  1  0.39361306  0.93237798  0.22828126  1  0.644669  0  0.296932  0.3852  0  0.951004  0
H  H31  1  0.60639505  0.56763953  0.72829572  1  0.644657  0  0.296874  0.385014  0  0.951213  0
H  H32  1  0.60639905  0.06764216  0.77170742  1  0.644593  0  0.296886  0.385055  0  0.951201  0
H  H33  1  0.39360933  0.43235608  0.27170868  1  0.644631  0  0.296887  0.385032  0  0.951172  0
C  C34  1  0.30911657  0.58702619  0.07242535  1  -0.00926  0  -0.078167  -0.092187  0  3.926535  0
C  C35  1  0.69084889  0.91297028  0.57242032  1  -0.009013  0  -0.078103  -0.092095  0  3.926289  0
C  C36  1  0.69087982  0.41297818  0.92757340  1  -0.009115  0  -0.078205  -0.092305  0  3.926507  0
C  C37  1  0.30906858  0.08701656  0.42757465  1  -0.009451  0  -0.078235  -0.092134  0  3.926468  0
C  C38  1  0.30278150  0.69829930  0.04901176  1  -0.028548  0  0.002228  -0.02976  0  3.935214  0
C  C39  1  0.69720107  0.80169893  0.54900798  1  -0.028438  0  0.002176  -0.029819  0  3.935211  0
C  C40  1  0.69722574  0.30170507  0.95098762  1  -0.029001  0  0.002171  -0.029865  0  3.935175  0
C  C41  1  0.30277120  0.19829755  0.45099076  1  -0.028093  0  0.002221  -0.029778  0  3.935312  0
C  C42  1  0.25141166  0.71754928  0.96633998  1  9e-06  0  -0.006265  -0.084392  0  3.922442  0
C  C43  1  0.74857320  0.78244807  0.46633872  1  -0.000177  0  -0.006324  -0.084536  0  3.922576  0
C  C44  1  0.74859880  0.28245334  0.03365814  1  0.000305  0  -0.00624  -0.084372  0  3.92243  0
C  C45  1  0.25142524  0.21754928  0.53366505  1  -0.000479  0  -0.006272  -0.084388  0  3.922491  0
C  C46  1  0.20979670  0.62716200  0.90649714  1  0.015035  0  0.017683  -0.009526  0  3.849206  0
C  C47  1  0.79018199  0.87283097  0.40649400  1  0.01481  0  0.017797  -0.009533  0  3.849308  0
C  C48  1  0.79021419  0.37284149  0.09350097  1  0.014989  0  0.017596  -0.009657  0  3.849163  0
C  C49  1  0.20979443  0.12716288  0.59351040  1  0.015016  0  0.017646  -0.009708  0  3.849381  0
C  C50  1  0.21230304  0.51400332  0.93078770  1  0.008166  0  -0.010013  -0.072499  0  3.927868  0
C  C51  1  0.78768098  0.98599227  0.43078519  1  0.008453  0  -0.009963  -0.072426  0  3.927631  0
C  C52  1  0.78771056  0.48600017  0.06921041  1  0.008331  0  -0.009872  -0.072467  0  3.9276  0
C  C53  1  0.21227427  0.01399982  0.56921544  1  0.008281  0  -0.00983  -0.072265  0  3.927742  0
C  C54  1  0.26141356  0.49616577  0.01388068  1  -0.061951  0  -0.064948  -0.055194  0  3.935177  0
C  C55  1  0.73856678  0.00383335  0.51387880  1  -0.061934  0  -0.064998  -0.055082  0  3.934785  0
C  C56  1  0.73859784  0.50383597  0.98611806  1  -0.062604  0  -0.064932  -0.055052  0  3.934939  0
C  C57  1  0.26135542  0.99616050  0.48611869  1  -0.063062  0  -0.065012  -0.055346  0  3.935333  0
C  C58  1  0.37227787  0.79997808  0.10889105  1  1.593333  0  0.240496  0.625528  0  4.11786  0
C  C59  1  0.62771410  0.70002277  0.60889294  1  1.593363  0  0.240507  0.625554  0  4.117979  0
C  C60  1  0.62773082  0.20002365  0.89110643  1  1.593009  0  0.240526  0.625613  0  4.117801  0
C  C61  1  0.37227392  0.29997546  0.39111272  1  1.59378  0  0.240487  0.625406  0  4.117907  0
C  C62  1  0.23460071  0.83525189  0.94332809  1  1.599047  0  0.230089  0.611478  0  4.149455  0
C  C63  1  0.76539509  0.66474283  0.44332369  1  1.599102  0  0.229994  0.611549  0  4.149357  0
C  C64  1  0.76542729  0.16475335  0.05666373  1  1.599527  0  0.22989  0.611392  0  4.149575  0
C  C65  1  0.23461598  0.33525541  0.55667882  1  1.599688  0  0.230031  0.611408  0  4.149573  0
C  C66  1  0.16662671  0.65108209  0.81637644  1  1.610702  0  0.216816  0.586923  0  4.212974  0
C  C67  1  0.83335917  0.84891175  0.31637581  1  1.610677  0  0.216745  0.586981  0  4.213167  0
C  C68  1  0.83338595  0.34892228  0.18362042  1  1.610831  0  0.217006  0.587233  0  4.213081  0
C  C69  1  0.16662945  0.15108210  0.68362922  1  1.610742  0  0.216796  0.58707  0  4.212471  0
C  C70  1  0.15088786  0.41122929  0.87239957  1  1.554203  0  0.222766  0.596967  0  4.149149  0
C  C71  1  0.84910715  0.08876369  0.37239706  1  1.554166  0  0.2228  0.59704  0  4.148798  0
C  C72  1  0.84912592  0.58876894  0.12760043  1  1.554173  0  0.222623  0.596882  0  4.14899  0
C  C73  1  0.15086437  0.91122841  0.62760797  1  1.554242  0  0.222702  0.597066  0  4.148958  0
O  O74  1  0.27259353  0.81152895  0.17235054  1  -1.169773  0  -0.301831  -0.535821  0  2.348638  0
O  O75  1  0.72740359  0.68847979  0.67235368  1  -1.169804  0  -0.3018  -0.535716  0  2.348639  0
O  O76  1  0.72741151  0.18847367  0.82764380  1  -1.169579  0  -0.301876  -0.535855  0  2.348782  0
O  O77  1  0.27259949  0.31152720  0.32765135  1  -1.170181  0  -0.30172  -0.53558  0  2.3487  0
O  O78  1  0.53749477  0.86737754  0.09488464  1  -1.15665  0  -0.280973  -0.530503  0  2.321317  0
O  O79  1  0.46249823  0.63261981  0.59489093  1  -1.156743  0  -0.280994  -0.530571  0  2.321469  0
O  O80  1  0.46251350  0.13262332  0.90511473  1  -1.156459  0  -0.280927  -0.530486  0  2.321218  0
O  O81  1  0.53749913  0.36736966  0.40511536  1  -1.156626  0  -0.28101  -0.530509  0  2.321184  0
O  O82  1  0.18288126  0.89239813  0.00115798  1  -1.142371  0  -0.285168  -0.530947  0  2.304287  0
O  O83  1  0.81712011  0.60760535  0.50115484  1  -1.142296  0  -0.285188  -0.530984  0  2.304172  0
O  O84  1  0.81715647  0.10761325  0.99883448  1  -1.142733  0  -0.285089  -0.530945  0  2.304443  0
O  O85  1  0.18291270  0.39240427  0.49885334  1  -1.142446  0  -0.285232  -0.530963  0  2.304346  0
O  O86  1  0.27197303  0.86631997  0.86752373  1  -1.134022  0  -0.280764  -0.506903  0  2.369852  0
O  O87  1  0.72800991  0.63366774  0.36752499  1  -1.134155  0  -0.280662  -0.50692  0  2.369938  0
O  O88  1  0.72805982  0.13367563  0.13246747  1  -1.134079  0  -0.280707  -0.506821  0  2.36982  0
O  O89  1  0.27198245  0.36632261  0.63248318  1  -1.134368  0  -0.280693  -0.50685  0  2.369922  0
O  O90  1  0.00098825  0.65335581  0.79679512  1  -1.120113  0  -0.289368  -0.48883  0  2.2438  0
O  O91  1  0.99899890  0.84664066  0.29679449  1  -1.119886  0  -0.289326  -0.488887  0  2.244025  0
O  O92  1  0.99901646  0.34664330  0.20320739  1  -1.120274  0  -0.289379  -0.488895  0  2.24398  0
O  O93  1  0.00099080  0.15336108  0.70321682  1  -1.120218  0  -0.289321  -0.488822  0  2.243458  0
O  O94  1  0.30247889  0.66381143  0.76401144  1  -1.126793  0  -0.304634  -0.538869  0  2.25204  0
O  O95  1  0.69750301  0.83617978  0.26400830  1  -1.12698  0  -0.304645  -0.5389  0  2.251836  0
O  O96  1  0.69753133  0.33618505  0.23598164  1  -1.126717  0  -0.304765  -0.539042  0  2.252104  0
O  O97  1  0.30249552  0.16381495  0.73599359  1  -1.126908  0  -0.304651  -0.538917  0  2.251841  0
O  O98  1  0.95484577  0.96009111  0.12206764  1  -0.969443  0  -0.472092  -0.791464  0  1.864688  0
O  O99  1  0.04516485  0.53990624  0.62207519  1  -0.969362  0  -0.472152  -0.791376  0  1.864443  0
O  O100  1  0.04516834  0.03991063  0.87793487  1  -0.969062  0  -0.472043  -0.791333  0  1.864008  0
O  O101  1  0.95485324  0.46009813  0.37791664  1  -0.969312  0  -0.472151  -0.791339  0  1.864145  0
O  O102  1  0.10764776  0.42110400  0.79661784  1  -1.158719  0  -0.292511  -0.529623  0  2.283448  0
O  O103  1  0.89234884  0.07889512  0.29661470  1  -1.158811  0  -0.292464  -0.529612  0  2.283436  0
O  O104  1  0.89235288  0.57889511  0.20338404  1  -1.158768  0  -0.292399  -0.529469  0  2.28335  0
O  O105  1  0.10765587  0.92110399  0.70339347  1  -1.158762  0  -0.292521  -0.529759  0  2.283492  0
O  O106  1  0.13428840  0.30943573  0.90496448  1  -1.156989  0  -0.307742  -0.563642  0  2.373815  0
O  O107  1  0.86571830  0.19055901  0.40496511  1  -1.156815  0  -0.307842  -0.563822  0  2.373485  0
O  O108  1  0.86573071  0.69056513  0.09503552  1  -1.156952  0  -0.307754  -0.563692  0  2.373655  0
O  O109  1  0.13426261  0.80943572  0.59503866  1  -1.156985  0  -0.307711  -0.563659  0  2.373654  0
O  O110  1  0.22328678  0.15782967  0.02182561  1  -1.204344  0  -0.54981  -0.694065  0  2.038112  0
O  O111  1  0.77675124  0.34217383  0.52181807  1  -1.204792  0  -0.549849  -0.694086  0  2.038147  0
O  O112  1  0.77673073  0.84216506  0.97817690  1  -1.204855  0  -0.549904  -0.694232  0  2.037966  0
O  O113  1  0.22325871  0.65783053  0.47817627  1  -1.204747  0  -0.549759  -0.694005  0  2.038117  0
O  O114  1  0.49014316  0.00510471  0.24894072  1  -1.213951  0  -0.551893  -0.716367  0  2.077496  0
O  O115  1  0.50986417  0.49491106  0.74895266  1  -1.214133  0  -0.551874  -0.716282  0  2.077756  0
O  O116  1  0.50987134  0.99491193  0.75105362  1  -1.214003  0  -0.551864  -0.716335  0  2.077779  0
O  O117  1  0.49013427  0.50508630  0.25105048  1  -1.214069  0  -0.551869  -0.716305  0  2.07748  0
