# generated using pymatgen
data_DyCdH7C5SN2O11
_symmetry_space_group_name_H-M   'P 1'
_cell_length_a   8.58712520
_cell_length_b   10.49752419
_cell_length_c   13.79402269
_cell_angle_alpha   90.00003503
_cell_angle_beta   101.79221781
_cell_angle_gamma   89.99958257
_symmetry_Int_Tables_number   1
_chemical_formula_structural   DyCdH7C5SN2O11
_chemical_formula_sum   'Dy4 Cd4 H28 C20 S4 N8 O44'
_cell_volume   1217.19958075
_cell_formula_units_Z   4
loop_
 _symmetry_equiv_pos_site_id
 _symmetry_equiv_pos_as_xyz
  1  'x, y, z'
loop_
 _atom_site_type_symbol
 _atom_site_label
 _atom_site_symmetry_multiplicity
 _atom_site_fract_x
 _atom_site_fract_y
 _atom_site_fract_z
 _atom_site_occupancy
 _atom_site_hle17_bader_spin_density
 _atom_site_hle17_ddec_charge
 _atom_site_hle17_ddec_spin_density
 _atom_site_hle17_ddec_sum_bond_order
 _atom_site_hle17_magmom
 _atom_site_hse06_10hf_bader_spin_density
 _atom_site_hse06_10hf_ddec_charge
 _atom_site_hse06_10hf_ddec_spin_density
 _atom_site_hse06_10hf_ddec_sum_bond_order
 _atom_site_hse06_10hf_magmom
 _atom_site_hse06_bader_spin_density
 _atom_site_hse06_ddec_charge
 _atom_site_hse06_ddec_spin_density
 _atom_site_hse06_ddec_sum_bond_order
 _atom_site_hse06_magmom
 _atom_site_pbe_bader_spin_density
 _atom_site_pbe_cm5_charge
 _atom_site_pbe_ddec_charge
 _atom_site_pbe_ddec_spin_density
 _atom_site_pbe_ddec_sum_bond_order
 _atom_site_pbe_magmom
Dy  Dy0  1  0.93290864  0.89495591  0.10865948  1  0  2.347575  0  1.567238  0  0  2.281284  0  1.880025  0  0  2.325588  0  1.841141  0  0  1.531415  2.17105  0  2.053708  0
Dy  Dy1  1  0.06708943  0.39495689  0.39134021  1  0  2.347564  0  1.5672  0  0  2.281269  0  1.879982  0  0  2.325574  0  1.841098  0  0  1.531409  2.17104  0  2.053679  0
Dy  Dy2  1  0.06708965  0.10504112  0.89133872  1  0  2.347601  0  1.567164  0  0  2.2813  0  1.87994  0  0  2.325607  0  1.841056  0  0  1.531412  2.171035  0  2.05368  0
Dy  Dy3  1  0.93291007  0.60504299  0.60866104  1  0  2.34759  0  1.567147  0  0  2.281295  0  1.879925  0  0  2.325597  0  1.841041  0  0  1.5314  2.17103  0  2.053656  0
Cd  Cd4  1  0.62405161  0.48250054  0.13399067  1  0  1.204132  0  1.660279  0  0  1.008821  0  2.1104  0  0  1.063188  0  2.058025  0  0  0.81441  0.968792  0  2.147194  0
Cd  Cd5  1  0.37595042  0.98250022  0.36600882  1  0  1.204134  0  1.660292  0  0  1.008827  0  2.11043  0  0  1.063193  0  2.058056  0  0  0.814423  0.968795  0  2.147225  0
Cd  Cd6  1  0.37595381  0.51750411  0.86600696  1  0  1.204115  0  1.660351  0  0  1.008808  0  2.11048  0  0  1.063177  0  2.058102  0  0  0.814445  0.96878  0  2.147275  0
Cd  Cd7  1  0.62404910  0.01750062  0.63399388  1  0  1.204117  0  1.66033  0  0  1.008807  0  2.110457  0  0  1.063178  0  2.058081  0  0  0.814423  0.968775  0  2.14725  0
H  H8  1  0.62723273  0.25841634  0.33788653  1  0  0.096061  0  0.953182  0  0  0.103038  0  1.018421  0  0  0.105733  0  1.01509  0  0  0.130956  0.100835  0  1.021252  0
H  H9  1  0.37276898  0.75841302  0.16211427  1  0  0.096117  0  0.95314  0  0  0.103025  0  1.018459  0  0  0.105721  0  1.015129  0  0  0.130966  0.100822  0  1.021291  0
H  H10  1  0.37276913  0.74158735  0.66211066  1  0  0.09612  0  0.953094  0  0  0.103099  0  1.018334  0  0  0.105792  0  1.015009  0  0  0.131013  0.100895  0  1.021165  0
H  H11  1  0.62722695  0.24158781  0.83788508  1  0  0.096173  0  0.953137  0  0  0.103086  0  1.018447  0  0  0.105778  0  1.01512  0  0  0.130996  0.100882  0  1.021277  0
H  H12  1  0.99645463  0.89849188  0.33356497  1  0  0.444202  0  0.845601  0  0  0.415079  0  0.905323  0  0  0.425457  0  0.890114  0  0  0.305266  0.407443  0  0.91636  0
H  H13  1  0.00354459  0.39849021  0.16643414  1  0  0.444209  0  0.845581  0  0  0.415085  0  0.905306  0  0  0.425463  0  0.890098  0  0  0.305267  0.407452  0  0.916343  0
H  H14  1  0.00354487  0.10150800  0.66643556  1  0  0.444173  0  0.845648  0  0  0.415038  0  0.905392  0  0  0.42542  0  0.890177  0  0  0.305255  0.407388  0  0.916441  0
H  H15  1  0.99645251  0.60150872  0.83356391  1  0  0.444224  0  0.845575  0  0  0.415104  0  0.905295  0  0  0.425483  0  0.890084  0  0  0.305277  0.407467  0  0.916333  0
H  H16  1  0.80873257  0.91327496  0.30095506  1  0  0.43252  0  0.828185  0  0  0.408785  0  0.893063  0  0  0.416518  0  0.881929  0  0  0.320818  0.40313  0  0.900682  0
H  H17  1  0.19126772  0.41327505  0.19904418  1  0  0.432512  0  0.828175  0  0  0.408773  0  0.893074  0  0  0.416507  0  0.881939  0  0  0.320817  0.40312  0  0.900676  0
H  H18  1  0.19126930  0.08672492  0.69904430  1  0  0.432533  0  0.828144  0  0  0.408787  0  0.893059  0  0  0.416522  0  0.881922  0  0  0.320807  0.403132  0  0.900665  0
H  H19  1  0.80873059  0.58672578  0.80095546  1  0  0.43251  0  0.828153  0  0  0.408767  0  0.89308  0  0  0.416501  0  0.881944  0  0  0.320804  0.403112  0  0.900665  0
H  H20  1  0.01099642  0.63431436  0.16751605  1  0  0.451467  0  0.806936  0  0  0.429756  0  0.866786  0  0  0.439358  0  0.852409  0  0  0.322331  0.422323  0  0.875787  0
H  H21  1  0.98899928  0.13431552  0.33248323  1  0  0.451423  0  0.806966  0  0  0.429728  0  0.866812  0  0  0.439327  0  0.85244  0  0  0.322357  0.422297  0  0.875783  0
H  H22  1  0.98900069  0.36568457  0.83248200  1  0  0.451436  0  0.806961  0  0  0.42974  0  0.866794  0  0  0.43934  0  0.852421  0  0  0.322375  0.422307  0  0.875777  0
H  H23  1  0.01100023  0.86568436  0.66751802  1  0  0.451437  0  0.806955  0  0  0.429742  0  0.866792  0  0  0.439341  0  0.85242  0  0  0.322375  0.422309  0  0.875775  0
H  H24  1  0.04992241  0.68894908  0.27423578  1  0  0.452486  0  0.847099  0  0  0.41998  0  0.912609  0  0  0.43058  0  0.897165  0  0  0.304661  0.411924  0  0.924226  0
H  H25  1  0.95007757  0.18895134  0.22576623  1  0  0.452539  0  0.847018  0  0  0.420089  0  0.912457  0  0  0.430685  0  0.897017  0  0  0.304739  0.412035  0  0.924075  0
H  H26  1  0.95007829  0.31104890  0.72576562  1  0  0.452535  0  0.847026  0  0  0.420079  0  0.912476  0  0  0.430674  0  0.897037  0  0  0.304728  0.412024  0  0.924095  0
H  H27  1  0.04992193  0.81104759  0.77423429  1  0  0.452501  0  0.84707  0  0  0.420086  0  0.91246  0  0  0.430682  0  0.897021  0  0  0.304742  0.412029  0  0.924081  0
H  H28  1  0.56121192  0.88547000  0.07141097  1  0  0.451476  0  0.828968  0  0  0.424875  0  0.884908  0  0  0.43359  0  0.872228  0  0  0.31079  0.418268  0  0.894356  0
H  H29  1  0.43878743  0.38546880  0.42858960  1  0  0.451459  0  0.828995  0  0  0.424868  0  0.884925  0  0  0.433583  0  0.872245  0  0  0.310782  0.418262  0  0.894373  0
H  H30  1  0.43878758  0.11452798  0.92858955  1  0  0.451523  0  0.828905  0  0  0.424932  0  0.884822  0  0  0.433644  0  0.872146  0  0  0.310809  0.418325  0  0.894271  0
H  H31  1  0.56121325  0.61452822  0.57141035  1  0  0.451511  0  0.828927  0  0  0.424928  0  0.884836  0  0  0.433641  0  0.872159  0  0  0.310808  0.418321  0  0.894285  0
H  H32  1  0.62682446  0.02638915  0.08223855  1  0  0.436765  0  0.853021  0  0  0.406544  0  0.91799  0  0  0.416488  0  0.903354  0  0  0.304947  0.399359  0  0.928319  0
H  H33  1  0.37317342  0.52638889  0.41776095  1  0  0.43676  0  0.852887  0  0  0.406543  0  0.917962  0  0  0.416487  0  0.903325  0  0  0.304932  0.399356  0  0.928291  0
H  H34  1  0.37317504  0.97360883  0.91776197  1  0  0.436731  0  0.853049  0  0  0.406504  0  0.918046  0  0  0.416449  0  0.903407  0  0  0.304926  0.399318  0  0.928375  0
H  H35  1  0.62682489  0.47360909  0.58223797  1  0  0.436762  0  0.853052  0  0  0.406539  0  0.918003  0  0  0.416485  0  0.903364  0  0  0.304943  0.399351  0  0.928335  0
C  C36  1  0.53157430  0.24126494  0.27449261  1  0  0.264573  0  3.677802  0  0  0.20888  0  3.954484  0  0  0.222825  0  3.967353  0  0  0.142732  0.199415  0  3.946043  0
C  C37  1  0.46842875  0.74126110  0.22550836  1  0  0.264453  0  3.678133  0  0  0.208801  0  3.954816  0  0  0.222744  0  3.967686  0  0  0.142644  0.199332  0  3.946375  0
C  C38  1  0.46843115  0.75873590  0.72550938  1  0  0.264549  0  3.677729  0  0  0.208852  0  3.954425  0  0  0.222799  0  3.967288  0  0  0.142616  0.199384  0  3.945984  0
C  C39  1  0.53156717  0.25873783  0.77448954  1  0  0.264398  0  3.678254  0  0  0.208749  0  3.954929  0  0  0.222696  0  3.967795  0  0  0.142618  0.199282  0  3.946486  0
C  C40  1  0.33246635  0.15188727  0.17556297  1  0  0.002348  0  3.757475  0  0  -0.003014  0  4.008932  0  0  -0.005972  0  4.0296  0  0  0.075886  -0.001919  0  3.996836  0
C  C41  1  0.66752919  0.65188804  0.32443629  1  0  0.002286  0  3.75759  0  0  -0.003032  0  4.008978  0  0  -0.00599  0  4.029645  0  0  0.075879  -0.001937  0  3.996874  0
C  C42  1  0.66754029  0.84811546  0.82443844  1  0  0.002491  0  3.757507  0  0  -0.002895  0  4.008931  0  0  -0.005847  0  4.029595  0  0  0.075843  -0.001802  0  3.996831  0
C  C43  1  0.33246435  0.34811089  0.67556131  1  0  0.002539  0  3.757279  0  0  -0.002856  0  4.008765  0  0  -0.005812  0  4.029432  0  0  0.075941  -0.001761  0  3.996669  0
C  C44  1  0.37694134  0.26113574  0.12915787  1  0  -0.016222  0  3.766306  0  0  -0.023548  0  4.023494  0  0  -0.024839  0  4.043061  0  0  0.072845  -0.023034  0  4.011417  0
C  C45  1  0.62305677  0.76113490  0.37084104  1  0  -0.016275  0  3.766402  0  0  -0.02361  0  4.023573  0  0  -0.024898  0  4.043132  0  0  0.072823  -0.023097  0  4.011487  0
C  C46  1  0.62306292  0.73886414  0.87084325  1  0  -0.016423  0  3.766511  0  0  -0.023658  0  4.023588  0  0  -0.024959  0  4.043162  0  0  0.072843  -0.023144  0  4.011509  0
C  C47  1  0.37693916  0.23886402  0.62915759  1  0  -0.016361  0  3.766374  0  0  -0.023681  0  4.02359  0  0  -0.024973  0  4.043156  0  0  0.072802  -0.023168  0  4.011513  0
C  C48  1  0.21246600  0.05402550  0.14455548  1  0  0.691236  0  3.890949  0  0  0.642475  0  4.187347  0  0  0.679249  0  4.173935  0  0  0.21634  0.6176  0  4.187823  0
C  C49  1  0.78753520  0.55402272  0.35544445  1  0  0.691189  0  3.891047  0  0  0.642425  0  4.187423  0  0  0.6792  0  4.174009  0  0  0.216287  0.617551  0  4.18789  0
C  C50  1  0.78753589  0.94597343  0.85544534  1  0  0.691027  0  3.89117  0  0  0.64227  0  4.187554  0  0  0.679044  0  4.174146  0  0  0.216262  0.617394  0  4.188019  0
C  C51  1  0.21246192  0.44597621  0.64455505  1  0  0.690987  0  3.891083  0  0  0.642252  0  4.187449  0  0  0.679028  0  4.174044  0  0  0.216238  0.617378  0  4.187915  0
C  C52  1  0.31657058  0.32313907  0.03249891  1  0  0.69101  0  3.905306  0  0  0.640144  0  4.200748  0  0  0.676724  0  4.188548  0  0  0.222584  0.614377  0  4.207377  0
C  C53  1  0.68343054  0.82313700  0.46750257  1  0  0.691067  0  3.905393  0  0  0.640202  0  4.200821  0  0  0.676789  0  4.188606  0  0  0.222621  0.614436  0  4.207447  0
C  C54  1  0.68343604  0.67686748  0.96750032  1  0  0.691162  0  3.904943  0  0  0.640258  0  4.200405  0  0  0.676847  0  4.188199  0  0  0.222663  0.614489  0  4.207032  0
C  C55  1  0.31656540  0.17686383  0.53249823  1  0  0.6911  0  3.905229  0  0  0.640216  0  4.200714  0  0  0.676802  0  4.188504  0  0  0.222615  0.614449  0  4.207345  0
S  S56  1  0.79913686  0.21908644  0.04403995  1  0  1.647913  0  5.739792  0  0  1.52116  0  6.286747  0  0  1.578365  0  6.247489  0  0  0.591821  1.480477  0  6.309211  0
S  S57  1  0.20086403  0.71908533  0.45596146  1  0  1.647989  0  5.739808  0  0  1.521238  0  6.28676  0  0  1.578447  0  6.247498  0  0  0.591875  1.480553  0  6.309226  0
S  S58  1  0.20086502  0.78091344  0.95596087  1  0  1.647798  0  5.739845  0  0  1.521053  0  6.286811  0  0  1.578253  0  6.247552  0  0  0.591761  1.48037  0  6.30928  0
S  S59  1  0.79913667  0.28091265  0.54403993  1  0  1.647826  0  5.739905  0  0  1.521082  0  6.286868  0  0  1.57829  0  6.247595  0  0  0.59178  1.4804  0  6.309338  0
N  N60  1  0.50275398  0.31524053  0.19333175  1  0  -0.426927  0  3.239284  0  0  -0.359267  0  3.525421  0  0  -0.380704  0  3.542324  0  0  -0.362692  -0.344019  0  3.513782  0
N  N61  1  0.49724601  0.81523753  0.30666742  1  0  -0.426856  0  3.23938  0  0  -0.359189  0  3.525488  0  0  -0.380628  0  3.542391  0  0  -0.362632  -0.343943  0  3.513848  0
N  N62  1  0.49724909  0.68475840  0.80666849  1  0  -0.426769  0  3.239354  0  0  -0.359142  0  3.525475  0  0  -0.380573  0  3.542373  0  0  -0.362638  -0.343896  0  3.513835  0
N  N63  1  0.50274992  0.18476330  0.69333266  1  0  -0.426807  0  3.239427  0  0  -0.359138  0  3.525537  0  0  -0.380572  0  3.542435  0  0  -0.362615  -0.343891  0  3.5139  0
N  N64  1  0.42956771  0.14289062  0.26782915  1  0  -0.428831  0  3.212608  0  0  -0.35634  0  3.497048  0  0  -0.378002  0  3.513275  0  0  -0.356967  -0.340931  0  3.485898  0
N  N65  1  0.57042791  0.64289189  0.23217012  1  0  -0.428726  0  3.212853  0  0  -0.356242  0  3.497241  0  0  -0.377904  0  3.513469  0  0  -0.356944  -0.340836  0  3.486089  0
N  N66  1  0.57043891  0.85711593  0.73216863  1  0  -0.428898  0  3.212564  0  0  -0.356415  0  3.497022  0  0  -0.378077  0  3.513239  0  0  -0.356865  -0.341007  0  3.485874  0
N  N67  1  0.42956803  0.35711085  0.76783141  1  0  -0.428822  0  3.212682  0  0  -0.356318  0  3.497095  0  0  -0.37798  0  3.513318  0  0  -0.356958  -0.34091  0  3.485946  0
O  O68  1  0.17910520  0.97699182  0.20963502  1  0  -0.698785  0  2.038431  0  0  -0.640675  0  2.293472  0  0  -0.667851  0  2.281403  0  0  -0.364991  -0.613721  0  2.302052  0
O  O69  1  0.82089331  0.47699014  0.29036403  1  0  -0.698776  0  2.038534  0  0  -0.640665  0  2.293569  0  0  -0.667846  0  2.281507  0  0  -0.36499  -0.613717  0  2.302151  0
O  O70  1  0.82089787  0.02301282  0.79036595  1  0  -0.698718  0  2.038471  0  0  -0.640574  0  2.29344  0  0  -0.667767  0  2.281409  0  0  -0.364961  -0.61362  0  2.302017  0
O  O71  1  0.17910381  0.52301164  0.70963547  1  0  -0.698745  0  2.038558  0  0  -0.640625  0  2.293567  0  0  -0.6678  0  2.281493  0  0  -0.364971  -0.613668  0  2.302143  0
O  O72  1  0.13834963  0.04234864  0.05481660  1  0  -0.826959  0  2.274577  0  0  -0.789061  0  2.537009  0  0  -0.815359  0  2.527636  0  0  -0.437771  -0.752909  0  2.54331  0
O  O73  1  0.86165168  0.54234835  0.44518406  1  0  -0.826905  0  2.274542  0  0  -0.789044  0  2.537033  0  0  -0.815341  0  2.527653  0  0  -0.437749  -0.752891  0  2.543322  0
O  O74  1  0.86165464  0.95765505  0.94518596  1  0  -0.826902  0  2.274651  0  0  -0.789043  0  2.537135  0  0  -0.815337  0  2.527748  0  0  -0.43778  -0.752891  0  2.543419  0
O  O75  1  0.13834305  0.45765344  0.55481297  1  0  -0.826862  0  2.274548  0  0  -0.788996  0  2.537011  0  0  -0.815294  0  2.52763  0  0  -0.43775  -0.752843  0  2.543296  0
O  O76  1  0.20892011  0.27378718  0.96747891  1  0  -0.726509  0  2.108883  0  0  -0.683944  0  2.366537  0  0  -0.708592  0  2.353268  0  0  -0.411507  -0.655701  0  2.378508  0
O  O77  1  0.79108046  0.77378793  0.53252030  1  0  -0.726505  0  2.109007  0  0  -0.683941  0  2.366653  0  0  -0.70859  0  2.353377  0  0  -0.411511  -0.655701  0  2.378622  0
O  O78  1  0.79108892  0.72621270  0.03252425  1  0  -0.726446  0  2.108781  0  0  -0.683871  0  2.366452  0  0  -0.708518  0  2.353179  0  0  -0.411491  -0.655637  0  2.37842  0
O  O79  1  0.20891309  0.22621100  0.46747876  1  0  -0.726496  0  2.10895  0  0  -0.683913  0  2.366606  0  0  -0.708561  0  2.353332  0  0  -0.411491  -0.655678  0  2.37858  0
O  O80  1  0.37974419  0.43096430  0.01921144  1  0  -0.655807  0  2.092241  0  0  -0.573254  0  2.3563  0  0  -0.604518  0  2.340813  0  0  -0.324836  -0.551728  0  2.367495  0
O  O81  1  0.62025355  0.93096357  0.48078750  1  0  -0.655831  0  2.092244  0  0  -0.57328  0  2.356306  0  0  -0.604548  0  2.340816  0  0  -0.324846  -0.551751  0  2.367492  0
O  O82  1  0.62025176  0.56903177  0.98079082  1  0  -0.655928  0  2.091851  0  0  -0.573367  0  2.355929  0  0  -0.604638  0  2.34044  0  0  -0.324909  -0.551837  0  2.367116  0
O  O83  1  0.37974592  0.06903631  0.51920939  1  0  -0.655838  0  2.09214  0  0  -0.573304  0  2.356233  0  0  -0.604572  0  2.340744  0  0  -0.324857  -0.551779  0  2.367433  0
O  O84  1  0.62869461  0.18594579  0.01447498  1  0  -0.742813  0  1.933342  0  0  -0.683929  0  2.175013  0  0  -0.706631  0  2.158962  0  0  -0.34449  -0.668502  0  2.186623  0
O  O85  1  0.37130418  0.68594464  0.48552398  1  0  -0.742848  0  1.933439  0  0  -0.683963  0  2.175114  0  0  -0.706669  0  2.159064  0  0  -0.344483  -0.668533  0  2.186716  0
O  O86  1  0.37130608  0.81405219  0.98552569  1  0  -0.74276  0  1.933431  0  0  -0.683829  0  2.175037  0  0  -0.706553  0  2.159018  0  0  -0.34445  -0.668396  0  2.186639  0
O  O87  1  0.62869293  0.31405334  0.51447407  1  0  -0.742797  0  1.933369  0  0  -0.683884  0  2.174996  0  0  -0.706608  0  2.158969  0  0  -0.34448  -0.668451  0  2.186599  0
O  O88  1  0.82252965  0.34600298  0.09449508  1  0  -0.746003  0  1.982116  0  0  -0.669289  0  2.239831  0  0  -0.694234  0  2.218333  0  0  -0.352165  -0.652316  0  2.255642  0
O  O89  1  0.17747005  0.84600388  0.40550334  1  0  -0.745982  0  1.982057  0  0  -0.669269  0  2.239761  0  0  -0.694219  0  2.218272  0  0  -0.352166  -0.652296  0  2.25557  0
O  O90  1  0.17746985  0.65399404  0.90550544  1  0  -0.745927  0  1.981964  0  0  -0.669244  0  2.239703  0  0  -0.6942  0  2.218222  0  0  -0.352154  -0.652271  0  2.255515  0
O  O91  1  0.82252824  0.15399410  0.59449413  1  0  -0.745947  0  1.982035  0  0  -0.669227  0  2.239745  0  0  -0.694184  0  2.218264  0  0  -0.352144  -0.652252  0  2.255551  0
O  O92  1  0.87861644  0.12170803  0.11860338  1  0  -0.843318  0  2.084686  0  0  -0.780022  0  2.337341  0  0  -0.803696  0  2.321232  0  0  -0.408488  -0.754446  0  2.349268  0
O  O93  1  0.12138415  0.62170829  0.38139795  1  0  -0.843384  0  2.084727  0  0  -0.780025  0  2.33733  0  0  -0.803711  0  2.321233  0  0  -0.408519  -0.754453  0  2.349256  0
O  O94  1  0.12138308  0.87829090  0.88139932  1  0  -0.84334  0  2.084821  0  0  -0.78006  0  2.337464  0  0  -0.803717  0  2.321349  0  0  -0.408498  -0.754479  0  2.349391  0
O  O95  1  0.87861654  0.37828969  0.61860127  1  0  -0.843333  0  2.084873  0  0  -0.780025  0  2.337502  0  0  -0.803684  0  2.321383  0  0  -0.40847  -0.754444  0  2.349429  0
O  O96  1  0.87626921  0.22203013  0.95735125  1  0  -0.807257  0  2.042427  0  0  -0.765559  0  2.315972  0  0  -0.787133  0  2.296679  0  0  -0.416864  -0.74022  0  2.331138  0
O  O97  1  0.12373181  0.72203010  0.54264727  1  0  -0.807279  0  2.042526  0  0  -0.7656  0  2.316088  0  0  -0.787173  0  2.296791  0  0  -0.416894  -0.740269  0  2.331267  0
O  O98  1  0.12373745  0.77796880  0.04265379  1  0  -0.807223  0  2.042397  0  0  -0.765537  0  2.315957  0  0  -0.787108  0  2.296666  0  0  -0.41683  -0.740205  0  2.331129  0
O  O99  1  0.87626409  0.27796883  0.45734845  1  0  -0.807196  0  2.042405  0  0  -0.765547  0  2.315989  0  0  -0.78712  0  2.296691  0  0  -0.416848  -0.740217  0  2.331169  0
O  O100  1  0.90914307  0.93890355  0.28420929  1  0  -0.866956  0  1.845363  0  0  -0.822638  0  2.02377  0  0  -0.840732  0  1.994961  0  0  -0.600203  -0.800993  0  2.048981  0
O  O101  1  0.09085698  0.43890331  0.21579067  1  0  -0.866948  0  1.845316  0  0  -0.822626  0  2.023729  0  0  -0.840722  0  1.994918  0  0  -0.600194  -0.800983  0  2.04892  0
O  O102  1  0.09085524  0.06109442  0.71579109  1  0  -0.866924  0  1.845311  0  0  -0.822592  0  2.023726  0  0  -0.840689  0  1.994911  0  0  -0.600167  -0.800924  0  2.048967  0
O  O103  1  0.90914370  0.56109562  0.78420855  1  0  -0.866958  0  1.845287  0  0  -0.822636  0  2.023706  0  0  -0.840731  0  1.994896  0  0  -0.600199  -0.800987  0  2.048892  0
O  O104  1  0.99813420  0.71120766  0.20479989  1  0  -0.930564  0  1.894689  0  0  -0.899327  0  2.10856  0  0  -0.916584  0  2.07594  0  0  -0.660101  -0.876071  0  2.135522  0
O  O105  1  0.00186198  0.21120134  0.29519948  1  0  -0.930578  0  1.894675  0  0  -0.899348  0  2.108382  0  0  -0.916602  0  2.075766  0  0  -0.66018  -0.876092  0  2.135325  0
O  O106  1  0.00186292  0.28879793  0.79520106  1  0  -0.930575  0  1.894642  0  0  -0.89937  0  2.108392  0  0  -0.916622  0  2.075779  0  0  -0.660192  -0.876112  0  2.135347  0
O  O107  1  0.99813633  0.78879854  0.70480016  1  0  -0.930549  0  1.894717  0  0  -0.89936  0  2.108379  0  0  -0.916612  0  2.075763  0  0  -0.660199  -0.876103  0  2.135339  0
O  O108  1  0.65071917  0.93803738  0.10505142  1  0  -0.896875  0  1.839208  0  0  -0.861051  0  2.017055  0  0  -0.878895  0  1.989507  0  0  -0.626752  -0.83856  0  2.041884  0
O  O109  1  0.34927970  0.43803574  0.39494766  1  0  -0.896851  0  1.839109  0  0  -0.861048  0  2.017028  0  0  -0.878892  0  1.989479  0  0  -0.626733  -0.838559  0  2.041859  0
O  O110  1  0.34928272  0.06196250  0.89495013  1  0  -0.896897  0  1.839187  0  0  -0.861063  0  2.017033  0  0  -0.878917  0  1.989506  0  0  -0.626765  -0.838567  0  2.041865  0
O  O111  1  0.65071740  0.56196129  0.60504893  1  0  -0.896917  0  1.839221  0  0  -0.861097  0  2.017012  0  0  -0.878952  0  1.989483  0  0  -0.626787  -0.838603  0  2.041844  0
