# generated using pymatgen
data_CuH8C14N4(ClO)4
_symmetry_space_group_name_H-M   'P 1'
_cell_length_a   11.95089916
_cell_length_b   12.13875620
_cell_length_c   13.04207976
_cell_angle_alpha   113.07862547
_cell_angle_beta   89.99993625
_cell_angle_gamma   89.99994288
_symmetry_Int_Tables_number   1
_chemical_formula_structural   CuH8C14N4(ClO)4
_chemical_formula_sum   'Cu4 H32 C56 N16 Cl16 O16'
_cell_volume   1740.58103704
_cell_formula_units_Z   4
loop_
 _symmetry_equiv_pos_site_id
 _symmetry_equiv_pos_as_xyz
  1  'x, y, z'
loop_
 _atom_site_type_symbol
 _atom_site_label
 _atom_site_symmetry_multiplicity
 _atom_site_fract_x
 _atom_site_fract_y
 _atom_site_fract_z
 _atom_site_occupancy
 _atom_site_pbe_bader_charge
 _atom_site_pbe_bader_spin_density
 _atom_site_pbe_cm5_charge
 _atom_site_pbe_ddec_charge
 _atom_site_pbe_ddec_spin_density
 _atom_site_pbe_ddec_sum_bond_order
 _atom_site_pbe_magmom
Cu  Cu0  1  0.29761260  0.92769966  0.83035902  1  1.057761  0.564356  0.749918  0.736627  0.738204  2.25571  0.56
Cu  Cu1  1  0.20238659  0.92770157  0.33036092  1  1.057702  0.564313  0.749886  0.736526  0.738142  2.255775  0.56
Cu  Cu2  1  0.70238718  0.07230214  0.16964051  1  1.057807  -0.564318  0.74991  0.736541  -0.738163  2.255779  -0.56
Cu  Cu3  1  0.79760901  0.07229758  0.66963531  1  1.057732  -0.564319  0.749877  0.736542  -0.738158  2.255708  -0.56
H  H4  1  0.54272635  0.92109693  0.88477629  1  0.550632  -8.6e-05  0.331281  0.284724  -0.00026  0.952054  0.0
H  H5  1  0.95727202  0.92110203  0.38477835  1  0.550556  -8.6e-05  0.331257  0.284697  -0.000261  0.952116  0.0
H  H6  1  0.45727176  0.07890304  0.11522562  1  0.550629  8.6e-05  0.331271  0.284722  0.000261  0.95205  0.0
H  H7  1  0.04272274  0.07889619  0.61521984  1  0.550566  8.5e-05  0.331262  0.284702  0.00026  0.952071  0.0
H  H8  1  0.68629561  0.75952250  0.78766512  1  0.158689  0.000634  0.12319  0.120762  0.000337  1.001245  0.0
H  H9  1  0.81370472  0.75952421  0.28766836  1  0.158669  0.000634  0.123169  0.120718  0.000337  1.001285  0.0
H  H10  1  0.31370250  0.24047741  0.21234136  1  0.158681  -0.000634  0.123185  0.120697  -0.000337  1.001322  0.0
H  H11  1  0.18629088  0.24047127  0.71233263  1  0.158837  -0.000633  0.12323  0.120763  -0.000337  1.001253  0.0
H  H12  1  0.56706879  0.57198197  0.63402398  1  0.103546  0.000876  0.098629  0.12612  0.000433  1.035481  0.0
H  H13  1  0.93293527  0.57198527  0.13402922  1  0.103654  0.000875  0.098637  0.126081  0.000433  1.035492  0.0
H  H14  1  0.43293267  0.42801430  0.36598421  1  0.103504  -0.000876  0.098676  0.126149  -0.000433  1.035344  0.0
H  H15  1  0.06706367  0.42801113  0.86597058  1  0.103666  -0.000876  0.098656  0.126111  -0.000433  1.035474  0.0
H  H16  1  0.34968090  0.65840270  0.65970498  1  0.117253  0.000214  0.108418  0.10184  6.5e-05  1.050429  0.0
H  H17  1  0.15032297  0.65840825  0.15971059  1  0.117368  0.000214  0.108451  0.101871  6.5e-05  1.050398  0.0
H  H18  1  0.65031972  0.34159186  0.34029720  1  0.117344  -0.000214  0.108436  0.101818  -6.5e-05  1.050477  0.0
H  H19  1  0.84967514  0.34159444  0.84029003  1  0.117309  -0.000214  0.108447  0.101903  -6.5e-05  1.050371  0.0
H  H20  1  0.22042687  0.02595945  0.07268868  1  0.55971  0.000167  0.324254  0.280071  8.8e-05  0.981282  0.0
H  H21  1  0.27956690  0.02595575  0.57268766  1  0.559735  0.000167  0.324308  0.280157  8.8e-05  0.981285  0.0
H  H22  1  0.77957291  0.97404229  0.92731543  1  0.559706  -0.000167  0.324275  0.280132  -8.8e-05  0.981279  0.0
H  H23  1  0.72043288  0.97404700  0.42730839  1  0.55972  -0.000167  0.324284  0.280206  -8.8e-05  0.981183  0.0
H  H24  1  0.07319065  0.04908192  0.79818751  1  0.119715  0.000371  0.117624  0.105749  0.000136  1.04526  0.0
H  H25  1  0.42681120  0.04908523  0.29819276  1  0.119796  0.000371  0.117644  0.105732  0.000136  1.045207  0.0
H  H26  1  0.92680829  0.95091623  0.20181525  1  0.119638  -0.000371  0.11763  0.105759  -0.000136  1.045242  0.0
H  H27  1  0.57318272  0.95091487  0.70179999  1  0.119913  -0.000371  0.117673  0.105706  -0.000135  1.045177  0.0
H  H28  1  0.94961741  0.19303324  0.97987778  1  0.100676  0.000693  0.093403  0.120886  0.000345  1.057412  0.0
H  H29  1  0.55038080  0.19303257  0.47988883  1  0.100854  0.000693  0.093392  0.120822  0.000345  1.057476  0.0
H  H30  1  0.05038237  0.80696583  0.02012455  1  0.10067  -0.000693  0.09338  0.120839  -0.000345  1.057433  0.0
H  H31  1  0.44962233  0.80696127  0.52010081  1  0.100937  -0.000693  0.093351  0.120739  -0.000345  1.057478  0.0
H  H32  1  0.05949157  0.16986018  0.15866941  1  0.189767  0.001053  0.119855  0.12574  0.000599  1.029267  0.001
H  H33  1  0.44050194  0.16985433  0.65867432  1  0.189726  0.001054  0.11988  0.12577  0.000599  1.029317  0.001
H  H34  1  0.94050904  0.83014249  0.84133274  1  0.189817  -0.001053  0.119856  0.125768  -0.000599  1.029231  -0.001
H  H35  1  0.55950453  0.83014037  0.34131794  1  0.189619  -0.001054  0.119892  0.125731  -0.000599  1.029362  -0.001
C  C36  1  0.09339225  0.75166498  0.54188877  1  0.047547  0.003652  -0.016917  -0.089024  0.002789  3.9461  0.004
C  C37  1  0.40660830  0.75166745  0.04189143  1  0.047859  0.003653  -0.016895  -0.089037  0.002789  3.946068  0.004
C  C38  1  0.90661088  0.24834142  0.45810404  1  0.047848  -0.00365  -0.016831  -0.088977  -0.002788  3.946071  -0.004
C  C39  1  0.59339231  0.24832986  0.95810794  1  0.047842  -0.003651  -0.016926  -0.089178  -0.002788  3.946201  -0.004
C  C40  1  0.14461193  0.64993189  0.46334128  1  0.143358  0.004064  0.003551  0.053076  0.002645  4.062178  0.003
C  C41  1  0.35539075  0.64993249  0.96334563  1  0.14311  0.004065  0.003549  0.053157  0.002645  4.062127  0.003
C  C42  1  0.85539455  0.35007447  0.53665459  1  0.142944  -0.004065  0.003578  0.053146  -0.002645  4.062092  -0.003
C  C43  1  0.64461237  0.35006298  0.03665612  1  0.143139  -0.004065  0.003609  0.05317  -0.002646  4.062034  -0.003
C  C44  1  0.08086201  0.55365640  0.39122525  1  0.184298  -0.006242  -0.002028  0.023979  -0.004129  4.070057  -0.004
C  C45  1  0.41914086  0.55365873  0.89122712  1  0.184367  -0.006242  -0.002035  0.023938  -0.004129  4.070055  -0.004
C  C46  1  0.91914447  0.44634810  0.60877453  1  0.184309  0.006243  -0.002053  0.023895  0.004129  4.070075  0.004
C  C47  1  0.58085892  0.44633674  0.10877463  1  0.184414  0.006243  -0.002058  0.024007  0.00413  4.069926  0.004
C  C48  1  0.96350605  0.55762114  0.40061037  1  0.098627  0.00466  -0.002125  0.019871  0.003067  4.084343  0.003
C  C49  1  0.53649772  0.55762232  0.90061068  1  0.098223  0.004661  -0.002085  0.019904  0.003068  4.084382  0.003
C  C50  1  0.03650210  0.44238334  0.59939092  1  0.098237  -0.00466  -0.002061  0.020006  -0.003068  4.084416  -0.003
C  C51  1  0.46350374  0.44237317  0.09938955  1  0.099587  -0.004661  -0.002179  0.019801  -0.003068  4.084453  -0.003
C  C52  1  0.91206797  0.66163995  0.47635010  1  0.097247  -0.005184  0.00449  0.052393  -0.003337  4.052414  -0.003
C  C53  1  0.58793308  0.66164374  0.97635057  1  0.097601  -0.005184  0.004407  0.052359  -0.003337  4.052519  -0.003
C  C54  1  0.08793264  0.33836187  0.52364866  1  0.097399  0.005183  0.004497  0.052353  0.003337  4.052517  0.003
C  C55  1  0.41206671  0.33835266  0.02364923  1  0.097092  0.005185  0.00441  0.052323  0.003338  4.052541  0.003
C  C56  1  0.97641199  0.75945078  0.54436235  1  0.060875  -0.003133  -0.0145  -0.073671  -0.00271  3.935166  -0.003
C  C57  1  0.52359029  0.75945300  0.04436302  1  0.060769  -0.003131  -0.014467  -0.073689  -0.002709  3.935251  -0.003
C  C58  1  0.02359113  0.24055198  0.45563293  1  0.060878  0.00313  -0.014522  -0.073631  0.002708  3.93539  0.003
C  C59  1  0.47641033  0.24054340  0.95563678  1  0.060755  0.00313  -0.0144  -0.073546  0.002708  3.935135  0.003
C  C60  1  0.16305469  0.85097456  0.62590907  1  1.61837  5.2e-05  0.211859  0.59477  0.001689  4.20916  0.0
C  C61  1  0.33694231  0.85097533  0.12591270  1  1.618534  5.1e-05  0.211852  0.594713  0.001688  4.208916  0.0
C  C62  1  0.83694175  0.14903809  0.37408762  1  1.618523  -5.1e-05  0.211974  0.594966  -0.001687  4.208742  0.0
C  C63  1  0.66305830  0.14902286  0.87408777  1  1.618209  -5.2e-05  0.211924  0.594914  -0.001689  4.208936  0.0
C  C64  1  0.91701218  0.87361492  0.61607167  1  1.587473  0.001397  0.195274  0.567955  -0.000203  4.239228  0.003
C  C65  1  0.58298656  0.87361617  0.11607038  1  1.587531  0.001397  0.19528  0.567982  -0.000203  4.239199  0.003
C  C66  1  0.08298593  0.12638869  0.38392776  1  1.587419  -0.001397  0.195254  0.56793  0.000203  4.239342  -0.003
C  C67  1  0.41701490  0.12638469  0.88393186  1  1.587476  -0.001397  0.195332  0.568064  0.000203  4.239227  -0.003
C  C68  1  0.59794327  0.75080696  0.76760531  1  0.371789  0.003516  0.029643  0.022912  0.002733  3.90955  0.003
C  C69  1  0.90205625  0.75080943  0.26760874  1  0.371764  0.003517  0.02977  0.023068  0.002734  3.909532  0.003
C  C70  1  0.40205483  0.24919292  0.23240270  1  0.371732  -0.003515  0.029613  0.023011  -0.002733  3.909599  -0.003
C  C71  1  0.09793935  0.24918964  0.73239283  1  0.371745  -0.003517  0.029541  0.022788  -0.002734  3.909742  -0.003
C  C72  1  0.53590034  0.65823099  0.69048365  1  0.03614  0.003597  -0.119523  -0.215146  0.002561  4.008562  0.003
C  C73  1  0.96410021  0.65823332  0.19049003  1  0.036195  0.003596  -0.119549  -0.215076  0.002561  4.008565  0.003
C  C74  1  0.46409944  0.34176710  0.30952369  1  0.036188  -0.003596  -0.119593  -0.215207  -0.002561  4.008421  -0.003
C  C75  1  0.03589622  0.34176485  0.80951197  1  0.0362  -0.003596  -0.119548  -0.215037  -0.002561  4.008582  -0.003
C  C76  1  0.42546343  0.70053026  0.70292059  1  0.383373  0.002211  0.013357  0.01512  0.002167  3.969958  0.003
C  C77  1  0.07453783  0.70053415  0.20292489  1  0.383321  0.002211  0.013319  0.015064  0.002167  3.97005  0.003
C  C78  1  0.57453635  0.29946697  0.29708412  1  0.383298  -0.00221  0.013343  0.015079  -0.002167  3.970056  -0.003
C  C79  1  0.92545944  0.29946764  0.79707616  1  0.38321  -0.002211  0.013323  0.014946  -0.002168  3.970102  -0.003
C  C80  1  0.08537796  0.06861906  0.88572294  1  0.404602  0.000798  0.016249  0.024911  0.000824  3.97117  0.001
C  C81  1  0.41462126  0.06862060  0.38572677  1  0.404635  0.000797  0.016133  0.024902  0.000824  3.970921  0.001
C  C82  1  0.91462182  0.93137998  0.11428092  1  0.404582  -0.000797  0.016283  0.025012  -0.000824  3.970916  -0.001
C  C83  1  0.58537517  0.93137590  0.61426616  1  0.404692  -0.000799  0.016083  0.02492  -0.000825  3.970963  -0.001
C  C84  1  0.02428957  0.14237751  0.97913696  1  0.037467  0.00299  -0.12362  -0.213815  0.002146  4.007909  0.002
C  C85  1  0.47570778  0.14237621  0.47914350  1  0.037103  0.00299  -0.123513  -0.213578  0.002146  4.007912  0.002
C  C86  1  0.97570937  0.85762335  0.02086604  1  0.037533  -0.00299  -0.123653  -0.213902  -0.002146  4.007928  -0.002
C  C87  1  0.52429284  0.85761849  0.52084952  1  0.036972  -0.00299  -0.123421  -0.213318  -0.002146  4.007765  -0.002
C  C88  1  0.07796389  0.13343834  0.07019439  1  0.336593  0.004651  0.020368  0.012712  0.00368  3.920458  0.004
C  C89  1  0.42203144  0.13343613  0.57019915  1  0.336193  0.004651  0.020217  0.012431  0.003679  3.920551  0.004
C  C90  1  0.92203589  0.86656250  0.92980938  1  0.336506  -0.004648  0.020337  0.012689  -0.003678  3.920291  -0.004
C  C91  1  0.57797169  0.86655765  0.42979507  1  0.336604  -0.004653  0.020216  0.012383  -0.003681  3.920645  -0.004
N  N92  1  0.42065866  0.81220665  0.78260680  1  -0.700172  0.061413  -0.286159  -0.189847  0.042767  3.5565  0.053
N  N93  1  0.07933987  0.81221232  0.28261177  1  -0.700146  0.061418  -0.286128  -0.189849  0.042769  3.556629  0.053
N  N94  1  0.57933861  0.18779242  0.21739477  1  -0.700149  -0.061419  -0.28617  -0.189724  -0.042771  3.55638  -0.053
N  N95  1  0.92065573  0.18779127  0.71738843  1  -0.70021  -0.061421  -0.28608  -0.189753  -0.042771  3.556597  -0.053
N  N96  1  0.52625235  0.84055953  0.82101250  1  -0.847543  0.002559  -0.280512  -0.070899  0.001193  3.708476  0.001
N  N97  1  0.97374534  0.84056459  0.32101530  1  -0.847662  0.002559  -0.28059  -0.070992  0.001193  3.708507  0.001
N  N98  1  0.47374492  0.15943951  0.17899136  1  -0.847525  -0.002559  -0.280437  -0.070915  -0.001193  3.708374  -0.001
N  N99  1  0.02625026  0.15943631  0.67898466  1  -0.847649  -0.002559  -0.280481  -0.070809  -0.001192  3.708412  -0.001
N  N100  1  0.17121670  0.01812270  0.91775864  1  -0.710036  0.068438  -0.289874  -0.198614  0.047585  3.595354  0.059
N  N101  1  0.32878086  0.01812528  0.41776219  1  -0.709926  0.068449  -0.2898  -0.19858  0.047591  3.595453  0.059
N  N102  1  0.82878225  0.98187546  0.08224412  1  -0.710066  -0.068447  -0.289916  -0.198673  -0.047591  3.595476  -0.059
N  N103  1  0.67121473  0.98187476  0.58223437  1  -0.709837  -0.068448  -0.289788  -0.198633  -0.04759  3.595316  -0.059
N  N104  1  0.16627447  0.05958659  0.03042704  1  -0.861016  0.005747  -0.281769  -0.086977  0.003351  3.702327  0.004
N  N105  1  0.33371932  0.05958367  0.53042857  1  -0.860608  0.005747  -0.281757  -0.086967  0.003351  3.702457  0.004
N  N106  1  0.83372448  0.94041515  0.96957706  1  -0.86092  -0.005746  -0.281724  -0.086951  -0.00335  3.702218  -0.004
N  N107  1  0.66627963  0.94041369  0.46956699  1  -0.861116  -0.005747  -0.281801  -0.087073  -0.00335  3.702471  -0.004
Cl  Cl108  1  0.28822289  0.64472232  0.45172953  1  -0.20965  0.000703  0.035127  -0.029213  0.000464  1.73369  0.0
Cl  Cl109  1  0.21177563  0.64472230  0.95173074  1  -0.209661  0.000702  0.035126  -0.029226  0.000464  1.733564  0.0
Cl  Cl110  1  0.71177773  0.35528300  0.54827591  1  -0.209642  -0.000703  0.035092  -0.029258  -0.000464  1.733583  0.0
Cl  Cl111  1  0.78822750  0.35527407  0.04827059  1  -0.209713  -0.000703  0.035086  -0.029257  -0.000464  1.733557  0.0
Cl  Cl112  1  0.14403311  0.43324415  0.29049078  1  -0.163922  -0.001941  0.019681  -0.039204  -0.001294  1.774258  -0.001
Cl  Cl113  1  0.35596750  0.43324300  0.79049141  1  -0.163907  -0.00194  0.019681  -0.039202  -0.001294  1.774113  -0.001
Cl  Cl114  1  0.85597086  0.56676299  0.70951305  1  -0.163916  0.001941  0.019652  -0.039224  0.001294  1.774152  0.001
Cl  Cl115  1  0.64403563  0.56675333  0.20951296  1  -0.163883  0.00194  0.019682  -0.039214  0.001294  1.774029  0.001
Cl  Cl116  1  0.88532794  0.43843042  0.31728756  1  -0.150486  0.001357  0.025724  -0.018982  0.000891  1.822313  0.001
Cl  Cl117  1  0.61467437  0.43842874  0.81729054  1  -0.150481  0.001358  0.0257  -0.018996  0.000892  1.822261  0.001
Cl  Cl118  1  0.11467686  0.56157140  0.68271044  1  -0.150372  -0.001357  0.025689  -0.019027  -0.000891  1.822324  -0.001
Cl  Cl119  1  0.38532875  0.56156496  0.18270901  1  -0.151345  -0.001358  0.025754  -0.018945  -0.000892  1.822246  -0.001
Cl  Cl120  1  0.76834321  0.67147259  0.48416461  1  -0.193177  -0.001072  0.021346  -0.034533  -0.00064  1.719648  -0.001
Cl  Cl121  1  0.73165531  0.67147435  0.98416569  1  -0.193188  -0.001072  0.021367  -0.034522  -0.00064  1.719671  -0.001
Cl  Cl122  1  0.23165740  0.32852744  0.51583272  1  -0.193204  0.001071  0.021329  -0.034551  0.00064  1.719663  0.001
Cl  Cl123  1  0.26835117  0.32852203  0.01583564  1  -0.193072  0.001073  0.021415  -0.034462  0.000641  1.719801  0.001
O  O124  1  0.20330853  0.82193074  0.70319262  1  -1.105395  0.08779  -0.318686  -0.528661  0.057763  2.362247  0.079
O  O125  1  0.29669427  0.82192613  0.20319963  1  -1.105409  0.087827  -0.318684  -0.528624  0.057786  2.362072  0.079
O  O126  1  0.79669376  0.17808466  0.29679975  1  -1.10566  -0.087821  -0.318715  -0.528776  -0.057785  2.362032  -0.079
O  O127  1  0.70330384  0.17806757  0.79679992  1  -1.105492  -0.087808  -0.318755  -0.528756  -0.057774  2.362138  -0.079
O  O128  1  0.17273676  0.94899830  0.61589373  1  -1.18298  0.001191  -0.307397  -0.548298  0.000396  2.21178  0.001
O  O129  1  0.32725429  0.94899458  0.11589799  1  -1.183151  0.00119  -0.307407  -0.548242  0.000395  2.211645  0.001
O  O130  1  0.82725298  0.05101886  0.38410159  1  -1.18279  -0.00119  -0.307475  -0.548381  -0.000395  2.211681  -0.001
O  O131  1  0.67274549  0.05100090  0.88410300  1  -1.182804  -0.00119  -0.307429  -0.548315  -0.000395  2.211686  -0.001
O  O132  1  0.88507476  0.89229248  0.71211439  1  -1.155607  -0.001685  -0.305419  -0.529523  -0.000705  2.172444  -0.002
O  O133  1  0.61493220  0.89229189  0.21211237  1  -1.15556  -0.001684  -0.305402  -0.529528  -0.000704  2.172424  -0.002
O  O134  1  0.11492920  0.10770757  0.28788218  1  -1.155628  0.001686  -0.305418  -0.529571  0.000706  2.172557  0.002
O  O135  1  0.38506674  0.10770630  0.78788810  1  -1.155469  0.001684  -0.305449  -0.529599  0.000704  2.172383  0.002
O  O136  1  0.90186770  0.94646284  0.56622392  1  -1.085499  -0.129506  -0.314705  -0.523785  -0.085058  2.301393  -0.117
O  O137  1  0.59812599  0.94646943  0.06622538  1  -1.085579  -0.12951  -0.314729  -0.523794  -0.085063  2.301324  -0.117
O  O138  1  0.09812539  0.05353900  0.43377331  1  -1.085376  0.129501  -0.314676  -0.523736  0.085055  2.301369  0.117
O  O139  1  0.40187212  0.05352788  0.93377323  1  -1.085599  0.129506  -0.314738  -0.523845  0.08506  2.301335  0.117
