# generated using pymatgen
data_Al2H9C24S2Cl(O5F)2
_symmetry_space_group_name_H-M   'P 1'
_cell_length_a   6.65498269
_cell_length_b   12.78799959
_cell_length_c   17.71771836
_cell_angle_alpha   83.77953181
_cell_angle_beta   79.34306586
_cell_angle_gamma   73.80611565
_symmetry_Int_Tables_number   1
_chemical_formula_structural   Al2H9C24S2Cl(O5F)2
_chemical_formula_sum   'Al2 H9 C24 S2 Cl1 O10 F2'
_cell_volume   1420.46786966
_cell_formula_units_Z   1
loop_
 _symmetry_equiv_pos_site_id
 _symmetry_equiv_pos_as_xyz
  1  'x, y, z'
loop_
 _atom_site_type_symbol
 _atom_site_label
 _atom_site_symmetry_multiplicity
 _atom_site_fract_x
 _atom_site_fract_y
 _atom_site_fract_z
 _atom_site_occupancy
 _atom_site_pbe_bader_charge
 _atom_site_pbe_bader_spin_density
 _atom_site_pbe_cm5_charge
 _atom_site_pbe_ddec_charge
 _atom_site_pbe_ddec_spin_density
 _atom_site_pbe_ddec_sum_bond_order
 _atom_site_pbe_magmom
Al  Al0  1  0.50274987  0.49320995  0.50051619  1  2.50449  0  0.396484  1.644993  0  2.57298  0
Al  Al1  1  0.00076839  0.49631055  0.50017253  1  2.507064  0  0.397536  1.648166  0  2.567673  0
H  H2  1  0.26800135  0.39062935  0.57679638  1  0.624472  0  0.356799  0.435536  0  0.844439  0
H  H3  1  0.70889271  0.61619560  0.44221922  1  0.626381  0  0.34064  0.418357  0  0.882618  0
H  H4  1  0.71992285  0.43239214  0.26957291  1  0.092073  0  0.111118  0.119632  0  0.993994  0
H  H5  1  0.78300119  0.44623199  0.12558978  1  0.100505  0  0.10795  0.117468  0  1.001861  0
H  H6  1  0.04618270  0.51453752  0.27048556  1  0.117135  0  0.119938  0.149579  0  0.98508  0
H  H7  1  0.95258214  0.49093775  0.73180422  1  0.1162  0  0.117579  0.14534  0  0.990108  0
H  H8  1  0.28085580  0.56640082  0.73000250  1  0.087185  0  0.109544  0.117689  0  0.998418  0
H  H9  1  0.21227275  0.56458087  0.87370428  1  0.107672  0  0.107491  0.117585  0  1.003598  0
H  H10  1  0.62228557  0.14208549  0.55258799  1  0.140626  0  0.1185  0.141449  0  0.982769  0
C  C11  1  0.86108827  0.29953834  0.50603876  1  1.576687  0  0.262489  0.649484  0  4.140252  0
C  C12  1  0.66315353  0.51731116  0.63727998  1  1.584897  0  0.263124  0.634067  0  4.099488  0
C  C13  1  0.14623056  0.69071499  0.49306358  1  1.575581  0  0.258978  0.661347  0  4.132493  0
C  C14  1  0.34021025  0.47552259  0.36412654  1  1.566649  0  0.265845  0.635433  0  4.097681  0
C  C15  1  0.38035353  0.47341822  0.27862925  1  8e-06  0  -0.011086  -0.016131  0  3.981089  0
C  C16  1  0.58776874  0.45265487  0.23762641  1  -0.014849  0  -0.083124  -0.10537  0  3.985347  0
C  C17  1  0.62277173  0.46007499  0.15777900  1  -0.022731  0  -0.075117  -0.098531  0  3.93993  0
C  C18  1  0.45095904  0.48884441  0.11630896  1  0.188728  0  -0.002597  0.035363  0  4.124422  0
C  C19  1  0.24526390  0.50582245  0.15946756  1  0.43379  0  0.106222  0.246918  0  4.027552  0
C  C20  1  0.20734315  0.49874179  0.23890981  1  0.045701  0  -0.089931  -0.22102  0  3.979595  0
C  C21  1  0.48204693  0.50239951  0.03541194  1  -0.105302  0  -0.034368  -0.074496  0  4.117582  0
C  C22  1  0.50963659  0.51545901  0.96541548  1  -0.206682  0  -0.03567  -0.077078  0  4.116851  0
C  C23  1  0.54292030  0.52535781  0.88441187  1  0.114948  0  -0.002526  0.03751  0  4.123283  0
C  C24  1  0.74953949  0.50719895  0.84194896  1  0.372506  0  0.105894  0.245129  0  4.029241  0
C  C25  1  0.79055939  0.50769283  0.76260991  1  0.037281  0  -0.091566  -0.220977  0  3.981652  0
C  C26  1  0.61998547  0.52724423  0.72219326  1  0.013801  0  -0.01228  -0.017058  0  3.979629  0
C  C27  1  0.41149317  0.55003982  0.76240501  1  -0.013583  0  -0.085373  -0.107706  0  3.989278  0
C  C28  1  0.37329802  0.54945732  0.84212234  1  0.002735  0  -0.075461  -0.098621  0  3.937263  0
C  C29  1  0.22362073  0.87986340  0.46813833  1  0.109161  0  0.008123  0.099997  0  4.087338  0
C  C30  1  0.78884429  0.11197120  0.52845946  1  -0.061548  0  -0.087198  -0.132053  0  3.967653  0
C  C31  1  0.09505203  0.80980599  0.49409738  1  -0.04694  0  -0.026242  -0.19193  0  3.945583  0
C  C32  1  0.91977050  0.18020384  0.50384173  1  -0.105791  0  -0.017731  -0.118858  0  3.970131  0
C  C33  1  0.90096515  0.00208349  0.51699256  1  -0.107213  0  -0.021068  0.004149  0  4.075744  0
C  C34  1  0.11393863  0.98961113  0.48213967  1  -0.166226  0  -0.029848  -0.087727  0  4.091033  0
S  S35  1  0.83925064  0.87868811  0.53382174  1  0.298554  0  0.096271  0.145893  0  2.821063  0
S  S36  1  0.17847982  0.11229329  0.46590911  1  0.286398  0  0.093914  0.143319  0  2.765356  0
Cl  Cl37  1  0.47891017  0.84464968  0.42075241  1  -0.167982  0  0.023664  -0.029809  0  1.58676  0
O  O38  1  0.66416302  0.34743907  0.52246427  1  -1.262719  0  -0.2355  -0.588914  0  2.322517  0
O  O39  1  0.85735286  0.49281526  0.60521199  1  -1.269772  0  -0.241314  -0.60461  0  2.349893  0
O  O40  1  0.98996685  0.64790721  0.50739872  1  -1.249287  0  -0.239679  -0.588406  0  2.313861  0
O  O41  1  0.50070661  0.45651938  0.39812965  1  -1.257891  0  -0.23531  -0.583018  0  2.323634  0
O  O42  1  0.34118280  0.63930633  0.47837422  1  -1.254128  0  -0.235381  -0.594963  0  2.381825  0
O  O43  1  0.14664663  0.50024442  0.39657705  1  -1.266838  0  -0.236801  -0.593964  0  2.354461  0
O  O44  1  0.01213502  0.34566783  0.49161345  1  -1.254872  0  -0.23492  -0.58167  0  2.324855  0
O  O45  1  0.50370129  0.53034734  0.60352810  1  -1.263435  0  -0.238322  -0.590457  0  2.330579  0
O  O46  1  0.25594762  0.45050524  0.53808553  1  -1.429416  0  -0.448546  -0.995262  0  2.208551  0
O  O47  1  0.74467896  0.54118341  0.46308577  1  -1.432689  0  -0.448616  -0.987738  0  2.193328  0
F  F48  1  0.07745193  0.53210079  0.12076138  1  -0.637523  0  -0.09669  -0.144481  0  1.351149  0
F  F49  1  0.91544821  0.48573349  0.88130006  1  -0.633813  0  -0.095838  -0.143556  0  1.355262  0
