# generated using pymatgen
data_Zn4H30C61(N8O)2
_symmetry_space_group_name_H-M   'P 1'
_cell_length_a   19.26028638
_cell_length_b   20.27363760
_cell_length_c   20.23412395
_cell_angle_alpha   107.65565699
_cell_angle_beta   111.11731999
_cell_angle_gamma   108.09779070
_symmetry_Int_Tables_number   1
_chemical_formula_structural   Zn4H30C61(N8O)2
_chemical_formula_sum   'Zn4 H30 C61 N16 O2'
_cell_volume   6190.15414254
_cell_formula_units_Z   1
loop_
 _symmetry_equiv_pos_site_id
 _symmetry_equiv_pos_as_xyz
  1  'x, y, z'
loop_
 _atom_site_type_symbol
 _atom_site_label
 _atom_site_symmetry_multiplicity
 _atom_site_fract_x
 _atom_site_fract_y
 _atom_site_fract_z
 _atom_site_occupancy
 _atom_site_pbe_bader_charge
 _atom_site_pbe_bader_spin_density
 _atom_site_pbe_cm5_charge
 _atom_site_pbe_ddec_charge
 _atom_site_pbe_ddec_spin_density
 _atom_site_pbe_ddec_sum_bond_order
 _atom_site_pbe_magmom
Zn  Zn0  1  0.10685835  0.49232041  0.11099191  1  1.200407  0  0.75746  0.659409  0  2.338837  0
Zn  Zn1  1  0.87325898  0.48357381  0.88496370  1  1.195251  0  0.766944  0.699633  0  2.249242  0
Zn  Zn2  1  0.89086213  0.38524705  0.00083072  1  1.201059  0  0.744864  0.636264  0  2.358668  0
Zn  Zn3  1  0.09425685  0.58920602  0.99403971  1  1.192898  0  0.763854  0.700411  0  2.270561  0
H  H4  1  0.12112810  0.34911413  0.00173568  1  0.109633  0  0.122618  0.1168  0  0.998841  0
H  H5  1  0.12773769  0.67840124  0.52546375  1  0.058586  0  0.105002  0.108377  0  0.989962  0
H  H6  1  0.12601889  0.67792510  0.64714598  1  0.077453  0  0.102302  0.104422  0  0.993247  0
H  H7  1  0.53222912  0.84673432  0.49268997  1  0.055775  0  0.103705  0.106709  0  0.991635  0
H  H8  1  0.65933968  0.96695675  0.61004979  1  0.082026  0  0.10447  0.1081  0  0.990607  0
H  H9  1  0.63472343  0.09445047  0.47430586  1  0.040231  0  0.104984  0.108174  0  0.989512  0
H  H10  1  0.50767195  0.97422044  0.35689817  1  0.081785  0  0.104776  0.108307  0  0.989288  0
H  H11  1  0.14656500  0.09018140  0.95856836  1  0.058354  0  0.106093  0.109422  0  0.988485  0
H  H12  1  0.14158358  0.96428497  0.95142699  1  0.089253  0  0.104376  0.107607  0  0.990607  0
H  H13  1  0.87015211  0.84757943  0.80651493  1  0.059001  0  0.105062  0.10809  0  0.989623  0
H  H14  1  0.87521292  0.97356854  0.81385493  1  0.045045  0  0.105292  0.107963  0  0.98987  0
H  H15  1  0.79957456  0.57518770  0.97199868  1  0.099717  0  0.125338  0.119522  0  0.990254  0
H  H16  1  0.86198980  0.23339638  0.85678428  1  0.108759  0  0.115892  0.105018  0  1.046111  0
H  H17  1  0.19739654  0.53233614  0.92386706  1  0.122463  0  0.124816  0.122407  0  0.989361  0
H  H18  1  0.75733606  0.32728076  0.70380887  1  0.130757  0  0.123027  0.117612  0  0.99432  0
H  H19  1  0.29711675  0.50119963  0.13516943  1  0.088233  0  0.128411  0.119229  0  0.977393  0
H  H20  1  0.88229287  0.20344597  0.97274382  1  0.098127  0  0.127252  0.117732  0  0.974217  0
H  H21  1  0.22011248  0.64818338  0.27591620  1  0.079078  0  0.116257  0.106673  0  1.026747  0
H  H22  1  0.17628867  0.60936434  0.36282099  1  0.076831  0  0.101653  0.141699  0  0.982643  0
H  H23  1  0.12773410  0.51261680  0.34815490  1  0.074021  0  0.106398  0.151581  0  0.967335  0
H  H24  1  0.18713469  0.53355999  0.30053978  1  0.049617  0  0.095868  0.12945  0  0.998165  0
H  H25  1  0.83884818  0.46944852  0.66388717  1  0.621389  0  0.346222  0.381511  0  0.856991  0
H  H26  1  0.87872835  0.50865267  0.13728425  1  0.143888  0  0.118448  0.109389  0  1.02777  0
H  H27  1  0.14701263  0.66957884  0.83663899  1  0.610626  0  0.348977  0.387182  0  0.850391  0
H  H28  1  0.10272097  0.75000497  0.03489924  1  0.119887  0  0.120689  0.111553  0  0.993027  0
H  H29  1  0.84419009  0.62276577  0.83811777  1  0.100567  0  0.123703  0.113751  0  0.984486  0
H  H30  1  0.26785128  0.75846117  0.13311909  1  0.100985  0  0.125128  0.115433  0  0.984839  0
H  H31  1  0.71339567  0.37716225  0.01671894  1  0.108437  0  0.128896  0.120175  0  0.973376  0
H  H32  1  0.85382498  0.56689246  0.51754394  1  0.071121  0  0.102408  0.104071  0  0.994704  0
H  H33  1  0.85561093  0.56661417  0.39556299  1  0.073932  0  0.107629  0.112233  0  0.985448  0
C  C34  1  0.06156367  0.32516918  0.00046683  1  0.425336  0  0.020485  -0.02802  0  3.922928  0
C  C35  1  0.06561305  0.52830811  0.24740077  1  0.444364  0  0.103425  0.22572  0  3.960326  0
C  C36  1  0.24291108  0.72108258  0.15635221  1  0.450453  0  0.019751  -0.043321  0  3.940303  0
C  C37  1  0.93144208  0.50227266  0.76493597  1  1.065127  0  0.18462  0.371684  0  4.134493  0
C  C38  1  0.74334941  0.42100274  0.00194781  1  0.430764  0  0.025099  -0.036204  0  3.942157  0
C  C39  1  0.27920810  0.72949524  0.23454421  1  0.092352  0  -0.029157  0.046275  0  4.199548  0
C  C40  1  0.73081717  0.48601442  0.00145555  1  0.123469  0  -0.027213  0.026108  0  4.209612  0
C  C41  1  0.99835690  0.54347680  0.24651524  1  0.066015  0  -0.029508  -0.023623  0  4.158874  0
C  C42  1  0.97954523  0.71490621  0.92885498  1  0.111664  0  -0.028821  0.045881  0  4.191734  0
C  C43  1  0.35224524  0.52565937  0.02315220  1  -0.086408  0  -0.028294  -0.059269  0  4.086563  0
C  C44  1  0.41821799  0.53014061  0.02506333  1  -0.125726  0  -0.050293  -0.066482  0  4.346928  0
C  C45  1  0.99489987  0.56013634  0.76384556  1  0.200668  0  -0.064116  -0.237014  0  4.278907  0
C  C46  1  0.48834246  0.53087223  0.02604848  1  0.000842  0  -0.030028  -0.018746  0  4.262905  0
C  C47  1  0.55132921  0.52765534  0.02578855  1  -0.038246  0  -0.03231  -0.024545  0  4.26264  0
C  C48  1  0.61591931  0.51845448  0.02195549  1  -0.175413  0  -0.049473  -0.061751  0  4.347381  0
C  C49  1  0.84133532  0.26853540  0.83172523  1  0.441184  0  0.01635  -0.03286  0  3.925348  0
C  C50  1  0.67189454  0.50578301  0.01461228  1  -0.063717  0  -0.030404  -0.064622  0  4.087034  0
C  C51  1  0.91472822  0.59102942  0.45079306  1  -0.03705  0  -0.084472  -0.124681  0  3.96833  0
C  C52  1  0.99160109  0.61844437  0.45051953  1  0.140253  0  -0.00386  0.138468  0  4.119827  0
C  C53  1  0.06779122  0.65378537  0.52384350  1  -0.042889  0  -0.085836  -0.126163  0  3.974383  0
C  C54  1  0.06685799  0.65357278  0.59194462  1  -0.021059  0  -0.088612  -0.128624  0  3.979484  0
C  C55  1  0.98955849  0.61828496  0.58969379  1  0.076809  0  -0.007911  0.133738  0  4.132135  0
C  C56  1  0.79458657  0.24832060  0.75022875  1  0.089753  0  -0.02723  0.04399  0  4.183262  0
C  C57  1  0.91374508  0.59101288  0.51899757  1  -0.023892  0  -0.088646  -0.128409  0  3.979149  0
C  C58  1  0.99263900  0.60276443  0.37788809  1  -0.300671  0  -0.055541  -0.134654  0  4.13797  0
C  C59  1  0.98851627  0.60442901  0.65374739  1  0.06434  0  -0.056796  -0.129918  0  4.152615  0
C  C60  1  0.99013558  0.58341820  0.70484185  1  -0.518141  0  -0.072193  -0.095864  0  4.285356  0
C  C61  1  0.20921496  0.52331924  0.97625466  1  0.417515  0  0.019628  -0.036491  0  3.930398  0
C  C62  1  0.99258118  0.57772546  0.31470155  1  -0.068405  0  -0.050922  -0.080847  0  4.173849  0
C  C63  1  0.62601764  0.96829132  0.55443880  1  -0.022541  0  -0.086735  -0.128168  0  3.973435  0
C  C64  1  0.65383201  0.04006576  0.55154520  1  0.102586  0  -0.003491  0.139718  0  4.118703  0
C  C65  1  0.61209779  0.03998999  0.47794646  1  0.019132  0  -0.08621  -0.126552  0  3.973538  0
C  C66  1  0.54114964  0.97293893  0.41251132  1  -0.077473  0  -0.086889  -0.127423  0  3.973647  0
C  C67  1  0.27942768  0.51930753  0.02664169  1  0.12782  0  -0.027888  0.02752  0  4.214074  0
C  C68  1  0.50888000  0.90295372  0.41767484  1  0.086381  0  -0.004218  0.139291  0  4.122843  0
C  C69  1  0.55483690  0.90114228  0.48891934  1  -0.045006  0  -0.087722  -0.129641  0  3.97669  0
C  C70  1  0.71499559  0.11211542  0.62157977  1  0.159122  0  -0.055625  -0.129111  0  4.142087  0
C  C71  1  0.43017583  0.83880142  0.35414182  1  -0.042701  0  -0.056603  -0.127077  0  4.151225  0
C  C72  1  0.35912046  0.78798264  0.30000029  1  -0.298525  0  -0.057017  -0.103761  0  4.181877  0
C  C73  1  0.78672258  0.31572383  0.75275587  1  0.423362  0  0.023905  -0.02439  0  3.925904  0
C  C74  1  0.75641608  0.17565078  0.68202343  1  -0.470035  0  -0.052535  -0.09499  0  4.166107  0
C  C75  1  0.08330905  0.96645935  0.92123846  1  -0.083357  0  -0.086806  -0.129218  0  3.972266  0
C  C76  1  0.00511210  0.89813896  0.88268389  1  0.090166  0  -0.003535  0.139383  0  4.121568  0
C  C77  1  0.93056758  0.90090091  0.83978634  1  -0.003276  0  -0.086336  -0.126953  0  3.970457  0
C  C78  1  0.21823215  0.66419609  0.22901597  1  0.429979  0  0.00885  -0.053241  0  3.947523  0
C  C79  1  0.93342646  0.97129583  0.84398481  1  0.020929  0  -0.085461  -0.124303  0  3.972742  0
C  C80  1  0.01089434  0.04170627  0.89102706  1  0.107859  0  -0.003907  0.134981  0  4.120343  0
C  C81  1  0.08615091  0.03687767  0.92526016  1  -0.036757  0  -0.084384  -0.123217  0  3.969793  0
C  C82  1  0.99988618  0.83134654  0.89338823  1  0.017701  0  -0.056055  -0.126769  0  4.144221  0
C  C83  1  0.01159408  0.11529127  0.91136682  1  -0.145766  0  -0.052942  -0.120673  0  4.137372  0
C  C84  1  0.01085253  0.17755852  0.93892314  1  -0.209473  0  -0.055899  -0.103542  0  4.170193  0
C  C85  1  0.26051622  0.50793645  0.08489159  1  0.464757  0  0.025264  -0.037627  0  3.941922  0
C  C86  1  0.99157044  0.77774888  0.91079094  1  -0.387689  0  -0.054965  -0.100179  0  4.176647  0
C  C87  1  0.06612077  0.58952447  0.83914099  1  1.058653  0  0.189033  0.374658  0  4.141255  0
C  C88  1  0.93957588  0.25081148  0.98621691  1  0.418708  0  0.02101  -0.039309  0  3.953364  0
C  C89  1  0.78788385  0.52283152  0.97966619  1  0.44992  0  0.021736  -0.031386  0  3.934531  0
C  C90  1  0.00519242  0.24615447  0.97247307  1  0.124375  0  -0.026594  0.041163  0  4.186555  0
C  C91  1  0.14361430  0.54716285  0.31815794  1  -0.086425  0  -0.227028  -0.42489  0  3.98292  0
C  C92  1  0.93970712  0.51057423  0.16448941  1  0.4492  0  0.019181  -0.021055  0  3.945139  0
C  C93  1  0.03760635  0.70739546  0.98917902  1  0.405637  0  0.011654  -0.045763  0  3.949605  0
C  C94  1  0.90530352  0.64267946  0.88856828  1  0.451723  0  0.019052  -0.041866  0  3.940758  0
N  N95  1  0.03171078  0.37226975  0.02842767  1  -0.804379  0  -0.276558  -0.217685  0  3.564798  0
N  N96  1  0.85855455  0.34132805  0.87888783  1  -0.797506  0  -0.27004  -0.205583  0  3.52986  0
N  N97  1  0.15387106  0.51559293  0.00294415  1  -0.772738  0  -0.269002  -0.219467  0  3.490165  0
N  N98  1  0.82389997  0.36966801  0.82936806  1  -0.806827  0  -0.287556  -0.183457  0  3.651491  0
N  N99  1  0.18618393  0.50612764  0.06973878  1  -0.800674  0  -0.27976  -0.171252  0  3.655073  0
N  N100  1  0.04653034  0.55196099  0.87884810  1  -0.848581  0  -0.306397  -0.291559  0  3.56976  0
N  N101  1  0.95615130  0.32616090  0.01965827  1  -0.807756  0  -0.284485  -0.185921  0  3.567947  0
N  N102  1  0.15189678  0.61982923  0.15358213  1  -0.761318  0  -0.268171  -0.21572  0  3.46027  0
N  N103  1  0.82948335  0.48235911  0.96729742  1  -0.803101  0  -0.271904  -0.218295  0  3.534373  0
N  N104  1  0.96859298  0.47747686  0.11959779  1  -0.796568  0  -0.278116  -0.218288  0  3.558797  0
N  N105  1  0.00163434  0.63602756  0.98413308  1  -0.77444  0  -0.269464  -0.231318  0  3.437955  0
N  N106  1  0.91977735  0.59703463  0.92224054  1  -0.798763  0  -0.285511  -0.181107  0  3.657407  0
N  N107  1  0.04635128  0.48861479  0.17126127  1  -0.809517  0  -0.289165  -0.249181  0  3.551007  0
N  N108  1  0.16784578  0.65583375  0.10960529  1  -0.821097  0  -0.283833  -0.173866  0  3.663466  0
N  N109  1  0.80169416  0.41951387  0.98105042  1  -0.790861  0  -0.279153  -0.175374  0  3.596593  0
N  N110  1  0.96096533  0.49661927  0.83243841  1  -0.790897  0  -0.283116  -0.328104  0  3.33827  0
O  O111  1  0.84808793  0.45755004  0.70862601  1  -1.14486  0  -0.341324  -0.458055  0  2.262212  0
O  O112  1  0.14556284  0.64754231  0.87314525  1  -1.133584  0  -0.343816  -0.457039  0  2.243678  0
