# generated using pymatgen
data_ZnH13C20(N3O2)2
_symmetry_space_group_name_H-M   'P 1'
_cell_length_a   10.25877878
_cell_length_b   9.93803720
_cell_length_c   11.10533108
_cell_angle_alpha   76.87854218
_cell_angle_beta   63.83394014
_cell_angle_gamma   60.30640324
_symmetry_Int_Tables_number   1
_chemical_formula_structural   ZnH13C20(N3O2)2
_chemical_formula_sum   'Zn2 H26 C40 N12 O8'
_cell_volume   882.69121340
_cell_formula_units_Z   2
loop_
 _symmetry_equiv_pos_site_id
 _symmetry_equiv_pos_as_xyz
  1  'x, y, z'
loop_
 _atom_site_type_symbol
 _atom_site_label
 _atom_site_symmetry_multiplicity
 _atom_site_fract_x
 _atom_site_fract_y
 _atom_site_fract_z
 _atom_site_occupancy
 _atom_site_hle17_bader_spin_density
 _atom_site_hle17_ddec_charge
 _atom_site_hle17_ddec_spin_density
 _atom_site_hle17_ddec_sum_bond_order
 _atom_site_hle17_magmom
 _atom_site_hse06_10hf_bader_spin_density
 _atom_site_hse06_10hf_ddec_charge
 _atom_site_hse06_10hf_ddec_spin_density
 _atom_site_hse06_10hf_ddec_sum_bond_order
 _atom_site_hse06_10hf_magmom
 _atom_site_hse06_bader_spin_density
 _atom_site_hse06_ddec_charge
 _atom_site_hse06_ddec_spin_density
 _atom_site_hse06_ddec_sum_bond_order
 _atom_site_hse06_magmom
 _atom_site_pbe_bader_spin_density
 _atom_site_pbe_cm5_charge
 _atom_site_pbe_ddec_charge
 _atom_site_pbe_ddec_spin_density
 _atom_site_pbe_ddec_sum_bond_order
 _atom_site_pbe_magmom
Zn  Zn0  1  0.05853790  0.07603942  0.27614283  1  0  1.00716  0  1.826201  0  0  0.818986  0  2.276258  0  0  0.866305  0  2.22587  0  0  0.695516  0.784675  0  2.311059  0
Zn  Zn1  1  0.94145225  0.92396786  0.72385596  1  0  1.007165  0  1.826146  0  0  0.819001  0  2.276193  0  0  0.86632  0  2.22581  0  0  0.695486  0.784697  0  2.310998  0
H  H2  1  0.74107385  0.16775964  0.56333781  1  0  0.113448  0  0.991747  0  0  0.115797  0  1.063679  0  0  0.119564  0  1.059463  0  0  0.133684  0.11272  0  1.067183  0
H  H3  1  0.25891741  0.83224780  0.43665692  1  0  0.113493  0  0.991817  0  0  0.115838  0  1.063743  0  0  0.1196  0  1.059531  0  0  0.133677  0.112764  0  1.067235  0
H  H4  1  0.94281084  0.45504686  0.29658410  1  0  0.089213  0  0.975748  0  0  0.097972  0  1.040777  0  0  0.100076  0  1.039451  0  0  0.110734  0.096125  0  1.042146  0
H  H5  1  0.05718745  0.54495697  0.70341392  1  0  0.089284  0  0.975623  0  0  0.097989  0  1.040722  0  0  0.100089  0  1.039392  0  0  0.110737  0.096146  0  1.04209  0
H  H6  1  0.68138554  0.63015408  0.51459306  1  0  0.120197  0  0.967475  0  0  0.128515  0  1.030431  0  0  0.130612  0  1.030175  0  0  0.121863  0.126444  0  1.031863  0
H  H7  1  0.31861537  0.36985327  0.48540335  1  0  0.120178  0  0.967438  0  0  0.128562  0  1.030331  0  0  0.130659  0  1.030076  0  0  0.121887  0.126491  0  1.031769  0
H  H8  1  0.11303392  0.76550718  0.13775751  1  0  0.093618  0  0.947762  0  0  0.104888  0  1.008116  0  0  0.107008  0  1.005412  0  0  0.137619  0.103552  0  1.009737  0
H  H9  1  0.88696207  0.23450110  0.86224516  1  0  0.093683  0  0.947713  0  0  0.104945  0  1.00807  0  0  0.107066  0  1.005364  0  0  0.137618  0.103607  0  1.009695  0
H  H10  1  0.43213734  0.94435937  0.07584441  1  0  0.10275  0  0.955404  0  0  0.111965  0  1.016649  0  0  0.114283  0  1.01617  0  0  0.116276  0.110516  0  1.016507  0
H  H11  1  0.56786197  0.05563666  0.92417527  1  0  0.102768  0  0.955276  0  0  0.111985  0  1.016507  0  0  0.114301  0  1.016033  0  0  0.116315  0.110538  0  1.016365  0
H  H12  1  0.57060817  0.74680136  0.86508594  1  0  0.116962  0  1.008004  0  0  0.125613  0  1.069448  0  0  0.128421  0  1.067966  0  0  0.119958  0.12362  0  1.070331  0
H  H13  1  0.42940259  0.25319150  0.13492533  1  0  0.117114  0  1.007871  0  0  0.125732  0  1.06935  0  0  0.128543  0  1.067859  0  0  0.119969  0.123739  0  1.070232  0
H  H14  1  0.18163023  0.33491911  0.14417561  1  0  0.100837  0  0.982476  0  0  0.106733  0  1.050775  0  0  0.11091  0  1.045293  0  0  0.132187  0.103746  0  1.054465  0
H  H15  1  0.81836715  0.66507778  0.85582214  1  0  0.100783  0  0.98251  0  0  0.106712  0  1.050784  0  0  0.110891  0  1.045299  0  0  0.132174  0.103724  0  1.054476  0
H  H16  1  0.06837815  0.09735698  0.96627804  1  0  0.121311  0  0.957141  0  0  0.127221  0  1.022095  0  0  0.130142  0  1.020284  0  0  0.12162  0.125071  0  1.023619  0
H  H17  1  0.93162459  0.90263984  0.03372125  1  0  0.12134  0  0.957238  0  0  0.127246  0  1.022187  0  0  0.130166  0  1.020378  0  0  0.121648  0.125095  0  1.023711  0
H  H18  1  0.22325837  0.25430862  0.76553404  1  0  0.119397  0  0.956525  0  0  0.13115  0  1.013559  0  0  0.133125  0  1.013732  0  0  0.124977  0.12975  0  1.013519  0
H  H19  1  0.77675424  0.74568137  0.23446169  1  0  0.11936  0  0.956626  0  0  0.131153  0  1.013611  0  0  0.133129  0  1.013784  0  0  0.124992  0.129753  0  1.013567  0
H  H20  1  0.58497841  0.62379627  0.73373781  1  0  0.131691  0  0.977005  0  0  0.138355  0  1.04407  0  0  0.142346  0  1.041286  0  0  0.114013  0.135177  0  1.046892  0
H  H21  1  0.41502148  0.37620624  0.26626433  1  0  0.131729  0  0.976972  0  0  0.138388  0  1.044048  0  0  0.142379  0  1.041263  0  0  0.114034  0.135207  0  1.046872  0
H  H22  1  0.17505806  0.56510414  0.04634646  1  0  0.109112  0  0.972677  0  0  0.118248  0  1.038983  0  0  0.120735  0  1.038488  0  0  0.109644  0.116396  0  1.039183  0
H  H23  1  0.82494953  0.43488893  0.95365970  1  0  0.109117  0  0.972592  0  0  0.118269  0  1.038882  0  0  0.120756  0  1.038386  0  0  0.109669  0.116397  0  1.039106  0
H  H24  1  0.46441501  0.28216449  0.69360923  1  0  0.12805  0  0.944383  0  0  0.136162  0  1.011077  0  0  0.139063  0  1.009968  0  0  0.115931  0.133696  0  1.013084  0
H  H25  1  0.53558000  0.71784162  0.30638968  1  0  0.128062  0  0.944388  0  0  0.136171  0  1.011107  0  0  0.139072  0  1.009999  0  0  0.115939  0.133703  0  1.013112  0
H  H26  1  0.57433506  0.09048691  0.26579176  1  0  0.094067  0  0.998093  0  0  0.098693  0  1.072388  0  0  0.102798  0  1.070197  0  0  0.095694  0.095538  0  1.074311  0
H  H27  1  0.42568252  0.90948048  0.73418965  1  0  0.094052  0  0.998165  0  0  0.098635  0  1.072495  0  0  0.10282  0  1.070166  0  0  0.095732  0.09548  0  1.07442  0
C  C28  1  0.75771822  0.27007069  0.51578307  1  0  0.18355  0  3.57382  0  0  0.124238  0  3.83491  0  0  0.138343  0  3.846012  0  0  0.147051  0.115385  0  3.827135  0
C  C29  1  0.24227298  0.72994155  0.48420726  1  0  0.18359  0  3.57412  0  0  0.12428  0  3.835176  0  0  0.138388  0  3.846279  0  0  0.147206  0.11543  0  3.827399  0
C  C30  1  0.86012264  0.42185480  0.38313001  1  0  0.024778  0  3.757036  0  0  -0.011137  0  4.025168  0  0  -0.008708  0  4.04523  0  0  0.001122  -0.012748  0  4.011722  0
C  C31  1  0.13987940  0.57815023  0.61686636  1  0  0.024668  0  3.756996  0  0  -0.011225  0  4.025173  0  0  -0.008786  0  4.045231  0  0  0.001162  -0.012838  0  4.01173  0
C  C32  1  0.73121893  0.51045592  0.48994999  1  0  -0.06696  0  3.661658  0  0  -0.104369  0  3.915177  0  0  -0.103029  0  3.93355  0  0  -0.002792  -0.105068  0  3.903455  0
C  C33  1  0.26877496  0.48955508  0.51004221  1  0  -0.066887  0  3.661899  0  0  -0.10434  0  3.915371  0  0  -0.103003  0  3.933744  0  0  -0.002875  -0.105039  0  3.903651  0
C  C34  1  0.21905574  0.78594968  0.09388509  1  0  0.186025  0  3.618834  0  0  0.126068  0  3.883733  0  0  0.140655  0  3.894492  0  0  0.152295  0.116192  0  3.876451  0
C  C35  1  0.78094080  0.21405736  0.90611938  1  0  0.18593  0  3.618968  0  0  0.12603  0  3.883867  0  0  0.140617  0  3.894623  0  0  0.152358  0.116158  0  3.876593  0
C  C36  1  0.38715992  0.87722553  0.05563054  1  0  0.007624  0  3.750991  0  0  -0.026978  0  4.021631  0  0  -0.025617  0  4.042359  0  0  -0.004058  -0.02766  0  4.007684  0
C  C37  1  0.61284223  0.12276228  0.94439214  1  0  0.007539  0  3.750899  0  0  -0.027026  0  4.021563  0  0  -0.025663  0  4.042281  0  0  -0.004153  -0.027709  0  4.007619  0
C  C38  1  0.45686330  0.77937684  0.95226454  1  0  -0.067697  0  3.659999  0  0  -0.106784  0  3.920612  0  0  -0.105943  0  3.939703  0  0  -0.002199  -0.106828  0  3.90746  0
C  C39  1  0.54313658  0.22062312  0.04774344  1  0  -0.067764  0  3.660217  0  0  -0.106817  0  3.920794  0  0  -0.105973  0  3.93987  0  0  -0.002179  -0.106859  0  3.907642  0
C  C40  1  0.16183583  0.30059393  0.06986114  1  0  0.159962  0  3.622249  0  0  0.100225  0  3.889259  0  0  0.114114  0  3.899409  0  0  0.142171  0.091542  0  3.881661  0
C  C41  1  0.83816632  0.69940649  0.93013507  1  0  0.160142  0  3.622083  0  0  0.100381  0  3.889088  0  0  0.114273  0  3.899234  0  0  0.14222  0.091697  0  3.881494  0
C  C42  1  0.10912301  0.17575682  0.97402728  1  0  0.01459  0  3.730206  0  0  -0.022172  0  4.003737  0  0  -0.019818  0  4.023077  0  0  0.003507  -0.023574  0  3.991175  0
C  C43  1  0.89088128  0.82424101  0.02597575  1  0  0.014551  0  3.730344  0  0  -0.022198  0  4.003876  0  0  -0.019844  0  4.023213  0  0  0.003486  -0.023602  0  3.991318  0
C  C44  1  0.18684004  0.25178303  0.87319509  1  0  -0.070044  0  3.647537  0  0  -0.109173  0  3.907243  0  0  -0.108492  0  3.92632  0  0  -0.000778  -0.109672  0  3.893884  0
C  C45  1  0.81316210  0.74821484  0.12680695  1  0  -0.069922  0  3.647429  0  0  -0.109086  0  3.90711  0  0  -0.108404  0  3.926181  0  0  -0.000769  -0.109584  0  3.893748  0
C  C46  1  0.53264592  0.45422993  0.69948190  1  0  0.232776  0  3.765459  0  0  0.226761  0  4.011005  0  0  0.23504  0  4.032196  0  0  0.110132  0.221409  0  3.997486  0
C  C47  1  0.46734794  0.54577592  0.30052380  1  0  0.232978  0  3.765292  0  0  0.226987  0  4.010855  0  0  0.235265  0  4.032043  0  0  0.110162  0.221632  0  3.997336  0
C  C48  1  0.50428638  0.56921885  0.77346397  1  0  -0.222667  0  3.636273  0  0  -0.25453  0  3.890682  0  0  -0.261379  0  3.908247  0  0  -0.087471  -0.25104  0  3.880453  0
C  C49  1  0.49570637  0.43079190  0.22653502  1  0  -0.222672  0  3.635967  0  0  -0.25459  0  3.890495  0  0  -0.26144  0  3.908059  0  0  -0.087495  -0.251112  0  3.880273  0
C  C50  1  0.37522444  0.60904670  0.89862301  1  0  0.243975  0  3.766855  0  0  0.23636  0  4.015215  0  0  0.245603  0  4.034815  0  0  0.109955  0.229955  0  4.001865  0
C  C51  1  0.62477930  0.39095236  0.10137822  1  0  0.243892  0  3.766887  0  0  0.236302  0  4.015254  0  0  0.245544  0  4.034855  0  0  0.109914  0.229913  0  4.001874  0
C  C52  1  0.27585721  0.53506070  0.94912060  1  0  -0.236568  0  3.708552  0  0  -0.269999  0  3.968727  0  0  -0.277248  0  3.989243  0  0  -0.092897  -0.263691  0  3.954356  0
C  C53  1  0.72414819  0.46493478  0.05088330  1  0  -0.236554  0  3.708465  0  0  -0.270002  0  3.96865  0  0  -0.277253  0  3.989166  0  0  -0.092949  -0.263683  0  3.954287  0
C  C54  1  0.30930948  0.41816568  0.87469415  1  0  0.209799  0  3.818005  0  0  0.20273  0  4.06679  0  0  0.21008  0  4.089195  0  0  0.097871  0.198041  0  4.051923  0
C  C55  1  0.69068444  0.58184042  0.12530518  1  0  0.209758  0  3.817992  0  0  0.202688  0  4.066795  0  0  0.210038  0  4.089199  0  0  0.097848  0.197998  0  4.05192  0
C  C56  1  0.43638170  0.37678415  0.74892040  1  0  -0.225895  0  3.690112  0  0  -0.259941  0  3.952034  0  0  -0.266302  0  3.971537  0  0  -0.087371  -0.258104  0  3.94139  0
C  C57  1  0.56361114  0.62322190  0.25108026  1  0  -0.225946  0  3.690162  0  0  -0.260012  0  3.952119  0  0  -0.266376  0  3.971625  0  0  -0.087371  -0.258169  0  3.941462  0
C  C58  1  0.27595242  0.12497544  0.36128162  1  0  0.679999  0  3.882847  0  0  0.624122  0  4.191436  0  0  0.659043  0  4.180333  0  0  0.210863  0.599951  0  4.198423  0
C  C59  1  0.72404388  0.87502144  0.63871655  1  0  0.680123  0  3.882592  0  0  0.624151  0  4.191352  0  0  0.659068  0  4.180244  0  0  0.210864  0.599983  0  4.19834  0
C  C60  1  0.38445529  0.05741757  0.43994357  1  0  -0.057256  0  3.698569  0  0  -0.044614  0  3.9389  0  0  -0.046546  0  3.955602  0  0  -0.014548  -0.043367  0  3.9281  0
C  C61  1  0.61555154  0.94256667  0.56005177  1  0  -0.057228  0  3.698573  0  0  -0.044547  0  3.938935  0  0  -0.046493  0  3.955669  0  0  -0.014488  -0.043299  0  3.928135  0
C  C62  1  0.34429288  0.00382073  0.57441786  1  0  -0.070597  0  3.718754  0  0  -0.057153  0  3.954989  0  0  -0.061224  0  3.974112  0  0  -0.020935  -0.054998  0  3.942585  0
C  C63  1  0.65570942  0.99617273  0.42557857  1  0  -0.070573  0  3.718629  0  0  -0.057173  0  3.954939  0  0  -0.061235  0  3.974039  0  0  -0.020964  -0.055017  0  3.94253  0
C  C64  1  0.18707322  0.99351507  0.66320234  1  0  0.609731  0  3.95053  0  0  0.565529  0  4.241362  0  0  0.598188  0  4.234957  0  0  0.185554  0.543343  0  4.244895  0
C  C65  1  0.81292731  0.00648656  0.33679248  1  0  0.609769  0  3.9505  0  0  0.565569  0  4.241346  0  0  0.598232  0  4.234933  0  0  0.185566  0.543381  0  4.244872  0
C  C66  1  0.53893271  0.05144520  0.36998004  1  0  -0.118469  0  3.758883  0  0  -0.149752  0  4.013182  0  0  -0.150871  0  4.032176  0  0  -0.096835  -0.148647  0  4.000988  0
C  C67  1  0.46108148  0.94852660  0.63000735  1  0  -0.118468  0  3.759033  0  0  -0.149732  0  4.01332  0  0  -0.150884  0  4.032301  0  0  -0.096973  -0.148631  0  4.001131  0
N  N68  1  0.87571298  0.27306113  0.40013083  1  0  -0.354751  0  3.230628  0  0  -0.279723  0  3.514173  0  0  -0.299328  0  3.529463  0  0  -0.336147  -0.266385  0  3.503167  0
N  N69  1  0.12428041  0.72694874  0.59986086  1  0  -0.354782  0  3.230756  0  0  -0.279706  0  3.514216  0  0  -0.299315  0  3.529509  0  0  -0.336235  -0.266372  0  3.503215  0
N  N70  1  0.66580405  0.41321756  0.57380331  1  0  -0.092788  0  3.573077  0  0  -0.003541  0  3.783219  0  0  -0.018725  0  3.807546  0  0  -0.223664  0.006722  0  3.766067  0
N  N71  1  0.33418650  0.58679556  0.42619433  1  0  -0.092971  0  3.573417  0  0  -0.003742  0  3.783583  0  0  -0.018923  0  3.807907  0  0  -0.223723  0.00652  0  3.766431  0
N  N72  1  0.23928360  0.88060896  0.14272382  1  0  -0.356909  0  3.254766  0  0  -0.287122  0  3.537082  0  0  -0.305076  0  3.552068  0  0  -0.34057  -0.275011  0  3.527125  0
N  N73  1  0.76070979  0.11939081  0.85728941  1  0  -0.356836  0  3.254748  0  0  -0.28716  0  3.537169  0  0  -0.305109  0  3.552142  0  0  -0.34059  -0.275054  0  3.527227  0
N  N74  1  0.34933203  0.72041423  0.97730071  1  0  -0.088306  0  3.5648  0  0  0.000584  0  3.774137  0  0  -0.014788  0  3.798674  0  0  -0.220561  0.0109  0  3.75734  0
N  N75  1  0.65067398  0.27957519  0.02271029  1  0  -0.088296  0  3.565096  0  0  0.000586  0  3.774399  0  0  -0.014777  0  3.79893  0  0  -0.22053  0.010899  0  3.757599  0
N  N76  1  0.09431626  0.20758292  0.09555095  1  0  -0.358532  0  3.265443  0  0  -0.285108  0  3.552592  0  0  -0.303377  0  3.5665  0  0  -0.341879  -0.272492  0  3.543168  0
N  N77  1  0.90568468  0.79241949  0.90445349  1  0  -0.35859  0  3.26546  0  0  -0.285187  0  3.552636  0  0  -0.303453  0  3.566538  0  0  -0.341916  -0.272567  0  3.543198  0
N  N78  1  0.21900666  0.33221429  0.93530847  1  0  -0.093283  0  3.592505  0  0  -0.0029  0  3.802005  0  0  -0.017839  0  3.827465  0  0  -0.225068  0.007494  0  3.783803  0
N  N79  1  0.78100157  0.66777790  0.06469039  1  0  -0.093452  0  3.592401  0  0  -0.00306  0  3.801917  0  0  -0.018  0  3.827375  0  0  -0.225078  0.007335  0  3.783713  0
O  O80  1  0.23476368  0.26495582  0.32574951  1  0  -0.627315  0  1.900629  0  0  -0.579993  0  2.121451  0  0  -0.60317  0  2.112098  0  0  -0.327841  -0.562301  0  2.127743  0
O  O81  1  0.76524945  0.73503789  0.67423998  1  0  -0.627366  0  1.900428  0  0  -0.580032  0  2.121317  0  0  -0.603214  0  2.111973  0  0  -0.3279  -0.56234  0  2.127611  0
O  O82  1  0.24813485  0.02996739  0.32666423  1  0  -0.646459  0  2.086762  0  0  -0.575942  0  2.359811  0  0  -0.604066  0  2.345395  0  0  -0.323171  -0.555322  0  2.369342  0
O  O83  1  0.75185538  0.97003771  0.67333129  1  0  -0.64643  0  2.086605  0  0  -0.575878  0  2.35967  0  0  -0.604036  0  2.345341  0  0  -0.323109  -0.555258  0  2.369209  0
O  O84  1  0.17115064  0.93574403  0.77922900  1  0  -0.620531  0  1.915076  0  0  -0.578007  0  2.146674  0  0  -0.599482  0  2.139663  0  0  -0.333605  -0.562418  0  2.150869  0
O  O85  1  0.82884687  0.06427020  0.22076936  1  0  -0.620571  0  1.91508  0  0  -0.578048  0  2.146699  0  0  -0.599517  0  2.139676  0  0  -0.333631  -0.562458  0  2.150892  0
O  O86  1  0.07997919  0.03907063  0.61264621  1  0  -0.62566  0  2.019661  0  0  -0.557998  0  2.271369  0  0  -0.585469  0  2.260596  0  0  -0.327785  -0.538649  0  2.278312  0
O  O87  1  0.92001583  0.96093304  0.38735580  1  0  -0.625698  0  2.019662  0  0  -0.558018  0  2.271343  0  0  -0.585475  0  2.26055  0  0  -0.327794  -0.538681  0  2.278311  0
