# generated using pymatgen
data_ZnH7C25I2N2ClO6
_symmetry_space_group_name_H-M   'P 1'
_cell_length_a   12.71014726
_cell_length_b   13.90705807
_cell_length_c   28.07517348
_cell_angle_alpha   89.86645150
_cell_angle_beta   92.40399681
_cell_angle_gamma   94.09927195
_symmetry_Int_Tables_number   1
_chemical_formula_structural   ZnH7C25I2N2ClO6
_chemical_formula_sum   'Zn2 H14 C50 I4 N4 Cl2 O12'
_cell_volume   4945.53557886
_cell_formula_units_Z   2
loop_
 _symmetry_equiv_pos_site_id
 _symmetry_equiv_pos_as_xyz
  1  'x, y, z'
loop_
 _atom_site_type_symbol
 _atom_site_label
 _atom_site_symmetry_multiplicity
 _atom_site_fract_x
 _atom_site_fract_y
 _atom_site_fract_z
 _atom_site_occupancy
 _atom_site_pbe_bader_charge
 _atom_site_pbe_bader_spin_density
 _atom_site_pbe_cm5_charge
 _atom_site_pbe_ddec_charge
 _atom_site_pbe_ddec_spin_density
 _atom_site_pbe_ddec_sum_bond_order
 _atom_site_pbe_magmom
Zn  Zn0  1  0.60865662  0.49306832  0.50368195  1  1.318893  0  0.685917  0.890726  0  2.419606  0
Zn  Zn1  1  0.39245282  0.50660288  0.49663188  1  1.310429  0  0.681269  0.881114  0  2.425299  0
H  H2  1  0.65554382  0.58215504  0.25980112  1  0.132571  0  0.108548  0.127308  0  0.988136  0
H  H3  1  0.61349738  0.43100614  0.75006368  1  0.102428  0  0.107426  0.125524  0  0.99118  0
H  H4  1  0.52393237  0.74091330  0.12343353  1  0.115122  0  0.112965  0.129549  0  0.993906  0
H  H5  1  0.40843513  0.26033557  0.87537481  1  0.145314  0  0.113507  0.130956  0  0.990121  0
H  H6  1  0.34087399  0.56125808  0.64169291  1  0.092156  0  0.109233  0.113668  0  0.990017  0
H  H7  1  0.35739070  0.42875859  0.34765708  1  0.067202  0  0.112446  0.11817  0  0.980715  0
H  H8  1  0.32107242  0.56676840  0.72988926  1  0.105442  0  0.112921  0.123302  0  0.977279  0
H  H9  1  0.35254548  0.42257901  0.25859627  1  0.085041  0  0.113308  0.122356  0  0.97627  0
H  H10  1  0.43955129  0.73923039  0.87644589  1  0.111287  0  0.119221  0.126587  0  0.972048  0
H  H11  1  0.50879384  0.26182338  0.12112514  1  0.118282  0  0.119129  0.126713  0  0.971676  0
H  H12  1  0.44130933  0.73976899  0.96416615  1  0.088776  0  0.086656  0.095282  0  1.079741  0
H  H13  1  0.49467491  0.26123441  0.03330762  1  0.093425  0  0.087951  0.097169  0  1.071639  0
H  H14  1  0.62284491  0.02217585  0.50316642  1  0.109033  0  0.121026  0.123024  0  0.956605  0
H  H15  1  0.38120294  0.97718995  0.49556240  1  0.100816  0  0.120635  0.122132  0  0.957611  0
C  C16  1  0.53978145  0.68543419  0.50088877  1  1.6959  0  0.217617  0.668765  0  4.235793  0
C  C17  1  0.46328479  0.31395540  0.49890597  1  1.720355  0  0.217659  0.667704  0  4.238182  0
C  C18  1  0.50619317  0.50254661  0.40757169  1  1.563027  0  0.214532  0.604936  0  4.166815  0
C  C19  1  0.49236925  0.49852019  0.59250417  1  1.56279  0  0.214864  0.605503  0  4.157158  0
C  C20  1  0.50020423  0.59120148  0.17968768  1  1.369285  0  0.243354  0.440207  0  4.095352  0
C  C21  1  0.44609912  0.40910060  0.81910570  1  1.312285  0  0.24315  0.439874  0  4.091643  0
C  C22  1  0.50084852  0.41131112  0.17938905  1  1.367921  0  0.242027  0.436155  0  4.103663  0
C  C23  1  0.45696930  0.58948206  0.81906422  1  1.314513  0  0.243203  0.438441  0  4.101  0
C  C24  1  0.41992676  0.45792525  0.27841512  1  -0.033109  0  -0.082049  -0.150879  0  3.979653  0
C  C25  1  0.38902068  0.53617110  0.71501454  1  -0.02753  0  -0.083668  -0.154235  0  3.983642  0
C  C26  1  0.42306599  0.46089953  0.32792883  1  0.010957  0  -0.075438  -0.069541  0  3.962113  0
C  C27  1  0.40052940  0.53368424  0.66606142  1  0.020405  0  -0.075312  -0.065229  0  3.96564  0
C  C28  1  0.59369844  0.54864026  0.32893717  1  -0.215163  0  -0.03513  0.067733  0  3.862612  0
C  C29  1  0.56582595  0.45986812  0.67692848  1  -0.191132  0  -0.034669  0.072488  0  3.854763  0
C  C30  1  0.59126431  0.54678727  0.27917546  1  0.018228  0  -0.089525  -0.188265  0  3.959757  0
C  C31  1  0.55447317  0.46085331  0.72621101  1  0.022437  0  -0.090514  -0.189668  0  3.958095  0
C  C32  1  0.50456206  0.50115913  0.25429464  1  0.3017  0  0.092165  0.208931  0  4.010542  0
C  C33  1  0.46653573  0.49906643  0.74492185  1  0.290709  0  0.092822  0.21205  0  4.008264  0
C  C34  1  0.48739470  0.50103537  0.10127984  1  0.02154  0  0.00217  0.034753  0  4.012383  0
C  C35  1  0.45428433  0.49965157  0.89729911  1  0.017139  0  0.001795  0.031764  0  4.014042  0
C  C36  1  0.49672446  0.58871076  0.12690400  1  -0.051038  0  -0.009651  -0.056795  0  4.011029  0
C  C37  1  0.44394270  0.41180050  0.87182640  1  0.001433  0  -0.009597  -0.054927  0  4.004889  0
C  C38  1  0.50953816  0.67495664  0.10259177  1  0.099039  0  -0.080082  -0.111919  0  3.981982  0
C  C39  1  0.42472837  0.32619209  0.89614663  1  0.001054  0  -0.079516  -0.112431  0  3.976285  0
C  C40  1  0.49305510  0.41343750  0.12665019  1  -0.142911  0  -0.010248  -0.070657  0  4.007167  0
C  C41  1  0.45409547  0.58729701  0.87167171  1  -0.023072  0  -0.009986  -0.068189  0  4.007465  0
C  C42  1  0.50972828  0.50526959  0.35412855  1  0.091645  0  -0.012222  -0.047703  0  3.917925  0
C  C43  1  0.48841700  0.49625221  0.64594007  1  0.058627  0  -0.014164  -0.05387  0  3.914462  0
C  C44  1  0.46705732  0.58936304  0.97310302  1  -0.032845  0  0.002677  0.046888  0  3.955669  0
C  C45  1  0.46894014  0.41184361  0.02543594  1  0.032669  0  0.001808  0.045999  0  3.957029  0
C  C46  1  0.45144085  0.40853850  0.97363512  1  -0.011408  0  0.001981  0.009093  0  3.933729  0
C  C47  1  0.48265668  0.59289716  0.02501968  1  0.0116  0  0.00264  0.008469  0  3.929948  0
C  C48  1  0.46015044  0.49868161  0.94833049  1  0.009522  0  0.008656  0.013898  0  3.888921  0
C  C49  1  0.47693120  0.50244702  0.05028634  1  0.018177  0  0.008341  0.012135  0  3.883998  0
C  C50  1  0.45118601  0.67238557  0.94609676  1  -0.081197  0  -0.090472  -0.12039  0  3.976886  0
C  C51  1  0.48707173  0.32855736  0.05187441  1  -0.075027  0  -0.089241  -0.121431  0  3.978274  0
C  C52  1  0.44742239  0.67264033  0.89639834  1  0.087082  0  -0.067037  -0.061644  0  3.961624  0
C  C53  1  0.49722335  0.32821314  0.10150749  1  0.050345  0  -0.06749  -0.059892  0  3.960071  0
C  C54  1  0.50869831  0.67703006  0.05262796  1  -0.266072  0  -0.036349  0.021943  0  3.824055  0
C  C55  1  0.42298967  0.32482228  0.94606867  1  -0.231491  0  -0.036303  0.021179  0  3.828813  0
C  C56  1  0.45254464  0.21003962  0.49803257  1  0.19217  0  -0.03942  -0.177241  0  3.938976  0
C  C57  1  0.55079726  0.78934049  0.50085350  1  0.182997  0  -0.038947  -0.17634  0  3.939741  0
C  C58  1  0.45568393  0.02175584  0.49796054  1  0.017431  0  -0.057932  -0.042914  0  4.048297  0
C  C59  1  0.54833069  0.97766595  0.50082075  1  0.186946  0  -0.058169  -0.042689  0  4.04565  0
C  C60  1  0.55134766  0.87712527  0.50075699  1  -0.513701  0  -0.033334  -0.010439  0  4.158641  0
C  C61  1  0.45248200  0.12228112  0.49781190  1  -0.532233  0  -0.033373  -0.010077  0  4.161125  0
C  C62  1  0.96973069  0.47161286  0.51686282  1  0.305198  0  0.051221  0.038352  0  4.108968  0
C  C63  1  0.02998147  0.52456038  0.48554861  1  0.284544  0  0.05043  0.03758  0  4.109833  0
C  C64  1  0.14128983  0.52526255  0.48875089  1  0.870901  0  0.236167  0.282857  0  3.949001  0
C  C65  1  0.85849954  0.47169575  0.51345586  1  0.861817  0  0.235673  0.282543  0  3.948372  0
I  I66  1  0.72251227  0.62961689  0.36269518  1  0.104659  0  0.039324  -0.056185  0  1.408086  0
I  I67  1  0.70003965  0.39452588  0.65406916  1  0.105033  0  0.033313  -0.063701  0  1.363628  0
I  I68  1  0.56871787  0.81441057  0.02833482  1  0.12218  0  0.095479  -0.015566  0  1.374965  0
I  I69  1  0.35621737  0.19049841  0.97104004  1  0.122009  0  0.092195  -0.018809  0  1.368569  0
N  N70  1  0.50167990  0.50119310  0.20291983  1  -1.153056  0  -0.228277  -0.220094  0  3.577683  0
N  N71  1  0.45692945  0.49925898  0.79590604  1  -1.192307  0  -0.228218  -0.221958  0  3.574364  0
N  N72  1  0.76718851  0.47212101  0.51074357  1  -1.033827  0  -0.232751  -0.209246  0  3.045942  0
N  N73  1  0.23276280  0.52621558  0.49109104  1  -1.043461  0  -0.232735  -0.21076  0  3.034888  0
Cl  Cl74  1  0.97591570  0.59097501  0.44109860  1  -0.05312  0  0.098549  0.061884  0  1.522169  0
Cl  Cl75  1  0.02279420  0.40384191  0.56102626  1  -0.055965  0  0.104924  0.068049  0  1.448884  0
O  O76  1  0.62296630  0.64041182  0.49715827  1  -1.138199  0  -0.317553  -0.54659  0  2.258555  0
O  O77  1  0.38084739  0.35903938  0.48978293  1  -1.134835  0  -0.319513  -0.545914  0  2.236416  0
O  O78  1  0.44560805  0.64852609  0.50466477  1  -1.137694  0  -0.316801  -0.549921  0  2.262845  0
O  O79  1  0.55636374  0.35085517  0.50890766  1  -1.145974  0  -0.315151  -0.549164  0  2.27523  0
O  O80  1  0.58997739  0.48302514  0.43078329  1  -1.155783  0  -0.316188  -0.547335  0  2.351413  0
O  O81  1  0.40366535  0.49060838  0.56937617  1  -1.161553  0  -0.319885  -0.553277  0  2.299579  0
O  O82  1  0.41801374  0.51797442  0.42491514  1  -1.154405  0  -0.316948  -0.547204  0  2.293783  0
O  O83  1  0.58258823  0.50965151  0.57465917  1  -1.15441  0  -0.314864  -0.544151  0  2.384924  0
O  O84  1  0.50150921  0.66681261  0.20234236  1  -1.098904  0  -0.274168  -0.424696  0  2.065074  0
O  O85  1  0.43984028  0.33330086  0.79643100  1  -1.092301  0  -0.27518  -0.425357  0  2.061179  0
O  O86  1  0.46101425  0.66505875  0.79623865  1  -1.092592  0  -0.276001  -0.433047  0  2.065372  0
O  O87  1  0.50605484  0.33612115  0.20216060  1  -1.09617  0  -0.276825  -0.433419  0  2.065499  0
