# generated using pymatgen
data_ZnH18C26(N3O4)2
_symmetry_space_group_name_H-M   'P 1'
_cell_length_a   5.63183645
_cell_length_b   13.86121412
_cell_length_c   20.98111555
_cell_angle_alpha   79.33511712
_cell_angle_beta   82.26726599
_cell_angle_gamma   78.25527558
_symmetry_Int_Tables_number   1
_chemical_formula_structural   ZnH18C26(N3O4)2
_chemical_formula_sum   'Zn2 H36 C52 N12 O16'
_cell_volume   1567.87259239
_cell_formula_units_Z   2
loop_
 _symmetry_equiv_pos_site_id
 _symmetry_equiv_pos_as_xyz
  1  'x, y, z'
loop_
 _atom_site_type_symbol
 _atom_site_label
 _atom_site_symmetry_multiplicity
 _atom_site_fract_x
 _atom_site_fract_y
 _atom_site_fract_z
 _atom_site_occupancy
 _atom_site_pbe_bader_charge
 _atom_site_pbe_bader_spin_density
 _atom_site_pbe_cm5_charge
 _atom_site_pbe_ddec_charge
 _atom_site_pbe_ddec_spin_density
 _atom_site_pbe_ddec_sum_bond_order
 _atom_site_pbe_magmom
Zn  Zn0  1  0.41626848  0.75039704  0.25010812  1  1.243109  0  0.696156  0.754242  0  2.336467  0
Zn  Zn1  1  0.58372054  0.24960148  0.74990270  1  1.243234  0  0.696142  0.754159  0  2.336486  0
H  H2  1  0.32667014  0.75130617  0.39411867  1  0.142304  0  0.117346  0.086962  0  1.021884  0
H  H3  1  0.47209632  0.74916131  0.10624452  1  0.163287  0  0.117484  0.08653  0  1.020658  0
H  H4  1  0.67333640  0.24868980  0.60587643  1  0.14234  0  0.117356  0.086952  0  1.021921  0
H  H5  1  0.52793379  0.25081294  0.89378161  1  0.163387  0  0.117438  0.086612  0  1.020625  0
H  H6  1  0.05284934  0.68480017  0.48733350  1  0.104968  0  0.110872  0.120912  0  0.998383  0
H  H7  1  0.22448963  0.81467033  0.01306013  1  0.083006  0  0.110751  0.120327  0  0.999128  0
H  H8  1  0.94718926  0.31518592  0.51266849  1  0.104782  0  0.110852  0.120831  0  0.998411  0
H  H9  1  0.77560665  0.18530578  0.98695242  1  0.083396  0  0.110823  0.120313  0  0.999144  0
H  H10  1  0.74698212  0.55355375  0.35282637  1  0.105258  0  0.113015  0.121509  0  0.998173  0
H  H11  1  0.65331534  0.94742497  0.14724593  1  0.112692  0  0.113437  0.122078  0  0.998242  0
H  H12  1  0.25303428  0.44642012  0.64718704  1  0.104812  0  0.112934  0.121418  0  0.998186  0
H  H13  1  0.34670387  0.05255019  0.85274765  1  0.112955  0  0.113429  0.122022  0  0.998176  0
H  H14  1  0.03790805  0.62507170  0.26434346  1  0.185811  0  0.120857  0.107557  0  1.025631  0
H  H15  1  0.92794974  0.87678900  0.23569338  1  0.173934  0  0.120379  0.106355  0  1.025405  0
H  H16  1  0.96207304  0.37491505  0.73566190  1  0.186026  0  0.12085  0.107583  0  1.025613  0
H  H17  1  0.07200132  0.12318877  0.76431383  1  0.174037  0  0.120308  0.106445  0  1.025105  0
H  H18  1  0.73048122  0.58392782  0.53089198  1  0.107921  0  0.118577  0.087818  0  0.981899  0
H  H19  1  0.84509773  0.91546404  0.96936337  1  0.113276  0  0.118126  0.086647  0  0.982648  0
H  H20  1  0.26955805  0.41607005  0.46911483  1  0.108048  0  0.11846  0.087621  0  0.981953  0
H  H21  1  0.15496459  0.08450870  0.03063674  1  0.112754  0  0.118215  0.086818  0  0.982629  0
H  H22  1  0.79871826  0.87935841  0.37400810  1  0.117559  0  0.10792  0.117583  0  1.010604  0
H  H23  1  0.05042656  0.62098760  0.12598806  1  0.131186  0  0.107753  0.117431  0  1.010181  0
H  H24  1  0.20124331  0.12070147  0.62596496  1  0.117004  0  0.108021  0.117615  0  1.010553  0
H  H25  1  0.94957640  0.37898846  0.87402663  1  0.132204  0  0.10769  0.117259  0  1.010106  0
H  H26  1  0.89498892  0.98544877  0.44827407  1  0.156766  0  0.11181  0.122991  0  1.042965  0
H  H27  1  0.32739896  0.51464397  0.05187648  1  0.147747  0  0.110457  0.12065  0  1.043084  0
H  H28  1  0.10496502  0.01462007  0.55169830  1  0.155804  0  0.111673  0.122705  0  1.043182  0
H  H29  1  0.67264056  0.48532576  0.94815166  1  0.148022  0  0.110347  0.120573  0  1.043002  0
H  H30  1  0.24054697  0.19880875  0.40643988  1  0.128604  0  0.112292  0.120771  0  1.000029  0
H  H31  1  0.84480013  0.30128665  0.09401793  1  0.102174  0  0.112882  0.121379  0  0.998501  0
H  H32  1  0.75937914  0.80124658  0.59353619  1  0.129429  0  0.112299  0.120763  0  1.000172  0
H  H33  1  0.15521387  0.69869112  0.90598894  1  0.102384  0  0.112864  0.121267  0  0.998503  0
H  H34  1  0.14365591  0.09004056  0.33271294  1  0.093306  0  0.109268  0.117785  0  0.994745  0
H  H35  1  0.56533082  0.41021922  0.16772223  1  0.1094  0  0.109822  0.117882  0  0.993925  0
H  H36  1  0.85628775  0.91002306  0.66725951  1  0.093929  0  0.109183  0.117502  0  0.994783  0
H  H37  1  0.43467116  0.58975708  0.83228390  1  0.109554  0  0.109811  0.117836  0  0.993998  0
C  C38  1  0.19638727  0.70691373  0.38698285  1  0.452222  0  0.052399  0.100351  0  3.932302  0
C  C39  1  0.29023779  0.79363921  0.11329742  1  0.42415  0  0.051971  0.100817  0  3.932456  0
C  C40  1  0.80362464  0.29307539  0.61301756  1  0.45214  0  0.052298  0.1002  0  3.932657  0
C  C41  1  0.70978887  0.20634430  0.88671731  1  0.425367  0  0.051923  0.100603  0  3.932433  0
C  C42  1  0.04272327  0.66930363  0.43886755  1  0.000403  0  -0.073623  -0.1532  0  3.915819  0
C  C43  1  0.15057764  0.83072482  0.06143073  1  0.017191  0  -0.073165  -0.151683  0  3.916528  0
C  C44  1  0.95730072  0.33068318  0.56113547  1  0.001251  0  -0.073509  -0.153038  0  3.915963  0
C  C45  1  0.84947865  0.16925515  0.93857691  1  0.01639  0  -0.073207  -0.151804  0  3.91603  0
C  C46  1  0.87862166  0.61189545  0.42769813  1  -0.011462  0  0.012624  0.106563  0  3.996213  0
C  C47  1  0.91791294  0.88830910  0.07251431  1  -0.012742  0  0.012255  0.104688  0  3.999972  0
C  C48  1  0.12140871  0.38808603  0.57230903  1  -0.011816  0  0.012536  0.106625  0  3.996409  0
C  C49  1  0.08214700  0.11166953  0.92748809  1  -0.012371  0  0.012513  0.105072  0  3.999378  0
C  C50  1  0.87437210  0.59643359  0.36359865  1  -0.02127  0  -0.071616  -0.146459  0  3.894744  0
C  C51  1  0.83439389  0.90445233  0.13651661  1  -0.020562  0  -0.072674  -0.147327  0  3.896444  0
C  C52  1  0.12563606  0.40354938  0.63640883  1  -0.021124  0  -0.071623  -0.14644  0  3.894575  0
C  C53  1  0.16563206  0.09552493  0.86348169  1  -0.021822  0  -0.072808  -0.1473  0  3.896371  0
C  C54  1  0.03392893  0.63616378  0.31442024  1  0.45622  0  0.051873  0.108608  0  3.90411  0
C  C55  1  0.98475828  0.86519071  0.18568427  1  0.461809  0  0.053675  0.111967  0  3.903587  0
C  C56  1  0.96606502  0.36382224  0.68558464  1  0.455929  0  0.051919  0.10851  0  3.904254  0
C  C57  1  0.01523132  0.13478930  0.81432244  1  0.462381  0  0.053753  0.111779  0  3.903332  0
C  C58  1  0.71965082  0.56966954  0.48171050  1  0.649523  0  0.080559  0.059863  0  3.919417  0
C  C59  1  0.77072551  0.93012169  0.01846586  1  0.635708  0  0.081113  0.062569  0  3.917117  0
C  C60  1  0.28039029  0.43031262  0.51829898  1  0.649232  0  0.080703  0.060109  0  3.919506  0
C  C61  1  0.22932834  0.06985468  0.98153753  1  0.635353  0  0.080918  0.062372  0  3.917328  0
C  C62  1  0.39464858  0.91438206  0.30728114  1  1.578663  0  0.197284  0.548102  0  4.235701  0
C  C63  1  0.61468485  0.58609481  0.19285499  1  1.557104  0  0.197505  0.5487  0  4.234952  0
C  C64  1  0.60530611  0.08564148  0.69271353  1  1.576332  0  0.197231  0.547892  0  4.236458  0
C  C65  1  0.38528166  0.41387761  0.80715693  1  1.557958  0  0.197408  0.548258  0  4.235116  0
C  C66  1  0.46501234  0.97880885  0.34947575  1  -0.052904  0  -0.002542  -0.003514  0  3.913996  0
C  C67  1  0.79202447  0.52144555  0.15080432  1  0.019244  0  -0.001321  -0.004513  0  3.91383  0
C  C68  1  0.53495568  0.02124879  0.65049776  1  -0.051705  0  -0.002523  -0.003582  0  3.914149  0
C  C69  1  0.20796535  0.47853131  0.84920846  1  0.018927  0  -0.001263  -0.004487  0  3.913833  0
C  C70  1  0.67752245  0.94905603  0.38144311  1  0.005945  0  -0.073043  -0.0622  0  3.916899  0
C  C71  1  0.00664017  0.55118115  0.11871490  1  -0.069029  0  -0.074374  -0.063112  0  3.914924  0
C  C72  1  0.32244403  0.05100907  0.61853010  1  0.005672  0  -0.073073  -0.062323  0  3.91699  0
C  C73  1  0.99336793  0.44879564  0.88130044  1  -0.069365  0  -0.074387  -0.062794  0  3.914892  0
C  C74  1  0.73284464  0.00811579  0.42232430  1  0.022707  0  -0.078864  -0.126526  0  3.958896  0
C  C75  1  0.16193642  0.49204061  0.07785094  1  0.00585  0  -0.076325  -0.12137  0  3.955768  0
C  C76  1  0.26711702  0.99195535  0.57764556  1  0.022802  0  -0.078732  -0.126225  0  3.95928  0
C  C77  1  0.83809080  0.50793457  0.92216853  1  0.004863  0  -0.076184  -0.121382  0  3.955802  0
C  C78  1  0.57238760  0.09722728  0.43025049  1  0.167649  0  0.075377  0.059907  0  3.959758  0
C  C79  1  0.09864602  0.40289755  0.07002064  1  0.151784  0  0.07391  0.055463  0  3.963456  0
C  C80  1  0.42756469  0.90283644  0.56971872  1  0.169367  0  0.07523  0.059714  0  3.960032  0
C  C81  1  0.90137782  0.59707935  0.92999067  1  0.152729  0  0.073945  0.055499  0  3.963746  0
C  C82  1  0.36028141  0.12903478  0.39849031  1  -0.00119  0  -0.080176  -0.121959  0  3.982562  0
C  C83  1  0.88671535  0.37109236  0.10188911  1  -0.029402  0  -0.080724  -0.120107  0  3.981961  0
C  C84  1  0.63967826  0.87103198  0.60147633  1  -0.00043  0  -0.080215  -0.122114  0  3.982905  0
C  C85  1  0.11329893  0.62888158  0.89812152  1  -0.031229  0  -0.080687  -0.119917  0  3.982021  0
C  C86  1  0.30780747  0.06909367  0.35804056  1  -0.02711  0  -0.076126  -0.081541  0  3.954168  0
C  C87  1  0.73387711  0.43110164  0.14235006  1  0.031282  0  -0.076683  -0.08207  0  3.954303  0
C  C88  1  0.69216423  0.93097389  0.64192403  1  -0.028427  0  -0.075963  -0.080895  0  3.954364  0
C  C89  1  0.26613287  0.56887005  0.85766149  1  0.031927  0  -0.076756  -0.082109  0  3.954506  0
N  N90  1  0.19377752  0.69007070  0.32589562  1  -1.247489  0  -0.324388  -0.225676  0  3.558362  0
N  N91  1  0.20990895  0.81105571  0.17428809  1  -1.235642  0  -0.325008  -0.227136  0  3.560101  0
N  N92  1  0.80622080  0.30991689  0.67410603  1  -1.247853  0  -0.324292  -0.225457  0  3.558552  0
N  N93  1  0.79009466  0.18892705  0.82572676  1  -1.236136  0  -0.324976  -0.227065  0  3.560058  0
N  N94  1  0.56819556  0.51656517  0.47159604  1  -0.763554  0  -0.210892  -0.17415  0  3.333135  0
N  N95  1  0.55620283  0.98352513  0.02843235  1  -0.757744  0  -0.210331  -0.174501  0  3.32926  0
N  N96  1  0.43183853  0.48341761  0.52841797  1  -0.784733  0  -0.210974  -0.174447  0  3.333268  0
N  N97  1  0.44383725  0.01644468  0.97156619  1  -0.774036  0  -0.210361  -0.174608  0  3.329255  0
N  N98  1  0.62486542  0.15922663  0.47404972  1  0.352962  0  0.056246  0.510779  0  4.198606  0
N  N99  1  0.25715124  0.34086922  0.02622106  1  0.353747  0  0.055981  0.512731  0  4.200885  0
N  N100  1  0.37507865  0.84082562  0.52593022  1  0.351217  0  0.056137  0.510941  0  4.198261  0
N  N101  1  0.74287788  0.65912275  0.97378401  1  0.354392  0  0.055812  0.512641  0  4.20128  0
O  O102  1  0.55755420  0.83684773  0.29514435  1  -1.173055  0  -0.331551  -0.551014  0  2.309127  0
O  O103  1  0.68836059  0.66340346  0.20514264  1  -1.160208  0  -0.330157  -0.550809  0  2.308124  0
O  O104  1  0.44239901  0.16317021  0.70486438  1  -1.171925  0  -0.331586  -0.550981  0  2.30982  0
O  O105  1  0.31158838  0.33657637  0.79487062  1  -1.160596  0  -0.330067  -0.550537  0  2.308211  0
O  O106  1  0.18764980  0.93647370  0.28777320  1  -1.166648  0  -0.316289  -0.544209  0  2.151857  0
O  O107  1  0.40965095  0.56444204  0.21206271  1  -1.161949  0  -0.317173  -0.543609  0  2.150987  0
O  O108  1  0.81229817  0.06353026  0.71222925  1  -1.166322  0  -0.316206  -0.544001  0  2.151735  0
O  O109  1  0.59031689  0.43552607  0.78794344  1  -1.162547  0  -0.317111  -0.543399  0  2.150731  0
O  O110  1  0.82389848  0.13614885  0.49772751  1  -0.490769  0  -0.12713  -0.338513  0  1.963754  0
O  O111  1  0.45599995  0.36436503  0.00216710  1  -0.485835  0  -0.126059  -0.338269  0  1.963527  0
O  O112  1  0.17605092  0.86389899  0.50225031  1  -0.490833  0  -0.127074  -0.338618  0  1.963218  0
O  O113  1  0.54402061  0.63563877  0.99784080  1  -0.486307  0  -0.126026  -0.338344  0  1.963761  0
O  O114  1  0.46728989  0.23249207  0.48588323  1  -0.484298  0  -0.130441  -0.346543  0  1.983365  0
O  O115  1  0.18567059  0.26716025  0.01478128  1  -0.474281  0  -0.131213  -0.348347  0  1.983437  0
O  O116  1  0.53264808  0.76755173  0.51410604  1  -0.483635  0  -0.130396  -0.346517  0  1.983118  0
O  O117  1  0.81437685  0.73283273  0.98521382  1  -0.474445  0  -0.131112  -0.348284  0  1.983557  0
