# generated using pymatgen
data_CdH34C38(SN4)2
_symmetry_space_group_name_H-M   'P 1'
_cell_length_a   5.67745946
_cell_length_b   8.16623528
_cell_length_c   20.23008803
_cell_angle_alpha   94.54880479
_cell_angle_beta   97.41644386
_cell_angle_gamma   102.44085211
_symmetry_Int_Tables_number   1
_chemical_formula_structural   CdH34C38(SN4)2
_chemical_formula_sum   'Cd1 H34 C38 S2 N8'
_cell_volume   902.67704702
_cell_formula_units_Z   1
loop_
 _symmetry_equiv_pos_site_id
 _symmetry_equiv_pos_as_xyz
  1  'x, y, z'
loop_
 _atom_site_type_symbol
 _atom_site_label
 _atom_site_symmetry_multiplicity
 _atom_site_fract_x
 _atom_site_fract_y
 _atom_site_fract_z
 _atom_site_occupancy
 _atom_site_hle17_bader_spin_density
 _atom_site_hle17_ddec_charge
 _atom_site_hle17_ddec_spin_density
 _atom_site_hle17_ddec_sum_bond_order
 _atom_site_hle17_magmom
 _atom_site_hse06_10hf_bader_spin_density
 _atom_site_hse06_10hf_ddec_charge
 _atom_site_hse06_10hf_ddec_spin_density
 _atom_site_hse06_10hf_ddec_sum_bond_order
 _atom_site_hse06_10hf_magmom
 _atom_site_hse06_bader_spin_density
 _atom_site_hse06_ddec_charge
 _atom_site_hse06_ddec_spin_density
 _atom_site_hse06_ddec_sum_bond_order
 _atom_site_hse06_magmom
 _atom_site_pbe_bader_spin_density
 _atom_site_pbe_cm5_charge
 _atom_site_pbe_ddec_charge
 _atom_site_pbe_ddec_spin_density
 _atom_site_pbe_ddec_sum_bond_order
 _atom_site_pbe_magmom
Cd  Cd0  1  0.50000948  0.50000007  0.50000242  1  0  0.943522  0  2.007762  0  0  0.764359  0  2.470036  0  0  0.808754  0  2.43446  0  0  0.723233  0.733584  0  2.493816  0
H  H1  1  0.99710995  0.78902709  0.48045764  1  0  0.070075  0  0.981601  0  0  0.076872  0  1.051032  0  0  0.078257  0  1.05074  0  0  0.107448  0.075835  0  1.051258  0
H  H2  1  0.00289046  0.21097090  0.51954495  1  0  0.070093  0  0.981587  0  0  0.076884  0  1.051014  0  0  0.07827  0  1.050721  0  0  0.107484  0.075848  0  1.051241  0
H  H3  1  0.30272607  0.63808064  0.37022372  1  0  0.08957  0  0.983147  0  0  0.091025  0  1.059113  0  0  0.094124  0  1.055662  0  0  0.109995  0.088784  0  1.061531  0
H  H4  1  0.69727396  0.36192121  0.62978095  1  0  0.089505  0  0.983189  0  0  0.091014  0  1.059118  0  0  0.09413  0  1.05568  0  0  0.11003  0.088772  0  1.061531  0
H  H5  1  0.41642846  0.82584588  0.28356340  1  0  0.103607  0  0.947767  0  0  0.113356  0  1.009626  0  0  0.116305  0  1.009385  0  0  0.104314  0.111258  0  1.00996  0
H  H6  1  0.58356419  0.17415996  0.71644110  1  0  0.103567  0  0.947809  0  0  0.113311  0  1.00965  0  0  0.116257  0  1.009412  0  0  0.10429  0.1112  0  1.009995  0
H  H7  1  0.14342762  0.97960563  0.39810183  1  0  0.108289  0  0.944271  0  0  0.121539  0  0.999756  0  0  0.124284  0  0.999661  0  0  0.106571  0.119569  0  1.000014  0
H  H8  1  0.85657092  0.02038731  0.60189956  1  0  0.108323  0  0.944177  0  0  0.121578  0  0.999661  0  0  0.124327  0  0.999557  0  0  0.106583  0.119608  0  0.999919  0
H  H9  1  0.70701769  0.01371020  0.23821087  1  0  0.087322  0  0.951717  0  0  0.099637  0  1.012569  0  0  0.102179  0  1.011526  0  0  0.104112  0.097827  0  1.013361  0
H  H10  1  0.29296428  0.98629077  0.76179161  1  0  0.087354  0  0.951724  0  0  0.09968  0  1.012565  0  0  0.102227  0  1.011512  0  0  0.104146  0.097869  0  1.013356  0
H  H11  1  0.22812909  0.13927604  0.31670428  1  0  0.098816  0  0.969171  0  0  0.110471  0  1.0322  0  0  0.113802  0  1.030803  0  0  0.097873  0.108083  0  1.033315  0
H  H12  1  0.77185949  0.86072348  0.68329642  1  0  0.098844  0  0.96913  0  0  0.110517  0  1.032133  0  0  0.113839  0  1.030748  0  0  0.097873  0.108126  0  1.033251  0
H  H13  1  0.79765279  0.27540423  0.17328728  1  0  0.086101  0  0.953742  0  0  0.101522  0  1.020638  0  0  0.102032  0  1.022475  0  0  0.095587  0.101157  0  1.019402  0
H  H14  1  0.20234722  0.72459245  0.82671130  1  0  0.086126  0  0.953697  0  0  0.101533  0  1.02058  0  0  0.102054  0  1.022422  0  0  0.095604  0.101169  0  1.019343  0
H  H15  1  0.83193919  0.07115870  0.14857713  1  0  0.09595  0  0.965628  0  0  0.110944  0  1.028311  0  0  0.112568  0  1.027984  0  0  0.096952  0.109806  0  1.02856  0
H  H16  1  0.16805868  0.92884186  0.85142296  1  0  0.095941  0  0.965668  0  0  0.110909  0  1.028361  0  0  0.112543  0  1.02804  0  0  0.096944  0.109769  0  1.028609  0
H  H17  1  0.48081271  0.34825092  0.26981721  1  0  0.109229  0  0.96517  0  0  0.115156  0  1.036251  0  0  0.118855  0  1.03638  0  0  0.101384  0.112589  0  1.036273  0
H  H18  1  0.51919444  0.65173159  0.73018074  1  0  0.109207  0  0.965109  0  0  0.115154  0  1.03617  0  0  0.118859  0  1.036282  0  0  0.101366  0.112584  0  1.036191  0
H  H19  1  0.28231441  0.48723506  0.07364127  1  0  0.094898  0  0.936045  0  0  0.11324  0  0.991435  0  0  0.114944  0  0.991533  0  0  0.101343  0.112036  0  0.991426  0
H  H20  1  0.71768991  0.51275898  0.92635839  1  0  0.094953  0  0.936034  0  0  0.113255  0  0.991436  0  0  0.11496  0  0.991534  0  0  0.10136  0.112051  0  0.991428  0
H  H21  1  0.08541565  0.53021478  0.13001945  1  0  0.09622  0  0.927309  0  0  0.114283  0  0.985731  0  0  0.116077  0  0.985698  0  0  0.1021  0.113057  0  0.985752  0
H  H22  1  0.91460076  0.46978794  0.86998388  1  0  0.096257  0  0.927363  0  0  0.114303  0  0.985758  0  0  0.116099  0  0.98572  0  0  0.102049  0.113078  0  0.985779  0
H  H23  1  0.34003567  0.13686856  0.10800157  1  0  0.093116  0  0.967155  0  0  0.114165  0  1.029508  0  0  0.115236  0  1.030374  0  0  0.078938  0.113388  0  1.028917  0
H  H24  1  0.65995939  0.86312442  0.89199672  1  0  0.093048  0  0.967157  0  0  0.114111  0  1.029507  0  0  0.115186  0  1.030368  0  0  0.078931  0.113335  0  1.028914  0
H  H25  1  0.24825175  0.17887580  0.02488250  1  0  0.106932  0  0.974356  0  0  0.124006  0  1.044045  0  0  0.125671  0  1.043648  0  0  0.084486  0.12278  0  1.044399  0
H  H26  1  0.75174075  0.82111976  0.97511478  1  0  0.106931  0  0.974342  0  0  0.123995  0  1.044061  0  0  0.125661  0  1.043664  0  0  0.084503  0.122769  0  1.044411  0
H  H27  1  0.06589460  0.01371082  0.06059018  1  0  0.109161  0  0.965929  0  0  0.130583  0  1.027348  0  0  0.131864  0  1.027773  0  0  0.088372  0.12963  0  1.027135  0
H  H28  1  0.93409932  0.98628853  0.93940775  1  0  0.109167  0  0.96589  0  0  0.13061  0  1.027279  0  0  0.131891  0  1.027704  0  0  0.088373  0.129656  0  1.027064  0
H  H29  1  0.70100187  0.14604775  0.02902560  1  0  0.114117  0  0.941439  0  0  0.138477  0  0.996722  0  0  0.139649  0  0.997161  0  0  0.094134  0.1376  0  0.996492  0
H  H30  1  0.29899484  0.85395920  0.97097514  1  0  0.114107  0  0.941467  0  0  0.13847  0  0.996744  0  0  0.139643  0  0.997184  0  0  0.094115  0.137591  0  0.996513  0
H  H31  1  0.89571721  0.31175433  0.99720381  1  0  0.101208  0  0.9493  0  0  0.122336  0  1.011458  0  0  0.123694  0  1.01159  0  0  0.086822  0.121315  0  1.011426  0
H  H32  1  0.10428032  0.68825006  0.00279688  1  0  0.101211  0  0.949266  0  0  0.122328  0  1.011443  0  0  0.123686  0  1.011574  0  0  0.086821  0.121308  0  1.011408  0
H  H33  1  0.71726638  0.35907474  0.05927874  1  0  0.08816  0  0.96497  0  0  0.105702  0  1.035936  0  0  0.106628  0  1.036866  0  0  0.079517  0.105022  0  1.035301  0
H  H34  1  0.28273466  0.64092958  0.94072258  1  0  0.088166  0  0.964885  0  0  0.105687  0  1.035879  0  0  0.106616  0  1.036804  0  0  0.079493  0.105008  0  1.035246  0
C  C35  1  0.87366110  0.80156303  0.43620999  1  0  0.134866  0  3.70602  0  0  0.105473  0  3.955168  0  0  0.112474  0  3.974387  0  0  0.045817  0.100981  0  3.942043  0
C  C36  1  0.12633544  0.19843887  0.56379257  1  0  0.134936  0  3.705927  0  0  0.10555  0  3.955062  0  0  0.112551  0  3.974278  0  0  0.045825  0.101055  0  3.941941  0
C  C37  1  0.48601697  0.71785179  0.37506150  1  0  0.127197  0  3.705395  0  0  0.09656  0  3.959141  0  0  0.104218  0  3.976405  0  0  0.041859  0.091724  0  3.947274  0
C  C38  1  0.51398003  0.28215139  0.62494210  1  0  0.127213  0  3.705466  0  0  0.096477  0  3.959274  0  0  0.104102  0  3.976515  0  0  0.041781  0.091642  0  3.9474  0
C  C39  1  0.55198188  0.82264893  0.32658431  1  0  -0.163942  0  3.707174  0  0  -0.185493  0  3.961132  0  0  -0.193632  0  3.98228  0  0  -0.085391  -0.180266  0  3.94685  0
C  C40  1  0.44801816  0.17735292  0.67342036  1  0  -0.163802  0  3.707207  0  0  -0.185307  0  3.961151  0  0  -0.193444  0  3.982305  0  0  -0.085329  -0.180076  0  3.946882  0
C  C41  1  0.79162426  0.92072160  0.33261054  1  0  0.120703  0  3.830832  0  0  0.135038  0  4.064799  0  0  0.1396  0  4.086951  0  0  0.003152  0.132242  0  4.04961  0
C  C42  1  0.20837148  0.07928286  0.66739157  1  0  0.12061  0  3.831042  0  0  0.134977  0  4.064933  0  0  0.13954  0  4.087078  0  0  0.003159  0.13218  0  4.049738  0
C  C43  1  0.95437330  0.90853561  0.38973635  1  0  -0.139302  0  3.665116  0  0  -0.156333  0  3.908007  0  0  -0.164016  0  3.928885  0  0  -0.076094  -0.151463  0  3.89407  0
C  C44  1  0.04562324  0.09146630  0.61026671  1  0  -0.139311  0  3.665193  0  0  -0.156351  0  3.908057  0  0  -0.164033  0  3.92893  0  0  -0.07611  -0.15148  0  3.894119  0
C  C45  1  0.85618857  0.02248043  0.27926288  1  0  -0.064361  0  3.681571  0  0  -0.09042  0  3.937788  0  0  -0.090519  0  3.957203  0  0  -0.068704  -0.090304  0  3.924488  0
C  C46  1  0.14380624  0.97752148  0.72073814  1  0  -0.064415  0  3.681605  0  0  -0.090515  0  3.937839  0  0  -0.090612  0  3.957253  0  0  -0.068784  -0.090396  0  3.924532  0
C  C47  1  0.07698604  0.12417055  0.27569682  1  0  -0.108833  0  3.697848  0  0  -0.12816  0  3.945674  0  0  -0.134292  0  3.966434  0  0  -0.079377  -0.124067  0  3.931496  0
C  C48  1  0.92299998  0.87583155  0.72430288  1  0  -0.108804  0  3.697738  0  0  -0.128141  0  3.945551  0  0  -0.134267  0  3.966315  0  0  -0.079328  -0.124048  0  3.931367  0
C  C49  1  0.12398475  0.22219495  0.22083669  1  0  0.194376  0  3.666489  0  0  0.210406  0  3.900379  0  0  0.221004  0  3.919022  0  0  0.028327  0.203605  0  3.887414  0
C  C50  1  0.87601480  0.77780045  0.77916135  1  0  0.194341  0  3.666564  0  0  0.210378  0  3.900406  0  0  0.22099  0  3.919063  0  0  0.028287  0.203581  0  3.887427  0
C  C51  1  0.93240572  0.20343681  0.16038790  1  0  -0.240835  0  3.657408  0  0  -0.278819  0  3.877166  0  0  -0.28324  0  3.890447  0  0  -0.159031  -0.275698  0  3.867895  0
C  C52  1  0.06759171  0.79656247  0.83961066  1  0  -0.240885  0  3.65743  0  0  -0.278801  0  3.877117  0  0  -0.283277  0  3.890463  0  0  -0.159029  -0.27568  0  3.867843  0
C  C53  1  0.34406455  0.33729882  0.22536143  1  0  -0.206023  0  3.666126  0  0  -0.232419  0  3.92008  0  0  -0.246535  0  3.940523  0  0  -0.091227  -0.223468  0  3.906329  0
C  C54  1  0.65594061  0.66269265  0.77463720  1  0  -0.205942  0  3.666013  0  0  -0.232363  0  3.91993  0  0  -0.246479  0  3.940369  0  0  -0.091178  -0.22341  0  3.906177  0
C  C55  1  0.39126050  0.44939424  0.17590804  1  0  0.184386  0  3.691829  0  0  0.184344  0  3.938966  0  0  0.199257  0  3.954652  0  0  0.036918  0.174978  0  3.927752  0
C  C56  1  0.60875134  0.55060092  0.82409292  1  0  0.184315  0  3.691895  0  0  0.184278  0  3.938964  0  0  0.199192  0  3.954642  0  0  0.036926  0.174907  0  3.927748  0
C  C57  1  0.19857085  0.44160480  0.11681676  1  0  -0.232566  0  3.661687  0  0  -0.272528  0  3.890283  0  0  -0.277474  0  3.902306  0  0  -0.153081  -0.269129  0  3.881812  0
C  C58  1  0.80143488  0.55839304  0.88318406  1  0  -0.232692  0  3.661908  0  0  -0.272586  0  3.890446  0  0  -0.277532  0  3.902465  0  0  -0.15307  -0.269182  0  3.881971  0
C  C59  1  0.03466441  0.26374160  0.09750325  1  0  0.227488  0  3.575631  0  0  0.262542  0  3.802078  0  0  0.263734  0  3.821862  0  0  -0.01559  0.261745  0  3.78849  0
C  C60  1  0.96533123  0.73625774  0.90249673  1  0  0.227498  0  3.57555  0  0  0.262511  0  3.80198  0  0  0.263715  0  3.821769  0  0  -0.015607  0.261712  0  3.788392  0
C  C61  1  0.18177295  0.14167090  0.07136051  1  0  -0.356292  0  3.647017  0  0  -0.435713  0  3.87658  0  0  -0.439474  0  3.887705  0  0  -0.250916  -0.432841  0  3.86877  0
C  C62  1  0.81822272  0.85832842  0.92863798  1  0  -0.356181  0  3.64691  0  0  -0.435625  0  3.876501  0  0  -0.439386  0  3.887616  0  0  -0.250909  -0.432758  0  3.868706  0
C  C63  1  0.82500085  0.27076455  0.04275585  1  0  -0.337021  0  3.654292  0  0  -0.419534  0  3.894876  0  0  -0.422143  0  3.905037  0  0  -0.242228  -0.41742  0  3.887681  0
C  C64  1  0.17499668  0.72923983  0.95724435  1  0  -0.336989  0  3.654195  0  0  -0.419482  0  3.894783  0  0  -0.422094  0  3.904942  0  0  -0.242155  -0.41737  0  3.887593  0
C  C65  1  0.61097745  0.56904833  0.18171838  1  0  -0.139651  0  3.91138  0  0  -0.120013  0  4.146356  0  0  -0.131834  0  4.165746  0  0  -0.004528  -0.112551  0  4.133345  0
C  C66  1  0.38903100  0.43095199  0.81828211  1  0  -0.139543  0  3.911713  0  0  -0.119919  0  4.146646  0  0  -0.131729  0  4.166037  0  0  -0.004554  -0.112449  0  4.133629  0
C  C67  1  0.80922599  0.57893960  0.23340079  1  0  0.259729  0  3.81045  0  0  0.242896  0  4.085357  0  0  0.253845  0  4.105705  0  0  0.17888  0.235588  0  4.071688  0
C  C68  1  0.19077435  0.42105326  0.76659819  1  0  0.259711  0  3.810094  0  0  0.242901  0  4.084982  0  0  0.253843  0  4.105337  0  0  0.17893  0.235587  0  4.071313  0
C  C69  1  0.65013117  0.68743082  0.13440163  1  0  0.263711  0  3.822269  0  0  0.247391  0  4.096147  0  0  0.258827  0  4.115926  0  0  0.181343  0.23978  0  4.082875  0
C  C70  1  0.34988068  0.31257824  0.86559380  1  0  0.263646  0  3.822082  0  0  0.247352  0  4.095921  0  0  0.258784  0  4.115712  0  0  0.181314  0.239739  0  4.082647  0
C  C71  1  0.08258261  0.63981082  0.57671919  1  0  0.311475  0  3.999122  0  0  0.290204  0  4.304278  0  0  0.312195  0  4.318029  0  0  0.149406  0.275246  0  4.294579  0
C  C72  1  0.91744022  0.36021324  0.42327661  1  0  0.311396  0  3.999377  0  0  0.290095  0  4.304583  0  0  0.312085  0  4.318336  0  0  0.149416  0.275141  0  4.294883  0
S  S73  1  0.37130698  0.73184368  0.58661696  1  0  -0.34756  0  2.15154  0  0  -0.320006  0  2.477019  0  0  -0.336576  0  2.471068  0  0  -0.149708  -0.308173  0  2.480718  0
S  S74  1  0.62871319  0.26817786  0.41337570  1  0  -0.347471  0  2.151672  0  0  -0.3199  0  2.477155  0  0  -0.336469  0  2.471207  0  0  -0.149664  -0.308063  0  2.480851  0
N  N75  1  0.64392021  0.70702766  0.42928808  1  0  -0.326187  0  3.254819  0  0  -0.247215  0  3.5095  0  0  -0.267477  0  3.530737  0  0  -0.324965  -0.233455  0  3.494665  0
N  N76  1  0.35608031  0.29297544  0.57071565  1  0  -0.326228  0  3.25481  0  0  -0.247244  0  3.509529  0  0  -0.267501  0  3.530771  0  0  -0.324961  -0.233485  0  3.494698  0
N  N77  1  0.87266232  0.57269002  0.56880964  1  0  -0.531194  0  2.874904  0  0  -0.474168  0  3.149587  0  0  -0.494997  0  3.156344  0  0  -0.391197  -0.459916  0  3.144802  0
N  N78  1  0.12735861  0.42731508  0.43119048  1  0  -0.531225  0  2.874996  0  0  -0.474185  0  3.14967  0  0  -0.495014  0  3.156425  0  0  -0.391261  -0.459931  0  3.144882  0
N  N79  1  0.97883677  0.58632483  0.27399788  1  0  -0.365576  0  2.582312  0  0  -0.337505  0  2.806255  0  0  -0.349773  0  2.822522  0  0  -0.282088  -0.329332  0  2.795333  0
N  N80  1  0.02115729  0.41366567  0.72600327  1  0  -0.365519  0  2.582093  0  0  -0.337486  0  2.806074  0  0  -0.349754  0  2.822353  0  0  -0.282103  -0.329311  0  2.795147  0
N  N81  1  0.68127647  0.78633456  0.09566100  1  0  -0.38913  0  2.589411  0  0  -0.362021  0  2.807856  0  0  -0.373717  0  2.820757  0  0  -0.293152  -0.354328  0  2.799261  0
N  N82  1  0.31873808  0.21364395  0.90433613  1  0  -0.389214  0  2.58869  0  0  -0.362133  0  2.80715  0  0  -0.373833  0  2.820053  0  0  -0.293175  -0.354441  0  2.798559  0
