# generated using pymatgen
data_KH6C3NO5
_symmetry_space_group_name_H-M   'P 1'
_cell_length_a   6.83465808
_cell_length_b   7.48071625
_cell_length_c   13.07066358
_cell_angle_alpha   89.99992841
_cell_angle_beta   89.99983586
_cell_angle_gamma   105.18354243
_symmetry_Int_Tables_number   1
_chemical_formula_structural   KH6C3NO5
_chemical_formula_sum   'K4 H24 C12 N4 O20'
_cell_volume   644.95025924
_cell_formula_units_Z   4
loop_
 _symmetry_equiv_pos_site_id
 _symmetry_equiv_pos_as_xyz
  1  'x, y, z'
loop_
 _atom_site_type_symbol
 _atom_site_label
 _atom_site_symmetry_multiplicity
 _atom_site_fract_x
 _atom_site_fract_y
 _atom_site_fract_z
 _atom_site_occupancy
 _atom_site_hle17_bader_spin_density
 _atom_site_hle17_ddec_charge
 _atom_site_hle17_ddec_spin_density
 _atom_site_hle17_ddec_sum_bond_order
 _atom_site_hle17_magmom
 _atom_site_hse06_10hf_bader_spin_density
 _atom_site_hse06_10hf_ddec_charge
 _atom_site_hse06_10hf_ddec_spin_density
 _atom_site_hse06_10hf_ddec_sum_bond_order
 _atom_site_hse06_10hf_magmom
 _atom_site_hse06_bader_spin_density
 _atom_site_hse06_ddec_charge
 _atom_site_hse06_ddec_spin_density
 _atom_site_hse06_ddec_sum_bond_order
 _atom_site_hse06_magmom
 _atom_site_pbe_bader_spin_density
 _atom_site_pbe_cm5_charge
 _atom_site_pbe_ddec_charge
 _atom_site_pbe_ddec_spin_density
 _atom_site_pbe_ddec_sum_bond_order
 _atom_site_pbe_magmom
K  K0  1  0.09986492  0.49864305  0.63802627  1  0  0.924958  0  0.448275  0  0  0.874612  0  0.637309  0  0  0.888802  0  0.614314  0  0  0.759452  0.863926  0  0.653809  0
K  K1  1  0.40013531  0.50135568  0.13802847  1  0  0.924957  0  0.448271  0  0  0.874605  0  0.637314  0  0  0.888796  0  0.614315  0  0  0.759467  0.863928  0  0.653815  0
K  K2  1  0.90013754  0.50135678  0.36197312  1  0  0.924955  0  0.448279  0  0  0.874606  0  0.637316  0  0  0.888798  0  0.614319  0  0  0.759466  0.863927  0  0.653817  0
K  K3  1  0.59986276  0.49864415  0.86197244  1  0  0.924961  0  0.448263  0  0  0.874599  0  0.637318  0  0  0.88879  0  0.61432  0  0  0.759436  0.863902  0  0.653816  0
H  H4  1  0.95545466  0.97438899  0.73492490  1  0  0.14733  0  0.920778  0  0  0.159267  0  0.976959  0  0  0.162754  0  0.975102  0  0  0.119605  0.15675  0  0.97845  0
H  H5  1  0.54454899  0.02561103  0.23492492  1  0  0.147319  0  0.920779  0  0  0.159271  0  0.976968  0  0  0.162756  0  0.975116  0  0  0.119587  0.156754  0  0.978458  0
H  H6  1  0.04454593  0.02560945  0.26507449  1  0  0.14728  0  0.920831  0  0  0.159226  0  0.976997  0  0  0.162713  0  0.975139  0  0  0.119587  0.156711  0  0.978487  0
H  H7  1  0.45545493  0.97438880  0.76507447  1  0  0.147331  0  0.920798  0  0  0.159276  0  0.976976  0  0  0.162762  0  0.975121  0  0  0.119607  0.156761  0  0.978464  0
H  H8  1  0.83540813  0.97986596  0.85448357  1  0  0.143097  0  0.922673  0  0  0.154463  0  0.983941  0  0  0.158861  0  0.980423  0  0  0.120645  0.151323  0  0.986578  0
H  H9  1  0.66459368  0.02013500  0.35448417  1  0  0.143143  0  0.922614  0  0  0.154495  0  0.983915  0  0  0.158904  0  0.980384  0  0  0.120662  0.151352  0  0.986558  0
H  H10  1  0.16458687  0.02012834  0.14551505  1  0  0.143056  0  0.922601  0  0  0.154401  0  0.983913  0  0  0.15879  0  0.980405  0  0  0.120638  0.151263  0  0.986552  0
H  H11  1  0.33540878  0.97986483  0.64551598  1  0  0.143149  0  0.922609  0  0  0.154486  0  0.983919  0  0  0.158884  0  0.9804  0  0  0.120653  0.151344  0  0.986564  0
H  H12  1  0.11871458  0.55666559  0.89240199  1  0  0.353497  0  0.932603  0  0  0.32518  0  1.014357  0  0  0.337383  0  0.99992  0  0  0.306502  0.316585  0  1.024518  0
H  H13  1  0.38128770  0.44333495  0.39240121  1  0  0.353468  0  0.932624  0  0  0.325155  0  1.014373  0  0  0.337359  0  0.999933  0  0  0.306487  0.316556  0  1.024541  0
H  H14  1  0.88128747  0.44333285  0.10759892  1  0  0.353472  0  0.932628  0  0  0.32514  0  1.014405  0  0  0.337343  0  0.999966  0  0  0.306473  0.316544  0  1.024569  0
H  H15  1  0.61871515  0.55666627  0.60759741  1  0  0.353483  0  0.932615  0  0  0.32517  0  1.014367  0  0  0.337371  0  0.999929  0  0  0.306502  0.316577  0  1.024521  0
H  H16  1  0.94974747  0.23101734  0.96070177  1  0  0.281031  0  0.944003  0  0  0.256408  0  1.015716  0  0  0.264304  0  1.010024  0  0  0.317218  0.250767  0  1.019952  0
H  H17  1  0.55025510  0.76898322  0.46070201  1  0  0.280994  0  0.94401  0  0  0.256368  0  1.015729  0  0  0.264265  0  1.010036  0  0  0.317206  0.250724  0  1.019978  0
H  H18  1  0.05025059  0.76898250  0.03930068  1  0  0.281039  0  0.944066  0  0  0.256395  0  1.01579  0  0  0.264295  0  1.010094  0  0  0.317219  0.250755  0  1.020032  0
H  H19  1  0.44974775  0.23101800  0.53929737  1  0  0.280989  0  0.944072  0  0  0.256362  0  1.015784  0  0  0.264263  0  1.010087  0  0  0.317198  0.250717  0  1.020033  0
H  H20  1  0.13842620  0.88414893  0.48351750  1  0  0.415335  0  0.893307  0  0  0.38358  0  0.959692  0  0  0.393753  0  0.944731  0  0  0.283711  0.376393  0  0.97024  0
H  H21  1  0.36157402  0.11585127  0.98351823  1  0  0.415299  0  0.893358  0  0  0.383578  0  0.959706  0  0  0.393737  0  0.944752  0  0  0.283693  0.376403  0  0.97025  0
H  H22  1  0.86157479  0.11585090  0.51648189  1  0  0.415287  0  0.89338  0  0  0.383566  0  0.959728  0  0  0.393722  0  0.944779  0  0  0.283699  0.376393  0  0.970271  0
H  H23  1  0.63842590  0.88414995  0.01648268  1  0  0.415342  0  0.893296  0  0  0.383597  0  0.959666  0  0  0.393766  0  0.944711  0  0  0.283712  0.376406  0  0.970222  0
H  H24  1  0.92285815  0.81830667  0.53563670  1  0  0.410793  0  0.897194  0  0  0.382273  0  0.957732  0  0  0.39289  0  0.941918  0  0  0.285567  0.374776  0  0.968901  0
H  H25  1  0.57714242  0.18169411  0.03563732  1  0  0.41078  0  0.897215  0  0  0.382258  0  0.957758  0  0  0.392871  0  0.94195  0  0  0.285557  0.374762  0  0.968925  0
H  H26  1  0.07714324  0.18169455  0.46436192  1  0  0.410742  0  0.897268  0  0  0.382207  0  0.957831  0  0  0.392826  0  0.942014  0  0  0.285535  0.374711  0  0.968999  0
H  H27  1  0.42285751  0.81830711  0.96436359  1  0  0.410704  0  0.897328  0  0  0.382211  0  0.957806  0  0  0.392826  0  0.941997  0  0  0.285531  0.374717  0  0.968969  0
C  C28  1  0.08269239  0.85766609  0.86125506  1  0  0.739057  0  3.813793  0  0  0.685167  0  4.124209  0  0  0.718428  0  4.116492  0  0  0.226013  0.662649  0  4.128648  0
C  C29  1  0.41730758  0.14233596  0.36125520  1  0  0.739132  0  3.813753  0  0  0.685257  0  4.124157  0  0  0.718518  0  4.116445  0  0  0.226118  0.662751  0  4.128581  0
C  C30  1  0.91730568  0.14233375  0.13874585  1  0  0.739102  0  3.813814  0  0  0.685216  0  4.124218  0  0  0.718464  0  4.116508  0  0  0.226074  0.662707  0  4.12865  0
C  C31  1  0.58269381  0.85766526  0.63874494  1  0  0.739115  0  3.813731  0  0  0.68521  0  4.124179  0  0  0.718463  0  4.116468  0  0  0.226056  0.662699  0  4.128613  0
C  C32  1  0.98393330  0.00143453  0.81672826  1  0  -0.413421  0  3.646586  0  0  -0.451866  0  3.892743  0  0  -0.461853  0  3.894346  0  0  -0.154386  -0.445006  0  3.891655  0
C  C33  1  0.51606876  0.99856657  0.31672916  1  0  -0.413507  0  3.64658  0  0  -0.452007  0  3.892822  0  0  -0.462004  0  3.894409  0  0  -0.154421  -0.445145  0  3.891735  0
C  C34  1  0.01606517  0.99856669  0.18327189  1  0  -0.41334  0  3.646532  0  0  -0.451743  0  3.892613  0  0  -0.461736  0  3.894219  0  0  -0.154393  -0.444885  0  3.891525  0
C  C35  1  0.48393223  0.00143326  0.68327099  1  0  -0.41353  0  3.646636  0  0  -0.451975  0  3.892854  0  0  -0.461965  0  3.894451  0  0  -0.154449  -0.44512  0  3.891768  0
C  C36  1  0.11038466  0.19913398  0.82895317  1  0  0.589668  0  3.85313  0  0  0.542681  0  4.149479  0  0  0.573119  0  4.146493  0  0  0.226909  0.522021  0  4.151118  0
C  C37  1  0.38961551  0.80086819  0.32895441  1  0  0.589696  0  3.853056  0  0  0.542732  0  4.149399  0  0  0.573184  0  4.146388  0  0  0.226925  0.522081  0  4.151033  0
C  C38  1  0.88961154  0.80086447  0.17105004  1  0  0.589568  0  3.853089  0  0  0.542536  0  4.149496  0  0  0.573008  0  4.146455  0  0  0.226894  0.521876  0  4.151145  0
C  C39  1  0.61038694  0.19913164  0.67104497  1  0  0.589692  0  3.853074  0  0  0.542698  0  4.149442  0  0  0.573152  0  4.146427  0  0  0.226942  0.522046  0  4.15107  0
N  N40  1  0.06176532  0.29022088  0.90928421  1  0  -0.242284  0  3.326886  0  0  -0.194186  0  3.591886  0  0  -0.210556  0  3.596595  0  0  -0.33841  -0.18323  0  3.58867  0
N  N41  1  0.43823726  0.70978098  0.40928545  1  0  -0.242272  0  3.326757  0  0  -0.194174  0  3.591742  0  0  -0.210545  0  3.59644  0  0  -0.338394  -0.183221  0  3.588533  0
N  N42  1  0.93823129  0.70977896  0.09071747  1  0  -0.242324  0  3.327024  0  0  -0.19419  0  3.592011  0  0  -0.210567  0  3.5967  0  0  -0.338446  -0.183232  0  3.588798  0
N  N43  1  0.56176520  0.29021885  0.59071394  1  0  -0.24226  0  3.326864  0  0  -0.194153  0  3.591868  0  0  -0.210524  0  3.596564  0  0  -0.338407  -0.183198  0  3.588661  0
O  O44  1  0.02393931  0.69357224  0.82667697  1  0  -0.671451  0  1.953356  0  0  -0.621804  0  2.188225  0  0  -0.646118  0  2.177462  0  0  -0.37392  -0.604721  0  2.19505  0
O  O45  1  0.47606234  0.30642994  0.32667614  1  0  -0.671449  0  1.953315  0  0  -0.621811  0  2.188188  0  0  -0.64612  0  2.177413  0  0  -0.373972  -0.604733  0  2.195015  0
O  O46  1  0.97606354  0.30642898  0.17332318  1  0  -0.671456  0  1.953323  0  0  -0.621814  0  2.188197  0  0  -0.646128  0  2.177441  0  0  -0.373953  -0.604736  0  2.195023  0
O  O47  1  0.52393905  0.69357128  0.67332248  1  0  -0.671447  0  1.953333  0  0  -0.621786  0  2.188207  0  0  -0.646097  0  2.177444  0  0  -0.373937  -0.604704  0  2.195028  0
O  O48  1  0.21016381  0.90544997  0.93431551  1  0  -0.675254  0  2.008363  0  0  -0.599882  0  2.221289  0  0  -0.626237  0  2.21091  0  0  -0.308042  -0.581648  0  2.228117  0
O  O49  1  0.28983527  0.09455042  0.43431511  1  0  -0.675278  0  2.00836  0  0  -0.599872  0  2.221288  0  0  -0.626234  0  2.210919  0  0  -0.308063  -0.581636  0  2.2281  0
O  O50  1  0.78983531  0.09454848  0.06568540  1  0  -0.675255  0  2.008389  0  0  -0.599916  0  2.221363  0  0  -0.626222  0  2.210953  0  0  -0.30805  -0.581667  0  2.228153  0
O  O51  1  0.71016572  0.90544941  0.56568427  1  0  -0.675245  0  2.008288  0  0  -0.599873  0  2.22126  0  0  -0.626207  0  2.210867  0  0  -0.308042  -0.581633  0  2.228074  0
O  O52  1  0.25002701  0.27061200  0.76794389  1  0  -0.652448  0  1.958224  0  0  -0.615719  0  2.202322  0  0  -0.637033  0  2.194487  0  0  -0.418058  -0.600913  0  2.207385  0
O  O53  1  0.24997356  0.72939039  0.26794616  1  0  -0.652419  0  1.95818  0  0  -0.615679  0  2.20224  0  0  -0.636995  0  2.194396  0  0  -0.418043  -0.600877  0  2.207306  0
O  O54  1  0.74996667  0.72938784  0.23205702  1  0  -0.652349  0  1.958183  0  0  -0.615611  0  2.202296  0  0  -0.636934  0  2.194445  0  0  -0.418008  -0.600808  0  2.207368  0
O  O55  1  0.75002783  0.27061082  0.73205322  1  0  -0.652437  0  1.958173  0  0  -0.615689  0  2.202252  0  0  -0.637005  0  2.194407  0  0  -0.418052  -0.600884  0  2.207309  0
O  O56  1  0.17867949  0.46676217  0.93355138  1  0  -0.441985  0  2.068782  0  0  -0.415972  0  2.310024  0  0  -0.42637  0  2.299175  0  0  -0.336162  -0.408327  0  2.317263  0
O  O57  1  0.32132107  0.53323822  0.43355215  1  0  -0.441999  0  2.068697  0  0  -0.415974  0  2.309898  0  0  -0.426382  0  2.299065  0  0  -0.336171  -0.408325  0  2.317153  0
O  O58  1  0.82131671  0.53323628  0.06645029  1  0  -0.441975  0  2.068855  0  0  -0.41591  0  2.310005  0  0  -0.426335  0  2.299207  0  0  -0.33611  -0.408255  0  2.317236  0
O  O59  1  0.67868139  0.46676161  0.56644723  1  0  -0.442004  0  2.06878  0  0  -0.415972  0  2.30997  0  0  -0.426392  0  2.299166  0  0  -0.336159  -0.408325  0  2.317202  0
O  O60  1  0.04355041  0.77665333  0.51632543  1  0  -0.907918  0  1.788997  0  0  -0.86421  0  1.963199  0  0  -0.882141  0  1.932389  0  0  -0.716645  -0.851359  0  1.984708  0
O  O61  1  0.45644955  0.22334725  0.01632622  1  0  -0.907862  0  1.789076  0  0  -0.864185  0  1.963211  0  0  -0.882097  0  1.932451  0  0  -0.716623  -0.851362  0  1.984675  0
O  O62  1  0.95645099  0.22334789  0.48367319  1  0  -0.907819  0  1.789139  0  0  -0.864145  0  1.963299  0  0  -0.882056  0  1.932538  0  0  -0.716616  -0.85132  0  1.984762  0
O  O63  1  0.54355038  0.77665397  0.98367470  1  0  -0.907833  0  1.789122  0  0  -0.864134  0  1.963313  0  0  -0.882069  0  1.932508  0  0  -0.71661  -0.851285  0  1.984823  0
