# generated using pymatgen
data_PrAgH6C14(NO4)2
_symmetry_space_group_name_H-M   'P 1'
_cell_length_a   7.37984233
_cell_length_b   10.25440618
_cell_length_c   11.57420894
_cell_angle_alpha   97.34100900
_cell_angle_beta   101.41944879
_cell_angle_gamma   95.60313640
_symmetry_Int_Tables_number   1
_chemical_formula_structural   PrAgH6C14(NO4)2
_chemical_formula_sum   'Pr2 Ag2 H12 C28 N4 O16'
_cell_volume   844.67667282
_cell_formula_units_Z   2
loop_
 _symmetry_equiv_pos_site_id
 _symmetry_equiv_pos_as_xyz
  1  'x, y, z'
loop_
 _atom_site_type_symbol
 _atom_site_label
 _atom_site_symmetry_multiplicity
 _atom_site_fract_x
 _atom_site_fract_y
 _atom_site_fract_z
 _atom_site_occupancy
 _atom_site_hle17_bader_spin_density
 _atom_site_hle17_ddec_charge
 _atom_site_hle17_ddec_spin_density
 _atom_site_hle17_ddec_sum_bond_order
 _atom_site_hle17_magmom
 _atom_site_hse06_10hf_bader_spin_density
 _atom_site_hse06_10hf_ddec_charge
 _atom_site_hse06_10hf_ddec_spin_density
 _atom_site_hse06_10hf_ddec_sum_bond_order
 _atom_site_hse06_10hf_magmom
 _atom_site_hse06_bader_spin_density
 _atom_site_hse06_ddec_charge
 _atom_site_hse06_ddec_spin_density
 _atom_site_hse06_ddec_sum_bond_order
 _atom_site_hse06_magmom
 _atom_site_pbe_bader_spin_density
 _atom_site_pbe_cm5_charge
 _atom_site_pbe_ddec_charge
 _atom_site_pbe_ddec_spin_density
 _atom_site_pbe_ddec_sum_bond_order
 _atom_site_pbe_magmom
Pr  Pr0  1  0.26003394  0.47096976  0.07242555  1  0  2.304918  0  1.621388  0  0  2.145814  0  2.073026  0  0  2.236383  0  1.939893  0  0  1.500239  2.113074  0  2.108066  0
Pr  Pr1  1  0.73996613  0.52902906  0.92757305  1  0  2.304897  0  1.621506  0  0  2.145826  0  2.073118  0  0  2.23637  0  1.940021  0  0  1.500225  2.113063  0  2.108234  0
Ag  Ag2  1  0.28849362  0.76966131  0.69744424  1  0  0.542761  0  1.319038  0  0  0.385669  0  1.728045  0  0  0.418966  0  1.68475  0  0  0.475268  0.363077  0  1.757277  0
Ag  Ag3  1  0.71150251  0.23033850  0.30255572  1  0  0.54276  0  1.318997  0  0  0.385683  0  1.727991  0  0  0.41898  0  1.6847  0  0  0.475261  0.363074  0  1.757221  0
H  H4  1  0.19589804  0.65448381  0.42956379  1  0  0.093522  0  0.928314  0  0  0.103289  0  0.990296  0  0  0.106455  0  0.986959  0  0  0.123162  0.10103  0  0.992623  0
H  H5  1  0.80410342  0.34551497  0.57043670  1  0  0.093532  0  0.928326  0  0  0.103298  0  0.990305  0  0  0.106464  0  0.986968  0  0  0.123168  0.101039  0  0.992632  0
H  H6  1  0.57933479  0.62653123  0.53051384  1  0  0.110988  0  0.952125  0  0  0.121571  0  1.013815  0  0  0.124839  0  1.012828  0  0  0.109004  0.119104  0  1.014813  0
H  H7  1  0.42066171  0.37347063  0.46948298  1  0  0.110994  0  0.952148  0  0  0.121595  0  1.013816  0  0  0.124858  0  1.012832  0  0  0.10902  0.119127  0  1.014816  0
H  H8  1  0.87131301  0.70388882  0.68321920  1  0  0.088848  0  0.965206  0  0  0.09499  0  1.034835  0  0  0.098449  0  1.030911  0  0  0.121327  0.092307  0  1.038139  0
H  H9  1  0.12868330  0.29611200  0.31678006  1  0  0.088849  0  0.96524  0  0  0.095008  0  1.034842  0  0  0.098461  0  1.030922  0  0  0.121328  0.092324  0  1.038142  0
H  H10  1  0.72605655  0.96810282  0.15925175  1  0  0.090473  0  0.931097  0  0  0.099141  0  0.995822  0  0  0.102666  0  0.991553  0  0  0.122643  0.096513  0  0.998936  0
H  H11  1  0.27394300  0.03189282  0.84075761  1  0  0.090428  0  0.931273  0  0  0.099138  0  0.995927  0  0  0.102661  0  0.99166  0  0  0.122644  0.096514  0  0.999039  0
H  H12  1  0.04986560  0.96724046  0.10801361  1  0  0.122968  0  0.937434  0  0  0.134329  0  0.994941  0  0  0.137766  0  0.993851  0  0  0.117103  0.13175  0  0.995988  0
H  H13  1  0.95013052  0.03275938  0.89198464  1  0  0.122987  0  0.937424  0  0  0.134319  0  0.994972  0  0  0.137755  0  0.993883  0  0  0.117104  0.131742  0  0.996015  0
H  H14  1  0.27469383  0.14994303  0.23395235  1  0  0.07934  0  0.945537  0  0  0.090714  0  1.007855  0  0  0.092659  0  1.005425  0  0  0.122839  0.089044  0  1.010186  0
H  H15  1  0.72530525  0.85005775  0.76604811  1  0  0.079316  0  0.945555  0  0  0.090738  0  1.007823  0  0  0.092682  0  1.005394  0  0  0.122842  0.089058  0  1.010165  0
C  C16  1  0.05758733  0.64782876  0.44990194  1  0  0.114796  0  3.690344  0  0  0.074128  0  3.935316  0  0  0.083122  0  3.953116  0  0  0.05069  0.067884  0  3.92402  0
C  C17  1  0.94241313  0.35217203  0.55009782  1  0  0.114763  0  3.690329  0  0  0.074102  0  3.935301  0  0  0.083096  0  3.9531  0  0  0.050701  0.06786  0  3.924001  0
C  C18  1  0.90294928  0.59984282  0.35848094  1  0  -0.115218  0  3.690919  0  0  -0.09903  0  3.922572  0  0  -0.109389  0  3.942174  0  0  -0.004546  -0.092453  0  3.909073  0
C  C19  1  0.09705156  0.40015995  0.64151912  1  0  -0.115146  0  3.690786  0  0  -0.098999  0  3.922438  0  0  -0.109358  0  3.94204  0  0  -0.004596  -0.092423  0  3.908941  0
C  C20  1  0.72503050  0.59318778  0.38526065  1  0  0.021773  0  3.664228  0  0  0.030853  0  3.896343  0  0  0.034391  0  3.911681  0  0  0.020774  0.028643  0  3.885675  0
C  C21  1  0.27497133  0.40681303  0.61473755  1  0  0.021727  0  3.664185  0  0  0.030783  0  3.89638  0  0  0.034315  0  3.911721  0  0  0.02079  0.028578  0  3.885707  0
C  C22  1  0.71291073  0.63198525  0.50353119  1  0  -0.140766  0  3.699447  0  0  -0.157634  0  3.943658  0  0  -0.165906  0  3.964109  0  0  -0.080018  -0.152297  0  3.929986  0
C  C23  1  0.28708834  0.36801556  0.49646754  1  0  -0.140795  0  3.699507  0  0  -0.157689  0  3.943765  0  0  -0.16595  0  3.964201  0  0  -0.080039  -0.152355  0  3.930093  0
C  C24  1  0.87439187  0.67697671  0.58966655  1  0  0.139353  0  3.685143  0  0  0.102992  0  3.937072  0  0  0.112552  0  3.95349  0  0  0.049585  0.096703  0  3.925901  0
C  C25  1  0.12560563  0.32302312  0.41033186  1  0  0.139335  0  3.685197  0  0  0.102975  0  3.937139  0  0  0.11254  0  3.95355  0  0  0.049611  0.096687  0  3.925959  0
C  C26  1  0.93404302  0.55760720  0.23526485  1  0  0.714962  0  3.878338  0  0  0.668427  0  4.171034  0  0  0.703774  0  4.162925  0  0  0.234675  0.644834  0  4.177219  0
C  C27  1  0.06596315  0.44239453  0.76473574  1  0  0.714845  0  3.878517  0  0  0.668437  0  4.170991  0  0  0.703789  0  4.162869  0  0  0.234697  0.644834  0  4.177187  0
C  C28  1  0.55110706  0.54645200  0.29046727  1  0  0.657844  0  3.934702  0  0  0.609537  0  4.233622  0  0  0.643101  0  4.227639  0  0  0.197603  0.586091  0  4.240067  0
C  C29  1  0.44889202  0.45354882  0.70953146  1  0  0.657974  0  3.934545  0  0  0.60967  0  4.233469  0  0  0.643237  0  4.227479  0  0  0.197656  0.586229  0  4.239907  0
C  C30  1  0.57549134  0.96422421  0.14806590  1  0  0.129475  0  3.671181  0  0  0.087442  0  3.917373  0  0  0.096871  0  3.934126  0  0  0.058238  0.081681  0  3.905459  0
C  C31  1  0.42450424  0.03577253  0.85193879  1  0  0.129508  0  3.671366  0  0  0.087468  0  3.917443  0  0  0.096899  0  3.934191  0  0  0.058252  0.081707  0  3.905542  0
C  C32  1  0.45969704  0.85642741  0.07625016  1  0  -0.112704  0  3.702313  0  0  -0.095552  0  3.9357  0  0  -0.1063  0  3.956019  0  0  -0.000241  -0.088721  0  3.921892  0
C  C33  1  0.54030442  0.14357137  0.92375033  1  0  -0.112854  0  3.702563  0  0  -0.095672  0  3.935839  0  0  -0.10642  0  3.956157  0  0  -0.000286  -0.088836  0  3.922028  0
C  C34  1  0.26553168  0.85548848  0.05949694  1  0  0.019024  0  3.63151  0  0  0.026192  0  3.865451  0  0  0.0296  0  3.88102  0  0  0.031768  0.023586  0  3.855196  0
C  C35  1  0.73446859  0.14451130  0.94050353  1  0  0.019261  0  3.63162  0  0  0.026359  0  3.865567  0  0  0.02977  0  3.881136  0  0  0.03184  0.023754  0  3.855312  0
C  C36  1  0.19885423  0.96163368  0.11943106  1  0  -0.118969  0  3.6674  0  0  -0.139018  0  3.913125  0  0  -0.146497  0  3.931658  0  0  -0.070196  -0.134325  0  3.901056  0
C  C37  1  0.80114447  0.03836510  0.88056995  1  0  -0.119053  0  3.667492  0  0  -0.139092  0  3.913266  0  0  -0.14657  0  3.931799  0  0  -0.070232  -0.134395  0  3.901188  0
C  C38  1  0.32422787  0.06449305  0.19006446  1  0  0.157655  0  3.687488  0  0  0.122126  0  3.937509  0  0  0.132697  0  3.953703  0  0  0.059153  0.114748  0  3.926899  0
C  C39  1  0.67576965  0.93550670  0.80993827  1  0  0.157705  0  3.687433  0  0  0.122146  0  3.937418  0  0  0.132716  0  3.953614  0  0  0.059165  0.114784  0  3.926811  0
C  C40  1  0.54785101  0.74786184  0.01946516  1  0  0.689907  0  3.896305  0  0  0.640087  0  4.191031  0  0  0.674713  0  4.186855  0  0  0.216645  0.616278  0  4.196853  0
C  C41  1  0.45214003  0.25213303  0.98053441  1  0  0.689782  0  3.896717  0  0  0.640012  0  4.191338  0  0  0.674637  0  4.187168  0  0  0.216576  0.616205  0  4.197153  0
C  C42  1  0.12473175  0.75438486  0.97190534  1  0  0.707304  0  3.873102  0  0  0.656312  0  4.17375  0  0  0.690915  0  4.165187  0  0  0.236015  0.632561  0  4.181972  0
C  C43  1  0.87526873  0.24561586  0.02809787  1  0  0.707217  0  3.87312  0  0  0.656251  0  4.173755  0  0  0.69085  0  4.165196  0  0  0.236012  0.632493  0  4.181986  0
N  N44  1  0.04512268  0.68668874  0.56331630  1  0  -0.313502  0  3.385692  0  0  -0.223261  0  3.675203  0  0  -0.243928  0  3.691245  0  0  -0.351517  -0.209233  0  3.663541  0
N  N45  1  0.95487640  0.31331206  0.43668329  1  0  -0.313436  0  3.385702  0  0  -0.223196  0  3.675208  0  0  -0.243862  0  3.691248  0  0  -0.351516  -0.209163  0  3.663533  0
N  N46  1  0.51059841  0.06713746  0.20405333  1  0  -0.316411  0  3.36527  0  0  -0.227886  0  3.654719  0  0  -0.24851  0  3.669478  0  0  -0.350522  -0.213675  0  3.643714  0
N  N47  1  0.48939955  0.93285728  0.79595140  1  0  -0.316391  0  3.365186  0  0  -0.22788  0  3.654631  0  0  -0.248502  0  3.669387  0  0  -0.35051  -0.213683  0  3.643641  0
O  O48  1  0.09090730  0.51874646  0.22993781  1  0  -0.736826  0  2.063443  0  0  -0.688217  0  2.321173  0  0  -0.719333  0  2.30938  0  0  -0.39513  -0.670514  0  2.32765  0
O  O49  1  0.90909254  0.48125831  0.77006152  1  0  -0.736821  0  2.06333  0  0  -0.688262  0  2.321019  0  0  -0.719376  0  2.309219  0  0  -0.395183  -0.670564  0  2.32753  0
O  O50  1  0.80319108  0.56512146  0.14863155  1  0  -0.687829  0  2.065373  0  0  -0.637648  0  2.311789  0  0  -0.667797  0  2.303342  0  0  -0.360873  -0.620411  0  2.316794  0
O  O51  1  0.19680484  0.43487742  0.85136482  1  0  -0.687762  0  2.065553  0  0  -0.637626  0  2.311926  0  0  -0.667778  0  2.303473  0  0  -0.36084  -0.620385  0  2.316926  0
O  O52  1  0.49855349  0.42160833  0.25971057  1  0  -0.709248  0  1.959928  0  0  -0.651715  0  2.221071  0  0  -0.683031  0  2.207894  0  0  -0.362413  -0.632526  0  2.229528  0
O  O53  1  0.50144954  0.57839144  0.74028938  1  0  -0.709307  0  1.959867  0  0  -0.651763  0  2.221004  0  0  -0.683075  0  2.207824  0  0  -0.362441  -0.632567  0  2.229454  0
O  O54  1  0.46238695  0.63443216  0.24706740  1  0  -0.652564  0  1.939666  0  0  -0.608209  0  2.165328  0  0  -0.637064  0  2.157554  0  0  -0.360072  -0.590397  0  2.169578  0
O  O55  1  0.53761569  0.36556567  0.75293052  1  0  -0.6526  0  1.939576  0  0  -0.608248  0  2.165226  0  0  -0.637108  0  2.157463  0  0  -0.360081  -0.590435  0  2.169488  0
O  O56  1  0.70899932  0.77109637  0.99884925  1  0  -0.660869  0  1.9545  0  0  -0.614177  0  2.192697  0  0  -0.643639  0  2.185826  0  0  -0.352835  -0.596626  0  2.196538  0
O  O57  1  0.29101511  0.22890536  0.00114889  1  0  -0.660745  0  1.955137  0  0  -0.614056  0  2.193261  0  0  -0.643513  0  2.18639  0  0  -0.352779  -0.596512  0  2.197098  0
O  O58  1  0.45601348  0.63108566  0.99192263  1  0  -0.794662  0  2.149534  0  0  -0.733812  0  2.408672  0  0  -0.768854  0  2.398738  0  0  -0.427991  -0.715957  0  2.415089  0
O  O59  1  0.54399424  0.36891710  0.00807569  1  0  -0.794716  0  2.149435  0  0  -0.733801  0  2.408369  0  0  -0.768845  0  2.398438  0  0  -0.428004  -0.715947  0  2.414789  0
O  O60  1  0.06472858  0.78464447  0.87166276  1  0  -0.59819  0  1.910976  0  0  -0.550745  0  2.152012  0  0  -0.576884  0  2.142732  0  0  -0.28715  -0.532693  0  2.15913  0
O  O61  1  0.93527106  0.21535935  0.12833469  1  0  -0.598092  0  1.91108  0  0  -0.550685  0  2.152128  0  0  -0.57682  0  2.142846  0  0  -0.287119  -0.532627  0  2.15924  0
O  O62  1  0.06809590  0.64794694  0.01047964  1  0  -0.828128  0  2.13244  0  0  -0.766762  0  2.39274  0  0  -0.802823  0  2.378448  0  0  -0.443229  -0.749118  0  2.40149  0
O  O63  1  0.93190159  0.35205292  0.98951705  1  0  -0.828188  0  2.132461  0  0  -0.766792  0  2.392689  0  0  -0.802868  0  2.378418  0  0  -0.443266  -0.749143  0  2.401432  0
