# generated using pymatgen
data_VZn2P2H8C12N2O9
_symmetry_space_group_name_H-M   'P 1'
_cell_length_a   7.96852871
_cell_length_b   9.09499739
_cell_length_c   11.80144480
_cell_angle_alpha   81.55865552
_cell_angle_beta   71.61432748
_cell_angle_gamma   75.26202879
_symmetry_Int_Tables_number   1
_chemical_formula_structural   VZn2P2H8C12N2O9
_chemical_formula_sum   'V2 Zn4 P4 H16 C24 N4 O18'
_cell_volume   782.86607344
_cell_formula_units_Z   2
loop_
 _symmetry_equiv_pos_site_id
 _symmetry_equiv_pos_as_xyz
  1  'x, y, z'
loop_
 _atom_site_type_symbol
 _atom_site_label
 _atom_site_symmetry_multiplicity
 _atom_site_fract_x
 _atom_site_fract_y
 _atom_site_fract_z
 _atom_site_occupancy
 _atom_site_hle17_ddec_charge
 _atom_site_hle17_ddec_spin_density
 _atom_site_hle17_ddec_sum_bond_order
 _atom_site_hle17_magmom
 _atom_site_hse06_10hf_ddec_charge
 _atom_site_hse06_10hf_ddec_spin_density
 _atom_site_hse06_10hf_ddec_sum_bond_order
 _atom_site_hse06_10hf_magmom
 _atom_site_hse06_ddec_charge
 _atom_site_hse06_ddec_spin_density
 _atom_site_hse06_ddec_sum_bond_order
 _atom_site_hse06_magmom
 _atom_site_pbe_cm5_charge
 _atom_site_pbe_ddec_charge
 _atom_site_pbe_ddec_spin_density
 _atom_site_pbe_ddec_sum_bond_order
 _atom_site_pbe_magmom
V  V0  1  0.77704893  0.63296966  0.15478759  1  1.848554  1.239963  2.479711  1.186  1.850902  1.045952  2.900847  1.005  1.948066  1.085905  2.841816  1.045  1.368736  1.777616  1.014497  2.954455  0.973
V  V1  1  0.22295321  0.36702919  0.84521225  1  1.848655  -1.239975  2.479616  -1.186  1.850971  -1.045942  2.900804  -1.005  1.948166  -1.085901  2.841725  -1.045  1.368757  1.777675  -1.014489  2.95443  -0.973
Zn  Zn2  1  0.06364737  0.88131246  0.17592420  1  1.153377  -0.00038  1.774031  0.001  0.974853  9.2e-05  2.234875  0.001  1.019852  -0.000112  2.17923  0.001  0.730854  0.942935  0.000375  2.273728  0.001
Zn  Zn3  1  0.93635152  0.11868866  0.82407607  1  1.153412  0.00038  1.774018  -0.001  0.974894  -9.2e-05  2.23486  -0.001  1.019891  0.000111  2.179213  -0.001  0.730877  0.942978  -0.000375  2.273727  -0.001
Zn  Zn4  1  0.47835447  0.74668330  0.96689769  1  1.277648  -5.1e-05  1.732469  0.001  1.117853  0.000823  2.203014  0.002  1.162001  0.000363  2.138946  0.001  0.73835  1.08537  0.001381  2.24914  0.002
Zn  Zn5  1  0.52164636  0.25331555  0.03310328  1  1.277684  5e-05  1.732429  -0.001  1.11789  -0.000825  2.202974  -0.002  1.162038  -0.000363  2.138905  -0.001  0.738364  1.085414  -0.001381  2.249099  -0.002
P  P6  1  0.72236176  0.92267148  0.05371555  1  1.730054  0.003102  4.946947  0.003  1.551923  0.003316  5.461162  0.003  1.612186  0.002781  5.409283  0.003  0.370852  1.509421  0.003801  5.49634  0.004
P  P7  1  0.27764038  0.07732737  0.94628344  1  1.730019  -0.003094  4.947012  -0.003  1.551863  -0.003318  5.461319  -0.003  1.612126  -0.002776  5.409443  -0.003  0.370875  1.509381  -0.003801  5.49645  -0.004
P  P8  1  0.21323591  0.53861260  0.07385062  1  1.783038  0.000686  4.925347  0.0  1.607446  0.000761  5.447424  0.0  1.67168  0.000624  5.388576  0.0  0.393225  1.561443  0.000896  5.487691  0.0
P  P9  1  0.78676624  0.46138625  0.92615006  1  1.78299  -0.000685  4.925472  0.0  1.607393  -0.00076  5.447566  0.0  1.671624  -0.000624  5.388722  0.0  0.393217  1.56138  -0.000896  5.487857  0.0
H  H10  1  0.80341114  0.22179796  0.17253408  1  0.093788  -8.7e-05  0.930207  0.0  0.10281  -1.5e-05  0.991176  0.0  0.105049  -5.4e-05  0.988613  0.0  0.123373  0.100793  6.1e-05  0.993674  0.0
H  H11  1  0.19658805  0.77820203  0.82746626  1  0.093767  8.5e-05  0.93023  0.0  0.102788  1.6e-05  0.991202  0.0  0.105028  5.3e-05  0.988638  0.0  0.123363  0.100764  -6.1e-05  0.993704  0.0
H  H12  1  0.54131339  0.36416058  0.32438511  1  0.116132  -0.00036  0.947464  0.0  0.128427  -0.000365  1.002952  0.0  0.131221  -0.000334  1.00258  0.0  0.11338  0.126483  -0.00037  1.003205  0.0
H  H13  1  0.45868346  0.63583826  0.67561501  1  0.116133  0.000359  0.947456  0.0  0.128422  0.000365  1.002944  0.0  0.131219  0.000334  1.002568  0.0  0.113362  0.126461  0.00037  1.003219  0.0
H  H14  1  0.47229024  0.25896888  0.54108218  1  0.110999  0.000774  0.957094  0.0  0.124236  0.000734  1.016459  0.0  0.127995  0.000711  1.013111  0.0  0.108099  0.121581  0.000745  1.018862  0.0
H  H15  1  0.52770692  0.74102882  0.45891885  1  0.111008  -0.000775  0.957037  0.0  0.124246  -0.000734  1.016403  0.0  0.128006  -0.00071  1.013052  0.0  0.108096  0.12159  -0.000745  1.018808  0.0
H  H16  1  0.56106280  0.05220447  0.69454216  1  0.11703  2.9e-05  0.948142  0.0  0.127074  4.7e-05  1.007639  0.0  0.129921  4.5e-05  1.006593  0.0  0.109819  0.12507  4.1e-05  1.008285  0.0
H  H17  1  0.43893609  0.94779666  0.30545811  1  0.117056  -3.1e-05  0.94812  0.0  0.1271  -4.7e-05  1.007617  0.0  0.129945  -4.5e-05  1.006571  0.0  0.109832  0.125096  -4.1e-05  1.00826  0.0
H  H18  1  0.76640870  0.81309435  0.73943397  1  0.120144  -6e-06  0.939589  0.0  0.131825  -9e-06  0.997502  0.0  0.134454  -1.2e-05  0.996426  0.0  0.110464  0.129365  -1.1e-05  0.999116  0.0
H  H19  1  0.23359283  0.18690678  0.26056489  1  0.12012  3e-06  0.939579  0.0  0.131835  1.1e-05  0.997451  0.0  0.134465  1.1e-05  0.996375  0.0  0.110463  0.129374  1.1e-05  0.999069  0.0
H  H20  1  0.03546629  0.59639547  0.66677665  1  0.124536  0.000365  0.960189  0.0  0.133589  0.000374  1.021309  0.0  0.136775  0.000343  1.019018  0.0  0.114942  0.131636  0.000384  1.021864  0.0
H  H21  1  0.96453158  0.40360451  0.33322228  1  0.12455  -0.000364  0.960206  0.0  0.133606  -0.000375  1.02131  0.0  0.136791  -0.000343  1.019023  0.0  0.114947  0.131658  -0.000384  1.021866  0.0
H  H22  1  0.28338750  0.47771165  0.49454959  1  0.10961  0.00027  0.950904  0.0  0.123039  0.000256  1.00507  0.0  0.12603  0.000247  1.004602  0.0  0.11098  0.121045  0.000258  1.005254  0.0
H  H23  1  0.71661169  0.52228833  0.50544990  1  0.109611  -0.00027  0.950903  0.0  0.123041  -0.000256  1.00507  0.0  0.126031  -0.000247  1.004602  0.0  0.110978  0.121043  -0.000258  1.005253  0.0
H  H24  1  0.29945856  0.59388343  0.28535613  1  0.093044  -9.3e-05  0.941853  0.0  0.101877  -7.3e-05  1.004584  0.0  0.104307  -7.6e-05  1.001724  0.0  0.124173  0.099744  -5.8e-05  1.007054  0.0
H  H25  1  0.70054195  0.40611656  0.71464392  1  0.093026  9.3e-05  0.941896  0.0  0.101864  7.3e-05  1.00462  0.0  0.104294  7.6e-05  1.00176  0.0  0.124164  0.09973  5.8e-05  1.007093  0.0
C  C26  1  0.76572702  0.17571428  0.26536117  1  0.182078  4.8e-05  3.640433  0.0  0.148318  0.000105  3.897124  0.0  0.157193  7e-05  3.912764  0.0  0.069306  0.141915  0.000337  3.887066  0.0
C  C27  1  0.23427055  0.82428684  0.73463939  1  0.182035  -4.3e-05  3.640462  0.0  0.148283  -0.000106  3.897148  0.0  0.157158  -6.5e-05  3.91279  0.0  0.069307  0.141889  -0.000337  3.887072  0.0
C  C28  1  0.61926139  0.25602962  0.35218319  1  -0.105706  -0.000448  3.699839  0.0  -0.119425  -0.000299  3.954876  0.0  -0.126458  -0.000308  3.976221  0.0  -0.075332  -0.114881  -0.00025  3.9402  0.0
C  C29  1  0.38073679  0.74396923  0.64781750  1  -0.105681  0.000429  3.699838  0.0  -0.119394  0.000299  3.95487  0.0  -0.126428  0.000307  3.976213  0.0  -0.075318  -0.114834  0.00025  3.940187  0.0
C  C30  1  0.58171631  0.19813802  0.47033257  1  -0.05116  0.000796  3.677945  0.001  -0.077334  0.000704  3.926075  0.001  -0.074573  0.000624  3.943268  0.0  -0.062487  -0.078488  0.000737  3.91369  0.001
C  C31  1  0.41828156  0.80186196  0.52966720  1  -0.051185  -0.000766  3.67792  -0.001  -0.07736  -0.000704  3.926061  -0.001  -0.0746  -0.000622  3.943257  0.0  -0.062479  -0.078513  -0.000737  3.913662  -0.001
C  C32  1  0.69154835  0.05960784  0.50196820  1  0.023422  -8.7e-05  3.799679  0.0  0.038397  -2.1e-05  4.033624  0.0  0.035926  -3e-05  4.05839  0.0  -0.001795  0.040884  -2.3e-05  4.016376  0.0
C  C33  1  0.30845217  0.94039215  0.49803270  1  0.02339  6.3e-05  3.799676  0.0  0.038348  2e-05  4.033643  0.0  0.035877  2.8e-05  4.058409  0.0  -0.001811  0.040837  2.3e-05  4.016389  0.0
C  C34  1  0.83147570  0.98384073  0.40764690  1  0.120766  0.000121  3.781955  0.0  0.115484  7.1e-05  4.016604  0.0  0.119277  8.7e-05  4.039087  0.0  0.114373  0.112622  5e-05  4.001634  0.0
C  C35  1  0.16852157  0.01616154  0.59235359  1  0.120732  -0.000103  3.781927  0.0  0.115454  -6.9e-05  4.016567  0.0  0.119244  -8.5e-05  4.039056  0.0  0.114366  0.112594  -5e-05  4.001597  0.0
C  C36  1  0.66971792  0.99444364  0.62236736  1  -0.087945  0.000112  3.708899  0.0  -0.112363  0.000117  3.968675  0.0  -0.115593  9e-05  3.991947  0.0  -0.082012  -0.110463  0.000161  3.952027  0.0
C  C37  1  0.33028098  0.00555748  0.37763376  1  -0.087899  -8.8e-05  3.708856  0.0  -0.112316  -0.00012  3.968643  0.0  -0.115546  -8.7e-05  3.991916  0.0  -0.081979  -0.110417  -0.000161  3.951998  0.0
C  C38  1  0.78245274  0.86144408  0.64757464  1  -0.086719  -9.9e-05  3.694051  0.0  -0.112107  -5.1e-05  3.952758  0.0  -0.115541  -5.8e-05  3.976037  0.0  -0.080856  -0.108848  -4.8e-05  3.936708  0.0
C  C39  1  0.21754718  0.13855819  0.35242613  1  -0.086773  8.3e-05  3.694082  0.0  -0.11218  5.2e-05  3.952784  0.0  -0.115615  6e-05  3.976064  0.0  -0.080886  -0.108926  4.8e-05  3.936741  0.0
C  C40  1  0.92505175  0.78207625  0.55415771  1  0.023902  2.8e-05  3.783974  0.0  0.040966  5.1e-05  4.016789  0.0  0.038254  3.6e-05  4.041351  0.0  -4.4e-05  0.04156  6.4e-05  4.000998  0.0
C  C41  1  0.07494745  0.21792373  0.44584262  1  0.024009  -2.5e-05  3.783983  0.0  0.041043  -5.2e-05  4.01681  0.0  0.03833  -3.3e-05  4.041375  0.0  -2.2e-05  0.041643  -6.4e-05  4.001021  0.0
C  C42  1  0.94791310  0.84204933  0.43365586  1  0.129089  -6.5e-05  3.766835  0.0  0.121702  -2.4e-05  4.003115  0.0  0.126345  -3.7e-05  4.025515  0.0  0.116518  0.11796  4.4e-05  3.988727  0.0
C  C43  1  0.05208712  0.15795179  0.56634328  1  0.12909  6.1e-05  3.766968  0.0  0.121744  2.4e-05  4.003207  0.0  0.126388  3.4e-05  4.025607  0.0  0.116516  0.117997  -4.4e-05  3.98883  0.0
C  C44  1  0.04847313  0.64664811  0.57537394  1  -0.036753  0.000253  3.649229  0.0  -0.063258  0.000204  3.896693  0.0  -0.060203  0.000188  3.914484  0.0  -0.055704  -0.063519  0.000185  3.883823  0.0
C  C45  1  0.95152312  0.35335301  0.42462605  1  -0.036835  -0.000262  3.649343  0.0  -0.063329  -0.000205  3.896804  0.0  -0.060273  -0.000191  3.914596  0.0  -0.055718  -0.063597  -0.000185  3.883942  0.0
C  C46  1  0.18457672  0.58003177  0.47959602  1  -0.113827  0.000133  3.721133  0.0  -0.125375  0.000184  3.97254  0.0  -0.13286  0.00015  3.993691  0.0  -0.079224  -0.120535  0.000227  3.958227  0.0
C  C47  1  0.81542409  0.41996708  0.52040156  1  -0.113847  -0.00012  3.721279  0.0  -0.125402  -0.000183  3.972692  0.0  -0.132886  -0.000151  3.993841  0.0  -0.079248  -0.120555  -0.000227  3.95837  0.0
C  C48  1  0.19569779  0.64503849  0.36279834  1  0.166328  -0.000262  3.655484  0.0  0.133138  -0.00024  3.908438  0.0  0.142792  -0.000239  3.923754  0.0  0.065318  0.126345  -0.000267  3.898266  0.0
C  C49  1  0.80430110  0.35496264  0.63720193  1  0.16641  0.000243  3.655415  0.0  0.133215  0.00024  3.908376  0.0  0.14287  0.00024  3.923692  0.0  0.06536  0.126432  0.000267  3.898199  0.0
N  N50  1  0.86571508  0.04198497  0.29240150  1  -0.36397  -0.000424  3.281759  0.0  -0.293951  -0.00022  3.550245  0.0  -0.312815  -0.000244  3.56686  0.0  -0.321725  -0.281087  -0.000104  3.539012  0.0
N  N51  1  0.13428250  0.95801616  0.70759905  1  -0.363866  0.00042  3.281654  0.0  -0.293863  0.000219  3.550152  0.0  -0.312726  0.000242  3.566769  0.0  -0.321723  -0.281004  0.000104  3.538921  0.0
N  N52  1  0.07968175  0.77236802  0.34062108  1  -0.376563  0.000123  3.296603  0.0  -0.301645  5.3e-05  3.575124  0.0  -0.321637  3.2e-05  3.590348  0.0  -0.322632  -0.288986  8.1e-05  3.56526  0.0
N  N53  1  0.92031907  0.22763083  0.65937819  1  -0.376627  -0.000109  3.296602  0.0  -0.301734  -5.5e-05  3.575136  0.0  -0.321727  -3e-05  3.59036  0.0  -0.32264  -0.289081  -8.1e-05  3.565285  0.0
O  O54  1  0.24922416  0.70059872  0.07641361  1  -0.943202  0.002717  2.064258  0.003  -0.83016  0.001937  2.377979  0.002  -0.8619  0.001671  2.344322  0.002  -0.377074  -0.807232  0.002149  2.401724  0.002
O  O55  1  0.75077768  0.29940127  0.92358616  1  -0.943208  -0.002718  2.064283  -0.003  -0.830175  -0.001936  2.378004  -0.002  -0.861899  -0.001674  2.344317  -0.002  -0.377082  -0.807245  -0.002149  2.401759  -0.002
O  O56  1  0.85897125  0.83125155  0.12601975  1  -0.935499  -0.00371  2.075228  -0.015  -0.86029  0.005921  2.388068  -0.006  -0.896858  0.005409  2.364846  -0.006  -0.419519  -0.833312  0.0064  2.404062  -0.006
O  O57  1  0.14103353  0.16874730  0.87397783  1  -0.935532  0.003705  2.075287  0.015  -0.860308  -0.005922  2.388133  0.006  -0.896881  -0.005411  2.364909  0.006  -0.419542  -0.833329  -0.006401  2.404125  0.006
O  O58  1  0.59411189  0.05978030  0.11863675  1  -0.879748  -0.001085  2.002272  -0.001  -0.782795  -0.00052  2.289454  0.0  -0.811722  -0.000397  2.262718  0.0  -0.362753  -0.761721  -0.000654  2.307826  0.0
O  O59  1  0.40588894  0.94021854  0.88136422  1  -0.879689  0.001084  2.002225  0.001  -0.782758  0.00052  2.289442  0.0  -0.811684  0.000397  2.262706  0.0  -0.362774  -0.761685  0.000654  2.3078  0.0
O  O60  1  0.81923914  0.95829423  0.92334749  1  -0.875464  -0.001699  1.995031  -0.001  -0.782933  -0.001043  2.288327  -0.001  -0.810273  -0.000913  2.259064  -0.001  -0.372626  -0.763209  -0.001214  2.308901  -0.001
O  O61  1  0.18076005  0.04170575  0.07665116  1  -0.875417  0.001697  1.995019  0.001  -0.782895  0.001043  2.288339  0.001  -0.810246  0.00091  2.259099  0.001  -0.372616  -0.763172  0.001214  2.308903  0.001
O  O62  1  0.62140480  0.78855868  0.06686651  1  -0.956364  -0.000307  2.083304  -0.013  -0.879064  0.009052  2.399807  -0.004  -0.916072  0.008342  2.374683  -0.004  -0.420236  -0.851939  0.009747  2.417966  -0.004
O  O63  1  0.37859633  0.21143903  0.93313368  1  -0.956397  0.000306  2.083361  0.013  -0.879084  -0.009051  2.399876  0.004  -0.916099  -0.008342  2.374752  0.004  -0.420239  -0.851959  -0.009746  2.418031  0.004
O  O64  1  0.65262432  0.60907331  0.29029450  1  -0.734606  -0.204189  1.248788  -0.202  -0.752282  -0.093237  1.516629  -0.096  -0.789885  -0.114666  1.50378  -0.118  -0.597006  -0.72592  -0.079007  1.527754  -0.081
O  O65  1  0.34737945  0.39092440  0.70970596  1  -0.734665  0.204198  1.248779  0.202  -0.752324  0.093233  1.51663  0.096  -0.78994  0.114663  1.50377  0.118  -0.597028  -0.725958  0.079003  1.527757  0.081
O  O66  1  0.02264742  0.53155616  0.15836799  1  -0.918755  0.018682  2.000517  0.004  -0.866354  0.028181  2.291231  0.012  -0.902797  0.025458  2.270134  0.01  -0.432662  -0.838784  0.030277  2.306071  0.013
O  O67  1  0.97735472  0.46844269  0.84163185  1  -0.918794  -0.018685  2.000532  -0.004  -0.866386  -0.028181  2.291258  -0.012  -0.902836  -0.025455  2.27016  -0.01  -0.432677  -0.838808  -0.030278  2.306102  -0.013
O  O68  1  0.22537256  0.52159094  0.94257575  1  -0.948323  -0.016964  1.998359  -0.002  -0.898125  -0.026327  2.296243  -0.01  -0.934851  -0.023807  2.274073  -0.008  -0.436209  -0.870099  -0.028222  2.311729  -0.011
O  O69  1  0.77463121  0.47840677  0.05742386  1  -0.948303  0.016963  1.998465  0.002  -0.898114  0.026326  2.296348  0.01  -0.93483  0.023806  2.274176  0.008  -0.436213  -0.870088  0.02822  2.31184  0.011
O  O70  1  0.35406107  0.41789085  0.12147154  1  -0.908959  -0.003631  1.950704  -0.004  -0.816412  -0.002697  2.246137  -0.003  -0.845294  -0.002272  2.214779  -0.002  -0.38287  -0.794792  -0.002914  2.267743  -0.003
O  O71  1  0.64594108  0.58210800  0.87852999  1  -0.908948  0.003634  1.950813  0.004  -0.816367  0.002697  2.24619  0.003  -0.845263  0.00227  2.214864  0.002  -0.382845  -0.79474  0.002913  2.267801  0.003
