# generated using pymatgen
data_PrH10(C3O2)4
_symmetry_space_group_name_H-M   'P 1'
_cell_length_a   13.33455744
_cell_length_b   13.70679626
_cell_length_c   18.06136490
_cell_angle_alpha   90.00001595
_cell_angle_beta   90.00001985
_cell_angle_gamma   92.97086847
_symmetry_Int_Tables_number   1
_chemical_formula_structural   PrH10(C3O2)4
_chemical_formula_sum   'Pr8 H80 C96 O64'
_cell_volume   3296.71233650
_cell_formula_units_Z   8
loop_
 _symmetry_equiv_pos_site_id
 _symmetry_equiv_pos_as_xyz
  1  'x, y, z'
loop_
 _atom_site_type_symbol
 _atom_site_label
 _atom_site_symmetry_multiplicity
 _atom_site_fract_x
 _atom_site_fract_y
 _atom_site_fract_z
 _atom_site_occupancy
 _atom_site_pbe_bader_charge
 _atom_site_pbe_bader_spin_density
 _atom_site_pbe_cm5_charge
 _atom_site_pbe_ddec_charge
 _atom_site_pbe_ddec_spin_density
 _atom_site_pbe_ddec_sum_bond_order
 _atom_site_pbe_magmom
Pr  Pr0  1  0.64266278  0.09472712  0.98825929  1  2.273134  0  1.473983  2.124396  0  2.084313  0
Pr  Pr1  1  0.85733746  0.40527421  0.48826114  1  2.273127  0  1.474002  2.124337  0  2.08449  0
Pr  Pr2  1  0.35733723  0.90527233  0.01173900  1  2.273119  0  1.47401  2.124374  0  2.084451  0
Pr  Pr3  1  0.14266487  0.59472672  0.51173992  1  2.273099  0  1.473984  2.124334  0  2.084489  0
Pr  Pr4  1  0.90581911  0.35337723  0.03438958  1  2.275351  0  1.489834  2.141779  0  2.098223  0
Pr  Pr5  1  0.59417931  0.14662171  0.53438993  1  2.275333  0  1.48983  2.141765  0  2.098201  0
Pr  Pr6  1  0.09418019  0.64662295  0.96560927  1  2.275346  0  1.489826  2.141775  0  2.098248  0
Pr  Pr7  1  0.40582064  0.85337628  0.46560947  1  2.275246  0  1.489807  2.141757  0  2.09819  0
H  H8  1  0.63981114  0.26262813  0.76040277  1  0.124032  0  0.109042  0.113841  0  1.012741  0
H  H9  1  0.86018524  0.23737309  0.26040625  1  0.124124  0  0.109049  0.11384  0  1.01278  0
H  H10  1  0.36018741  0.73737205  0.23959441  1  0.124088  0  0.109067  0.113874  0  1.012771  0
H  H11  1  0.13981109  0.76262780  0.73959647  1  0.124068  0  0.109054  0.113853  0  1.012781  0
H  H12  1  0.76881704  0.51857540  0.65180305  1  0.094078  0  0.112597  0.10764  0  1.014254  0
H  H13  1  0.73118221  0.98142692  0.15180489  1  0.093192  0  0.112583  0.107632  0  1.014217  0
H  H14  1  0.23118389  0.48142771  0.34819746  1  0.093148  0  0.112577  0.10762  0  1.014273  0
H  H15  1  0.26881559  0.01857325  0.84819784  1  0.094077  0  0.112584  0.10762  0  1.01429  0
H  H16  1  0.55517991  0.14044817  0.26076443  1  0.122042  0  0.10789  0.1132  0  1.023443  0
H  H17  1  0.94482080  0.35954943  0.76076547  1  0.12219  0  0.107927  0.113269  0  1.023375  0
H  H18  1  0.44482082  0.85955057  0.73923553  1  0.122155  0  0.107894  0.113239  0  1.023415  0
H  H19  1  0.05518078  0.64045150  0.23923448  1  0.122062  0  0.107936  0.113284  0  1.023333  0
H  H20  1  0.80884765  0.47933756  0.88690211  1  0.119326  0  0.110823  0.108914  0  1.060629  0
H  H21  1  0.69114951  0.02066298  0.38690440  1  0.119394  0  0.110825  0.108953  0  1.060618  0
H  H22  1  0.19115302  0.52065971  0.11309729  1  0.119295  0  0.110843  0.108977  0  1.060593  0
H  H23  1  0.30884754  0.97933718  0.61309887  1  0.119337  0  0.110845  0.108958  0  1.060602  0
H  H24  1  0.48956684  0.38084751  0.11850111  1  0.099031  0  0.105195  0.10521  0  1.013797  0
H  H25  1  0.01043471  0.11915192  0.61850089  1  0.098798  0  0.105201  0.105207  0  1.013838  0
H  H26  1  0.51043317  0.61915195  0.88149995  1  0.098967  0  0.105199  0.105211  0  1.013778  0
H  H27  1  0.98956534  0.88084827  0.38149962  1  0.098792  0  0.105175  0.105178  0  1.013811  0
H  H28  1  0.83285461  0.58243990  0.77420023  1  0.088655  0  0.111578  0.115054  0  0.974146  0
H  H29  1  0.66714245  0.91756246  0.27420204  1  0.088859  0  0.111562  0.115067  0  0.974143  0
H  H30  1  0.16714541  0.41755956  0.22580083  1  0.088654  0  0.111582  0.115047  0  0.974154  0
H  H31  1  0.33285467  0.08243917  0.72580068  1  0.088676  0  0.11158  0.11506  0  0.974173  0
H  H32  1  0.44411315  0.47945114  0.22905311  1  0.103003  0  0.102693  0.10354  0  1.012443  0
H  H33  1  0.05589296  0.02054836  0.72905233  1  0.102963  0  0.102712  0.103577  0  1.012357  0
H  H34  1  0.55588837  0.52054832  0.77094739  1  0.102974  0  0.102694  0.103538  0  1.012423  0
H  H35  1  0.94410859  0.97945184  0.27094818  1  0.102952  0  0.102693  0.103565  0  1.012441  0
H  H36  1  0.46458047  0.41064628  0.35566702  1  0.098016  0  0.112367  0.115118  0  0.980031  0
H  H37  1  0.03542567  0.08935254  0.85566624  1  0.09799  0  0.11235  0.115113  0  0.980011  0
H  H38  1  0.53542102  0.58935245  0.64433404  1  0.098023  0  0.112379  0.115155  0  0.980031  0
H  H39  1  0.96457670  0.91064912  0.14433427  1  0.097952  0  0.112376  0.115149  0  0.980072  0
H  H40  1  0.20424466  0.21437466  0.01347799  1  0.105239  0  0.115029  0.125143  0  0.996276  0
H  H41  1  0.29575452  0.28562324  0.51348230  1  0.105331  0  0.115074  0.125272  0  0.99619  0
H  H42  1  0.79575542  0.78562625  0.98651864  1  0.10517  0  0.115058  0.125246  0  0.996169  0
H  H43  1  0.70424761  0.71437331  0.48651876  1  0.105237  0  0.115049  0.125245  0  0.996175  0
H  H44  1  0.30928642  0.51262522  0.97959660  1  0.131092  0  0.110641  0.113282  0  1.027149  0
H  H45  1  0.19070841  0.98737396  0.47959345  1  0.131102  0  0.110725  0.113332  0  1.027087  0
H  H46  1  0.69071219  0.48737641  0.02040391  1  0.131115  0  0.110671  0.113315  0  1.027128  0
H  H47  1  0.80928554  0.01262398  0.52040540  1  0.131135  0  0.110674  0.113329  0  1.027114  0
H  H48  1  0.50449904  0.27887439  0.93305804  1  0.092196  0  0.109192  0.104657  0  1.047359  0
H  H49  1  0.99550138  0.22113130  0.43305657  1  0.092154  0  0.109185  0.104657  0  1.047339  0
H  H50  1  0.49550271  0.72113019  0.06694469  1  0.092169  0  0.109191  0.104632  0  1.04735  0
H  H51  1  0.00449884  0.77887253  0.56694284  1  0.092174  0  0.109181  0.10463  0  1.047389  0
H  H52  1  0.47504871  0.45654712  0.93752117  1  0.065353  0  0.100088  0.098128  0  1.011691  0
H  H53  1  0.02494726  0.04345823  0.43751678  1  0.065519  0  0.100113  0.098155  0  1.011657  0
H  H54  1  0.52495153  0.54345745  0.06248266  1  0.065624  0  0.100117  0.098154  0  1.011635  0
H  H55  1  0.97504617  0.95654482  0.56248318  1  0.065633  0  0.100094  0.098124  0  1.011642  0
H  H56  1  0.87057807  0.48923252  0.16283004  1  0.587996  0  0.326323  0.408208  0  0.879531  0
H  H57  1  0.62942498  0.01076798  0.66282706  1  0.587902  0  0.326297  0.408179  0  0.879588  0
H  H58  1  0.12942276  0.51076841  0.83716880  1  0.587984  0  0.326333  0.408222  0  0.879477  0
H  H59  1  0.37057357  0.98923220  0.33717455  1  0.587906  0  0.326288  0.408174  0  0.879574  0
H  H60  1  0.97297527  0.53318843  0.13423422  1  0.659336  0  0.302174  0.409808  0  0.91991  0
H  H61  1  0.52702609  0.96681098  0.63423462  1  0.659334  0  0.30218  0.409792  0  0.91993  0
H  H62  1  0.02702478  0.46681175  0.86576408  1  0.659341  0  0.302196  0.409848  0  0.919848  0
H  H63  1  0.47297458  0.03318629  0.36576478  1  0.659355  0  0.302206  0.409851  0  0.919846  0
H  H64  1  0.74479182  0.34726028  0.16540789  1  0.614957  0  0.328625  0.409126  0  0.875054  0
H  H65  1  0.75520475  0.15274601  0.66540940  1  0.615423  0  0.328609  0.409099  0  0.875001  0
H  H66  1  0.25520912  0.65274284  0.83459095  1  0.614932  0  0.328596  0.409106  0  0.875023  0
H  H67  1  0.24479449  0.84725271  0.33459222  1  0.615438  0  0.328582  0.40909  0  0.875075  0
H  H68  1  0.68581573  0.33065967  0.09112225  1  0.664963  0  0.300332  0.400091  0  0.939576  0
H  H69  1  0.81418073  0.16934513  0.59112377  1  0.664935  0  0.300338  0.400106  0  0.939573  0
H  H70  1  0.31418217  0.66934269  0.90887826  1  0.664926  0  0.300327  0.400094  0  0.939586  0
H  H71  1  0.18581707  0.83065504  0.40887784  1  0.664912  0  0.300305  0.40009  0  0.939588  0
H  H72  1  0.82582163  0.00208885  0.93915393  1  0.611323  0  0.3277  0.417101  0  0.871145  0
H  H73  1  0.67417855  0.49791173  0.43915465  1  0.611316  0  0.327732  0.417095  0  0.871154  0
H  H74  1  0.17417845  0.99791207  0.06084547  1  0.611443  0  0.327711  0.417073  0  0.871178  0
H  H75  1  0.32581999  0.50208844  0.56084586  1  0.61133  0  0.327726  0.417099  0  0.871129  0
H  H76  1  0.86472720  0.11267843  0.93044586  1  0.656117  0  0.298195  0.39976  0  0.933543  0
H  H77  1  0.63527524  0.38732217  0.43044599  1  0.656138  0  0.298171  0.399724  0  0.933571  0
H  H78  1  0.13527510  0.88732178  0.06955299  1  0.656128  0  0.298188  0.399752  0  0.933548  0
H  H79  1  0.36472556  0.61267802  0.56955396  1  0.656129  0  0.298179  0.399737  0  0.93356  0
H  H80  1  0.53896794  0.97111947  0.86128723  1  0.660746  0  0.300033  0.405825  0  0.926569  0
H  H81  1  0.96103500  0.52887931  0.36128682  1  0.66073  0  0.30002  0.405833  0  0.926559  0
H  H82  1  0.46103286  0.02888072  0.13871162  1  0.660739  0  0.30001  0.405828  0  0.926573  0
H  H83  1  0.03896727  0.47112016  0.63871369  1  0.660747  0  0.300043  0.405867  0  0.926509  0
H  H84  1  0.58708995  0.06957051  0.82743478  1  0.622203  0  0.328525  0.412207  0  0.877604  0
H  H85  1  0.91291377  0.43042640  0.32743665  1  0.622174  0  0.328479  0.412165  0  0.87768  0
H  H86  1  0.41290941  0.93043113  0.17256684  1  0.622208  0  0.328545  0.4122  0  0.877609  0
H  H87  1  0.08708850  0.56957307  0.67256441  1  0.622173  0  0.328502  0.412186  0  0.877644  0
C  C88  1  0.71258318  0.30042018  0.89803745  1  1.562814  0  0.236774  0.649201  0  4.145954  0
C  C89  1  0.78741689  0.19957820  0.39803980  1  1.56274  0  0.236749  0.649127  0  4.145908  0
C  C90  1  0.28741814  0.69957491  0.10196029  1  1.562376  0  0.236741  0.649146  0  4.145886  0
C  C91  1  0.21258306  0.80041980  0.60196237  1  1.562648  0  0.236818  0.649247  0  4.145929  0
C  C92  1  0.72288482  0.36478357  0.83118703  1  -0.063019  0  -0.020522  -0.059296  0  3.983171  0
C  C93  1  0.77711454  0.13521624  0.33118937  1  -0.063194  0  -0.020541  -0.05932  0  3.98342  0
C  C94  1  0.27711664  0.63521444  0.16881126  1  -0.063078  0  -0.020513  -0.059312  0  3.983278  0
C  C95  1  0.22288470  0.86478248  0.66881280  1  -0.062754  0  -0.020536  -0.059371  0  3.983344  0
C  C96  1  0.70093790  0.38666022  0.69904696  1  -0.039916  0  -0.018434  -0.052283  0  3.979744  0
C  C97  1  0.79906066  0.11334026  0.19905041  1  -0.03972  0  -0.018377  -0.052137  0  3.979715  0
C  C98  1  0.29906218  0.61334070  0.30095133  1  -0.039972  0  -0.018345  -0.052121  0  3.979743  0
C  C99  1  0.20093788  0.88665991  0.80095287  1  -0.039906  0  -0.0184  -0.052248  0  3.979678  0
C  C100  1  0.68293354  0.33215458  0.76352381  1  -0.081009  0  -0.076482  -0.108847  0  3.949526  0
C  C101  1  0.81706434  0.16784664  0.26352893  1  -0.081038  0  -0.07645  -0.108829  0  3.949578  0
C  C102  1  0.31706651  0.66784560  0.23647282  1  -0.081031  0  -0.076475  -0.10885  0  3.949534  0
C  C103  1  0.18293346  0.83215353  0.73647490  1  -0.081068  0  -0.076479  -0.108855  0  3.949571  0
C  C104  1  0.56007122  0.19952196  0.11806924  1  1.525874  0  0.209686  0.581753  0  4.19342  0
C  C105  1  0.93992881  0.30047849  0.61807138  1  1.526186  0  0.209758  0.581828  0  4.193418  0
C  C106  1  0.43992883  0.80047822  0.88192961  1  1.525856  0  0.209722  0.581803  0  4.193339  0
C  C107  1  0.06007124  0.69952170  0.38192913  1  1.525845  0  0.20974  0.581784  0  4.193434  0
C  C108  1  0.66919218  0.34188002  0.62677944  1  1.598041  0  0.225755  0.634172  0  4.201472  0
C  C109  1  0.83080576  0.15812407  0.12678234  1  1.597798  0  0.225779  0.634334  0  4.201255  0
C  C110  1  0.33080800  0.65812309  0.37321830  1  1.598029  0  0.225752  0.634252  0  4.201451  0
C  C111  1  0.16919282  0.84187684  0.87321927  1  1.598056  0  0.225806  0.634398  0  4.20124  0
C  C112  1  0.75525889  0.47697205  0.70259045  1  0.008643  0  -0.066525  -0.067753  0  3.943828  0
C  C113  1  0.74474053  0.02303062  0.20259165  1  0.009234  0  -0.066594  -0.06789  0  3.943954  0
C  C114  1  0.24474197  0.52302960  0.29741005  1  0.009571  0  -0.066544  -0.067847  0  3.943993  0
C  C115  1  0.25525884  0.97697102  0.79741107  1  0.00862  0  -0.066564  -0.067833  0  3.94393  0
C  C116  1  0.53060789  0.21453484  0.25399584  1  -0.031375  0  -0.073546  -0.101307  0  3.912309  0
C  C117  1  0.96939429  0.28546204  0.75399632  1  -0.031321  0  -0.073579  -0.1014  0  3.912336  0
C  C118  1  0.46939359  0.78546390  0.74600467  1  -0.031504  0  -0.07355  -0.101346  0  3.912263  0
C  C119  1  0.03060801  0.71453817  0.24600419  1  -0.031425  0  -0.0736  -0.101395  0  3.91221  0
C  C120  1  0.52535082  0.25511362  0.18317340  1  -0.040358  0  -0.020473  -0.046492  0  3.992795  0
C  C121  1  0.97465061  0.24488395  0.68317332  1  -0.040503  0  -0.020447  -0.046378  0  3.992768  0
C  C122  1  0.47464995  0.74488584  0.81682711  1  -0.040365  0  -0.020482  -0.04645  0  3.992817  0
C  C123  1  0.02535016  0.75511551  0.31682774  1  -0.040357  0  -0.020459  -0.046376  0  3.992798  0
C  C124  1  0.77680571  0.45528724  0.83432745  1  0.006792  0  -0.072989  -0.076044  0  3.936608  0
C  C125  1  0.72319218  0.04471329  0.33432976  1  0.006771  0  -0.07298  -0.076093  0  3.936619  0
C  C126  1  0.22319500  0.54471077  0.16567195  1  0.00678  0  -0.073026  -0.07615  0  3.936723  0
C  C127  1  0.27680712  0.95528689  0.66567297  1  0.00692  0  -0.07302  -0.076075  0  3.936673  0
C  C128  1  0.49440548  0.35080971  0.17422669  1  -0.07115  0  -0.07393  -0.076382  0  3.940047  0
C  C129  1  0.00559832  0.14918902  0.67422647  1  -0.071019  0  -0.073937  -0.076371  0  3.940029  0
C  C130  1  0.50559600  0.64918903  0.82577382  1  -0.071132  0  -0.073928  -0.076382  0  3.940014  0
C  C131  1  0.99440248  0.85081117  0.32577349  1  -0.070994  0  -0.073919  -0.076391  0  3.940035  0
C  C132  1  0.79128139  0.51194125  0.77061522  1  -0.102459  0  -0.084142  -0.084783  0  3.986876  0
C  C133  1  0.70871641  0.98806111  0.27061761  1  -0.102252  0  -0.084096  -0.084766  0  3.986712  0
C  C134  1  0.20871866  0.48805893  0.22938473  1  -0.102356  0  -0.084148  -0.08474  0  3.986871  0
C  C135  1  0.29128142  0.01193979  0.72938511  1  -0.102836  0  -0.084101  -0.084714  0  3.986898  0
C  C136  1  0.51060777  0.27131378  0.31614010  1  0.014863  0  -0.016124  -0.037383  0  3.972495  0
C  C137  1  0.98939595  0.22868314  0.81614057  1  0.01492  0  -0.01617  -0.037513  0  3.972651  0
C  C138  1  0.48939368  0.72868423  0.68385986  1  0.014925  0  -0.016116  -0.037459  0  3.972563  0
C  C139  1  0.01060714  0.77131780  0.18385883  1  0.015023  0  -0.016164  -0.037533  0  3.972621  0
C  C140  1  0.46989071  0.40578949  0.23597617  1  -0.01362  0  -0.085117  -0.081232  0  3.997466  0
C  C141  1  0.03011465  0.09421001  0.73597595  1  -0.013591  0  -0.085169  -0.08128  0  3.997244  0
C  C142  1  0.53011081  0.59420998  0.76402489  1  -0.01361  0  -0.08514  -0.081212  0  3.997286  0
C  C143  1  0.96988621  0.90579164  0.26402400  1  -0.013621  0  -0.085155  -0.081254  0  3.997314  0
C  C144  1  0.48024681  0.36708020  0.30690271  1  -0.092974  0  -0.06767  -0.066303  0  3.924999  0
C  C145  1  0.01975853  0.13291787  0.80690304  1  -0.092903  0  -0.067614  -0.066288  0  3.924901  0
C  C146  1  0.51975471  0.63291927  0.69309725  1  -0.092864  0  -0.067649  -0.066344  0  3.92495  0
C  C147  1  0.98024387  0.86708452  0.19309747  1  -0.092857  0  -0.06757  -0.066263  0  3.924991  0
C  C148  1  0.24634290  0.36662123  0.99817214  1  -0.000827  0  -0.016394  -0.050084  0  3.97831  0
C  C149  1  0.25365431  0.13337758  0.49817281  1  -0.000952  0  -0.016473  -0.050225  0  3.978448  0
C  C150  1  0.75365650  0.63338114  0.00182671  1  -0.001116  0  -0.016427  -0.050076  0  3.978295  0
C  C151  1  0.74634326  0.86661747  0.50182604  1  -0.000899  0  -0.016403  -0.050043  0  3.978321  0
C  C152  1  0.26377802  0.26714473  0.99686547  1  0.014316  0  -0.066292  -0.08195  0  3.904156  0
C  C153  1  0.23622068  0.23285410  0.49686892  1  0.014174  0  -0.066292  -0.082068  0  3.904184  0
C  C154  1  0.73622281  0.73285620  0.00313227  1  0.01448  0  -0.066273  -0.082019  0  3.904139  0
C  C155  1  0.76377923  0.76714317  0.50313158  1  0.014397  0  -0.06629  -0.082087  0  3.904199  0
C  C156  1  0.32305462  0.43512050  0.97750760  1  -0.078616  0  -0.072968  -0.078736  0  3.941099  0
C  C157  1  0.17693889  0.06487974  0.47750547  1  -0.078452  0  -0.073042  -0.078757  0  3.94134  0
C  C158  1  0.67694253  0.56488186  0.02249346  1  -0.078476  0  -0.073022  -0.0788  0  3.941179  0
C  C159  1  0.82305427  0.93511747  0.52249338  1  -0.078666  0  -0.073037  -0.07883  0  3.94116  0
C  C160  1  0.14443644  0.39695729  0.01922729  1  1.573149  0  0.227192  0.635435  0  4.192566  0
C  C161  1  0.35555897  0.10303985  0.51922493  1  1.573425  0  0.227313  0.635666  0  4.192129  0
C  C162  1  0.85555983  0.60304214  0.98077377  1  1.572989  0  0.227286  0.635452  0  4.192293  0
C  C163  1  0.64443710  0.89695519  0.48076948  1  1.572837  0  0.227114  0.635385  0  4.192592  0
C  C164  1  0.35678441  0.23527196  0.97421049  1  -0.085158  0  -0.017124  -0.050412  0  3.973622  0
C  C165  1  0.14321517  0.26472978  0.47421504  1  -0.085013  0  -0.017179  -0.050459  0  3.973678  0
C  C166  1  0.64321574  0.76473041  0.02578725  1  -0.085268  0  -0.017218  -0.050577  0  3.973675  0
C  C167  1  0.85678495  0.73527187  0.52578713  1  -0.085161  0  -0.017129  -0.05042  0  3.973598  0
C  C168  1  0.52805687  0.23120203  0.39152809  1  1.537688  0  0.210318  0.588875  0  4.191411  0
C  C169  1  0.97194466  0.26879562  0.89152856  1  1.537525  0  0.210358  0.588972  0  4.191455  0
C  C170  1  0.47194533  0.76879598  0.60847132  1  1.537554  0  0.210376  0.588963  0  4.191456  0
C  C171  1  0.02805614  0.73120457  0.10847139  1  1.537513  0  0.210426  0.589125  0  4.191696  0
C  C172  1  0.43267196  0.30373845  0.95194974  1  0.000981  0  -0.069696  -0.063731  0  3.930904  0
C  C173  1  0.06732843  0.19626475  0.45194981  1  0.000892  0  -0.069655  -0.063685  0  3.93072  0
C  C174  1  0.56732976  0.69626540  0.04805133  1  0.000912  0  -0.069664  -0.063649  0  3.930748  0
C  C175  1  0.93267237  0.80373544  0.54805069  1  0.000928  0  -0.069677  -0.063683  0  3.930784  0
C  C176  1  0.41564003  0.40332548  0.95417327  1  -0.057959  0  -0.091467  -0.09339  0  4.007265  0
C  C177  1  0.08435654  0.09667623  0.45417057  1  -0.058148  0  -0.091458  -0.093364  0  4.007273  0
C  C178  1  0.58436012  0.59667690  0.04582834  1  -0.058138  0  -0.091429  -0.093331  0  4.007181  0
C  C179  1  0.91563819  0.90332245  0.54582883  1  -0.05805  0  -0.091423  -0.093343  0  4.007123  0
C  C180  1  0.37244755  0.12851099  0.97665161  1  1.538531  0  0.2246  0.63234  0  4.175268  0
C  C181  1  0.12755425  0.37149004  0.47665783  1  1.538456  0  0.224527  0.632263  0  4.175275  0
C  C182  1  0.62755413  0.87149213  0.02334392  1  1.538721  0  0.224524  0.632312  0  4.175351  0
C  C183  1  0.87244809  0.62851089  0.52334379  1  1.538458  0  0.224459  0.632271  0  4.175363  0
O  O184  1  0.76003171  0.32519290  0.95685805  1  -1.225153  0  -0.405881  -0.695422  0  2.335623  0
O  O185  1  0.73996911  0.17480478  0.45686204  1  -1.225156  0  -0.40585  -0.69532  0  2.335444  0
O  O186  1  0.23997023  0.67479927  0.04313859  1  -1.224841  0  -0.405833  -0.695314  0  2.335378  0
O  O187  1  0.26003231  0.82519250  0.54314179  1  -1.225145  0  -0.405871  -0.695395  0  2.33557  0
O  O188  1  0.59868150  0.24754309  0.06309168  1  -1.187596  0  -0.354275  -0.63348  0  2.298446  0
O  O189  1  0.90131781  0.25245880  0.56309379  1  -1.187827  0  -0.354298  -0.633536  0  2.298457  0
O  O190  1  0.40131858  0.75245783  0.93690828  1  -1.18753  0  -0.354284  -0.633524  0  2.298363  0
O  O191  1  0.09868224  0.74754139  0.43690782  1  -1.187514  0  -0.354304  -0.633534  0  2.298411  0
O  O192  1  0.71692732  0.36845727  0.56850810  1  -1.226365  0  -0.40969  -0.710422  0  2.360304  0
O  O193  1  0.78307217  0.13154827  0.06850878  1  -1.226288  0  -0.409726  -0.710527  0  2.360192  0
O  O194  1  0.28307365  0.63154657  0.43149019  1  -1.226268  0  -0.40972  -0.710511  0  2.360371  0
O  O195  1  0.21692638  0.86845190  0.93149229  1  -1.226333  0  -0.409737  -0.710543  0  2.360235  0
O  O196  1  0.59936950  0.27491381  0.62740784  1  -1.201615  0  -0.404884  -0.656691  0  2.210526  0
O  O197  1  0.90062708  0.22509319  0.12741243  1  -1.201635  0  -0.404893  -0.65677  0  2.210411  0
O  O198  1  0.40062993  0.72508929  0.37258880  1  -1.201652  0  -0.40491  -0.656741  0  2.210432  0
O  O199  1  0.09937082  0.77490917  0.87258807  1  -1.201667  0  -0.404906  -0.656778  0  2.210385  0
O  O200  1  0.55588467  0.10623935  0.11760913  1  -1.190253  0  -0.344494  -0.622541  0  2.284557  0
O  O201  1  0.94411236  0.39376108  0.61761350  1  -1.190287  0  -0.344561  -0.62258  0  2.284577  0
O  O202  1  0.44411163  0.89376081  0.88238805  1  -1.190281  0  -0.344537  -0.622545  0  2.28455  0
O  O203  1  0.05588844  0.60623911  0.38238700  1  -1.190269  0  -0.344545  -0.622552  0  2.28458  0
O  O204  1  0.65710086  0.22192363  0.89282521  1  -1.204433  0  -0.39533  -0.654621  0  2.235594  0
O  O205  1  0.84289921  0.27807475  0.39282980  1  -1.204386  0  -0.395362  -0.654654  0  2.235734  0
O  O206  1  0.34289978  0.77807291  0.10716976  1  -1.204335  0  -0.395358  -0.654661  0  2.235713  0
O  O207  1  0.15709928  0.72192397  0.60717403  1  -1.204275  0  -0.395371  -0.654656  0  2.235621  0
O  O208  1  0.08462892  0.33488317  0.05081071  1  -1.187944  0  -0.395528  -0.636407  0  2.202189  0
O  O209  1  0.41536940  0.16511182  0.55080839  1  -1.188082  0  -0.395582  -0.636485  0  2.201898  0
O  O210  1  0.91537100  0.66511410  0.94918924  1  -1.187863  0  -0.395607  -0.636455  0  2.201947  0
O  O211  1  0.58463029  0.83488033  0.44918548  1  -1.187596  0  -0.395493  -0.636367  0  2.202148  0
O  O212  1  0.12011675  0.48354296  0.00378162  1  -1.237159  0  -0.4224  -0.736829  0  2.406685  0
O  O213  1  0.37987643  0.01645489  0.50377814  1  -1.237025  0  -0.42243  -0.736913  0  2.406596  0
O  O214  1  0.87987880  0.51645719  0.99622000  1  -1.23698  0  -0.422401  -0.73678  0  2.406634  0
O  O215  1  0.62011439  0.98354011  0.49621572  1  -1.237224  0  -0.422296  -0.736759  0  2.406684  0
O  O216  1  0.52227755  0.13863933  0.40222660  1  -1.20632  0  -0.356414  -0.638725  0  2.301264  0
O  O217  1  0.97772331  0.36135978  0.90222599  1  -1.206254  0  -0.35642  -0.638756  0  2.301278  0
O  O218  1  0.47772394  0.86135941  0.59777335  1  -1.206264  0  -0.356433  -0.638758  0  2.301296  0
O  O219  1  0.02227756  0.63864187  0.09777452  1  -1.206233  0  -0.356479  -0.638861  0  2.30155  0
O  O220  1  0.55255019  0.28913337  0.44476161  1  -1.181256  0  -0.344049  -0.618692  0  2.217496  0
O  O221  1  0.94745212  0.21086431  0.94476263  1  -1.181224  0  -0.344064  -0.61871  0  2.217558  0
O  O222  1  0.44745201  0.71086464  0.55523834  1  -1.181252  0  -0.344078  -0.61871  0  2.217556  0
O  O223  1  0.05255018  0.78913589  0.05523788  1  -1.181205  0  -0.34407  -0.618759  0  2.217616  0
O  O224  1  0.93703496  0.46982723  0.14829959  1  -1.233748  0  -0.613435  -0.823414  0  1.942152  0
O  O225  1  0.56296652  0.03017179  0.64829936  1  -1.233674  0  -0.613425  -0.823391  0  1.942245  0
O  O226  1  0.06296509  0.53017296  0.85169871  1  -1.233749  0  -0.613451  -0.823465  0  1.942067  0
O  O227  1  0.43703271  0.96982693  0.35169949  1  -1.233682  0  -0.613414  -0.823418  0  1.942141  0
O  O228  1  0.74428741  0.36913136  0.11415263  1  -1.278136  0  -0.613756  -0.838339  0  2.035773  0
O  O229  1  0.75570910  0.13087418  0.61415414  1  -1.27862  0  -0.613756  -0.838343  0  2.035667  0
O  O230  1  0.25571127  0.63087174  0.88584621  1  -1.27812  0  -0.613737  -0.83832  0  2.03566  0
O  O231  1  0.24428942  0.86912527  0.38584693  1  -1.278602  0  -0.613694  -0.838308  0  2.035718  0
O  O232  1  0.29630080  0.06992367  0.98715910  1  -1.193085  0  -0.38819  -0.644986  0  2.213521  0
O  O233  1  0.20370469  0.43007594  0.48716093  1  -1.193199  0  -0.388197  -0.644956  0  2.213372  0
O  O234  1  0.70370307  0.93007801  0.01284085  1  -1.193191  0  -0.388195  -0.64497  0  2.213459  0
O  O235  1  0.79629980  0.56992282  0.51284124  1  -1.193082  0  -0.38818  -0.644964  0  2.213439  0
O  O236  1  0.80775119  0.06483974  0.91917981  1  -1.249092  0  -0.624709  -0.824823  0  1.990117  0
O  O237  1  0.69224977  0.43516157  0.41917941  1  -1.249105  0  -0.62472  -0.824765  0  1.990198  0
O  O238  1  0.19224964  0.93516118  0.08081959  1  -1.24922  0  -0.624714  -0.82477  0  1.990188  0
O  O239  1  0.30775034  0.56484007  0.58082109  1  -1.249115  0  -0.62472  -0.824782  0  1.990193  0
O  O240  1  0.46061607  0.09664028  0.96975291  1  -1.223747  0  -0.409746  -0.738009  0  2.344364  0
O  O241  1  0.03938824  0.40336661  0.46976521  1  -1.223555  0  -0.409678  -0.737961  0  2.344436  0
O  O242  1  0.53938649  0.90336577  0.03023652  1  -1.223627  0  -0.409668  -0.737979  0  2.344488  0
O  O243  1  0.96061570  0.59663653  0.53023752  1  -1.223641  0  -0.409656  -0.737964  0  2.344499  0
O  O244  1  0.59969862  0.01721280  0.86205342  1  -1.265613  0  -0.624532  -0.823992  0  1.974858  0
O  O245  1  0.90030512  0.48278413  0.36205530  1  -1.265576  0  -0.62446  -0.82395  0  1.974908  0
O  O246  1  0.40030430  0.98278449  0.13794321  1  -1.265617  0  -0.624539  -0.823999  0  1.974903  0
O  O247  1  0.09969643  0.51721607  0.63794521  1  -1.265602  0  -0.624516  -0.824003  0  1.974839  0
