# generated using pymatgen
data_ZnH8C14NO4
_symmetry_space_group_name_H-M   'P 1'
_cell_length_a   9.60957991
_cell_length_b   11.06334388
_cell_length_c   17.93918498
_cell_angle_alpha   90.29994878
_cell_angle_beta   90.01047073
_cell_angle_gamma   89.99789728
_symmetry_Int_Tables_number   1
_chemical_formula_structural   ZnH8C14NO4
_chemical_formula_sum   'Zn2 H16 C28 N2 O8'
_cell_volume   1907.16190798
_cell_formula_units_Z   2
loop_
 _symmetry_equiv_pos_site_id
 _symmetry_equiv_pos_as_xyz
  1  'x, y, z'
loop_
 _atom_site_type_symbol
 _atom_site_label
 _atom_site_symmetry_multiplicity
 _atom_site_fract_x
 _atom_site_fract_y
 _atom_site_fract_z
 _atom_site_occupancy
 _atom_site_pbe_bader_charge
 _atom_site_pbe_bader_spin_density
 _atom_site_pbe_cm5_charge
 _atom_site_pbe_ddec_charge
 _atom_site_pbe_ddec_spin_density
 _atom_site_pbe_ddec_sum_bond_order
 _atom_site_pbe_magmom
Zn  Zn0  1  0.35844688  0.50022545  0.49994177  1  1.27105  0  0.661237  0.804742  0  2.457198  0
Zn  Zn1  1  0.64155189  0.50018012  0.50005572  1  1.248032  0  0.661247  0.804818  0  2.457361  0
H  H2  1  0.27564745  0.49274194  0.12215072  1  0.074776  0  0.104754  0.107184  0  0.990265  0
H  H3  1  0.27699590  0.11377021  0.49540571  1  0.096125  0  0.101144  0.10389  0  1.007079  0
H  H4  1  0.72295132  0.11394600  0.50439165  1  0.096995  0  0.101173  0.103999  0  1.006682  0
H  H5  1  0.27705164  0.88634675  0.49566413  1  0.097446  0  0.100867  0.103674  0  1.006854  0
H  H6  1  0.86619374  0.36479731  0.41958375  1  0.156754  0  0.142702  0.123856  0  0.955786  0
H  H7  1  0.13379987  0.63530572  0.58050841  1  0.161116  0  0.142573  0.123674  0  0.955932  0
H  H8  1  0.86623773  0.63522600  0.58054740  1  0.161672  0  0.142561  0.123738  0  0.955567  0
H  H9  1  0.13376004  0.36487432  0.41954532  1  0.158047  0  0.142636  0.123781  0  0.955791  0
H  H10  1  0.72433421  0.49292544  0.87776274  1  0.073995  0  0.104886  0.107065  0  0.990343  0
H  H11  1  0.27564341  0.49293331  0.87773010  1  0.073527  0  0.104899  0.107145  0  0.990219  0
H  H12  1  0.72436322  0.49273856  0.12217389  1  0.074394  0  0.104833  0.107215  0  0.990137  0
H  H13  1  0.27690665  0.49638564  0.26163450  1  0.095881  0  0.10314  0.106475  0  1.003466  0
H  H14  1  0.72309863  0.49740150  0.73831423  1  0.095746  0  0.10303  0.106703  0  1.003198  0
H  H15  1  0.27685331  0.49740394  0.73828226  1  0.094699  0  0.102976  0.106565  0  1.003058  0
H  H16  1  0.72315301  0.49638227  0.26165922  1  0.095367  0  0.103177  0.106387  0  1.00351  0
H  H17  1  0.72299560  0.88652155  0.50461997  1  0.095781  0  0.100982  0.103678  0  1.007563  0
C  C18  1  0.50000673  0.73797912  0.50080814  1  1.556359  0  0.215187  0.593145  0  4.161772  0
C  C19  1  0.49997731  0.49743973  0.35329947  1  1.491014  0  0.213688  0.591268  0  4.166556  0
C  C20  1  0.49998606  0.12684400  0.49963083  1  -0.05818  0  -0.014323  -0.023768  0  3.957432  0
C  C21  1  0.50001066  0.87344695  0.50042941  1  -0.058868  0  -0.013505  -0.022284  0  3.957165  0
C  C22  1  0.37343932  0.49323433  0.15293630  1  0.005718  0  -0.084289  -0.12924  0  3.952646  0
C  C23  1  0.62655164  0.49414413  0.84698194  1  0.006475  0  -0.083932  -0.128136  0  3.953365  0
C  C24  1  0.37341570  0.49414809  0.84695860  1  0.007768  0  -0.083899  -0.128315  0  3.953009  0
C  C25  1  0.62658254  0.49323486  0.15295018  1  0.006559  0  -0.084389  -0.12931  0  3.952404  0
C  C26  1  0.37403376  0.49507795  0.23032854  1  -0.043535  0  -0.084121  -0.08932  0  3.996613  0
C  C27  1  0.62596743  0.49680829  0.76961499  1  -0.042418  0  -0.083816  -0.089246  0  3.996903  0
C  C28  1  0.37399699  0.49680502  0.76959113  1  -0.044009  0  -0.083711  -0.0889  0  3.996207  0
C  C29  1  0.50000143  0.26231180  0.49924150  1  1.552529  0  0.215418  0.594028  0  4.160882  0
C  C30  1  0.62601356  0.49508030  0.23034571  1  -0.044233  0  -0.084105  -0.089059  0  3.996069  0
C  C31  1  0.50002809  0.49584021  0.26988744  1  -0.005459  0  -0.017317  -0.031082  0  3.960353  0
C  C32  1  0.49998341  0.49840434  0.73007620  1  -0.014743  0  -0.017943  -0.033052  0  3.961784  0
C  C33  1  0.92752147  0.42466737  0.45516517  1  0.599199  0  0.081433  0.063056  0  3.862152  0
C  C34  1  0.07247422  0.57545371  0.54491700  1  0.592874  0  0.081743  0.063465  0  3.862256  0
C  C35  1  0.92755427  0.57541621  0.54493550  1  0.419792  0  0.081898  0.063374  0  3.862299  0
C  C36  1  0.07244558  0.42470307  0.45515000  1  0.425412  0  0.081449  0.063127  0  3.862242  0
C  C37  1  0.50000641  0.49229929  0.11283846  1  0.100868  0  0.00241  0.144764  0  4.115253  0
C  C38  1  0.49998462  0.49302998  0.88705644  1  0.095926  0  0.001874  0.143843  0  4.117535  0
C  C39  1  0.49999861  0.49128491  0.03398921  1  -0.089199  0  -0.043953  -0.108475  0  4.12363  0
C  C40  1  0.49998940  0.49144473  0.96589230  1  -0.32415  0  -0.044225  -0.108382  0  4.125111  0
C  C41  1  0.62597654  0.93733571  0.50269673  1  -0.108816  0  -0.086585  -0.097481  0  3.986768  0
C  C42  1  0.37402017  0.06295973  0.49735571  1  0.061245  0  -0.086412  -0.096832  0  3.985727  0
C  C43  1  0.62596645  0.06305581  0.50235994  1  0.056027  0  -0.086108  -0.095919  0  3.984846  0
C  C44  1  0.37403026  0.93723787  0.49770978  1  -0.113619  0  -0.086175  -0.096383  0  3.985106  0
C  C45  1  0.50002987  0.50093205  0.64668808  1  1.500375  0  0.213362  0.592718  0  4.166373  0
N  N46  1  0.14313988  0.50010669  0.50001204  1  -1.201208  0  -0.290059  -0.139281  0  3.498512  0
N  N47  1  0.85685788  0.50004687  0.50004901  1  -1.201117  0  -0.290193  -0.139376  0  3.498849  0
O  O48  1  0.38199014  0.68520464  0.50077979  1  -1.164277  0  -0.320336  -0.552026  0  2.322012  0
O  O49  1  0.61801490  0.31508635  0.49929215  1  -1.166654  0  -0.320283  -0.552636  0  2.322012  0
O  O50  1  0.38200141  0.31512296  0.49899883  1  -1.16761  0  -0.320606  -0.552809  0  2.32179  0
O  O51  1  0.61801090  0.68517599  0.50101237  1  -1.165336  0  -0.320484  -0.552367  0  2.321845  0
O  O52  1  0.38201200  0.50174324  0.61404522  1  -1.171323  0  -0.321617  -0.553658  0  2.320563  0
O  O53  1  0.61799097  0.49801153  0.38595589  1  -1.169835  0  -0.321716  -0.553159  0  2.320394  0
O  O54  1  0.38189322  0.49809750  0.38585443  1  -1.172118  0  -0.321783  -0.553256  0  2.320445  0
O  O55  1  0.61811495  0.50169251  0.61414119  1  -1.172832  0  -0.321396  -0.553627  0  2.321481  0
