# generated using pymatgen
data_Al4H43C88N13O30
_symmetry_space_group_name_H-M   'P 1'
_cell_length_a   6.61940065
_cell_length_b   28.35721317
_cell_length_c   31.75542018
_cell_angle_alpha   78.05351406
_cell_angle_beta   89.73794436
_cell_angle_gamma   89.61124887
_symmetry_Int_Tables_number   1
_chemical_formula_structural   Al4H43C88N13O30
_chemical_formula_sum   'Al4 H43 C88 N13 O30'
_cell_volume   5831.47233138
_cell_formula_units_Z   1
loop_
 _symmetry_equiv_pos_site_id
 _symmetry_equiv_pos_as_xyz
  1  'x, y, z'
loop_
 _atom_site_type_symbol
 _atom_site_label
 _atom_site_symmetry_multiplicity
 _atom_site_fract_x
 _atom_site_fract_y
 _atom_site_fract_z
 _atom_site_occupancy
 _atom_site_pbe_bader_charge
 _atom_site_pbe_bader_spin_density
 _atom_site_pbe_cm5_charge
 _atom_site_pbe_ddec_charge
 _atom_site_pbe_ddec_spin_density
 _atom_site_pbe_ddec_sum_bond_order
 _atom_site_pbe_magmom
Al  Al0  1  0.10380863  0.49900312  0.50066502  1  2.503554  0  0.400017  1.652614  0  2.582379  0
Al  Al1  1  0.60376118  0.50128928  0.49947688  1  2.501867  0  0.400086  1.652222  0  2.580801  0
Al  Al2  1  0.70548080  0.00110951  0.99932637  1  2.503493  0  0.399552  1.653112  0  2.582117  0
Al  Al3  1  0.20559489  0.99884927  0.00054114  1  2.502463  0  0.400627  1.653051  0  2.579618  0
H  H4  1  0.18841573  0.60053121  0.39237497  1  0.081019  0  0.109834  0.114172  0  1.004871  0
H  H5  1  0.20677607  0.66668159  0.32614054  1  0.135355  0  0.104966  0.102488  0  1.03678  0
H  H6  1  0.55901677  0.67870870  0.32574743  1  0.107238  0  0.105509  0.102696  0  1.036069  0
H  H7  1  0.54211034  0.61220994  0.39180391  1  0.09422  0  0.108215  0.111668  0  1.007822  0
H  H8  1  0.25017168  0.82123987  0.17425513  1  0.111554  0  0.10562  0.102936  0  1.036687  0
H  H9  1  0.26728185  0.88781583  0.10828062  1  0.086913  0  0.107749  0.110874  0  1.008215  0
H  H10  1  0.62088678  0.89951221  0.10765547  1  0.077937  0  0.10913  0.113011  0  1.006739  0
H  H11  1  0.60252347  0.83329413  0.17384003  1  0.131868  0  0.105132  0.103059  0  1.035854  0
H  H12  1  0.32464136  0.83263811  0.72462581  1  0.150056  0  0.128931  0.14561  0  0.963235  0
H  H13  1  0.50122466  0.72591121  0.82577518  1  0.133624  0  0.118258  0.123243  0  0.977141  0
H  H14  1  0.48143527  0.67199357  0.77154269  1  0.113029  0  0.118788  0.124625  0  0.976144  0
H  H15  1  0.64185732  0.88589875  0.84038914  1  0.101398  0  0.113751  0.127479  0  0.981153  0
H  H16  1  0.65053167  0.93765980  0.89520262  1  0.098795  0  0.114356  0.119221  0  0.986756  0
H  H17  1  0.25768005  0.89019029  0.92891286  1  0.082766  0  0.110838  0.113075  0  0.993418  0
H  H18  1  0.24646665  0.83575444  0.87641623  1  0.100409  0  0.111945  0.12676  0  0.989282  0
H  H19  1  0.56775663  0.66808461  0.62029082  1  0.133561  0  0.114734  0.131676  0  0.981313  0
H  H20  1  0.55586666  0.61264562  0.56850477  1  0.085445  0  0.111044  0.112413  0  0.992409  0
H  H21  1  0.15742171  0.56270884  0.60499155  1  0.100922  0  0.114052  0.118811  0  0.987352  0
H  H22  1  0.16580304  0.61539720  0.65907948  1  0.075529  0  0.113903  0.12782  0  0.98069  0
H  H23  1  0.84894100  0.17501328  0.26690381  1  0.126034  0  0.117104  0.121962  0  0.980471  0
H  H24  1  0.82948459  0.22829432  0.32164143  1  0.12364  0  0.117888  0.123217  0  0.979081  0
H  H25  1  0.96078475  0.32488889  0.23322915  1  0.125132  0  0.116667  0.121156  0  0.98146  0
H  H26  1  0.97987845  0.27149472  0.17855757  1  0.125771  0  0.117359  0.121703  0  0.980871  0
H  H27  1  0.67096143  0.38468733  0.34010538  1  0.097057  0  0.113803  0.129111  0  0.980853  0
H  H28  1  0.66281096  0.43707472  0.39435089  1  0.105827  0  0.112972  0.116982  0  0.987904  0
H  H29  1  0.06057346  0.38914799  0.43134216  1  0.087815  0  0.110188  0.111373  0  0.993766  0
H  H30  1  0.07162287  0.33416990  0.37936627  1  0.102301  0  0.11289  0.128496  0  0.986123  0
H  H31  1  0.73818608  0.16565485  0.12079502  1  0.104796  0  0.112874  0.128781  0  0.98591  0
H  H32  1  0.74894603  0.11071121  0.06878395  1  0.090801  0  0.109987  0.111151  0  0.994979  0
H  H33  1  0.14638826  0.06296258  0.10568531  1  0.106602  0  0.113033  0.116919  0  0.988501  0
H  H34  1  0.13852578  0.11531573  0.15998895  1  0.094465  0  0.114165  0.129157  0  0.980894  0
H  H35  1  0.68884365  0.39940167  0.60785648  1  0.085111  0  0.109944  0.114252  0  1.005225  0
H  H36  1  0.70685918  0.33316478  0.67404775  1  0.127533  0  0.104868  0.102533  0  1.037075  0
H  H37  1  0.05966971  0.32160400  0.67412195  1  0.113017  0  0.105405  0.102738  0  1.036647  0
H  H38  1  0.04309427  0.38821461  0.60813130  1  0.089158  0  0.108326  0.112117  0  1.007636  0
H  H39  1  0.74964033  0.17847001  0.82588422  1  0.11586  0  0.105393  0.102923  0  1.036543  0
H  H40  1  0.76645296  0.11179344  0.89183200  1  0.090652  0  0.108124  0.112054  0  1.007709  0
H  H41  1  0.12054059  0.10067348  0.89224640  1  0.079266  0  0.109484  0.113698  0  1.005532  0
H  H42  1  0.10248206  0.16693881  0.82605416  1  0.13001  0  0.104967  0.10246  0  1.036002  0
H  H43  1  0.34662878  0.56215623  0.50053661  1  0.598408  0  0.360075  0.438094  0  0.841019  0
H  H44  1  0.85006043  0.43850167  0.49855836  1  0.612457  0  0.359787  0.438056  0  0.840951  0
H  H45  1  0.46287052  0.93721249  0.00197540  1  0.639827  0  0.3604  0.438117  0  0.840547  0
H  H46  1  0.95925550  0.06164748  0.00136313  1  0.609848  0  0.360073  0.438411  0  0.840988  0
C  C47  1  0.35765363  0.44752805  0.44844607  1  1.572466  0  0.270192  0.645725  0  4.092232  0
C  C48  1  0.35711724  0.43615956  0.56446030  1  1.552601  0  0.265376  0.634417  0  4.11239  0
C  C49  1  0.85294307  0.55290805  0.55155820  1  1.580351  0  0.269552  0.643601  0  4.097698  0
C  C50  1  0.85640518  0.56412477  0.43567147  1  1.557444  0  0.266009  0.635646  0  4.1095  0
C  C51  1  0.05205300  0.61796807  0.37737703  1  -0.028  0  -0.077962  -0.083426  0  3.964114  0
C  C52  1  0.06223785  0.65450030  0.34082168  1  -0.072808  0  -0.080093  -0.106732  0  3.960767  0
C  C53  1  0.88392422  0.67657464  0.32215265  1  -0.065099  0  -0.001876  0.022156  0  3.986084  0
C  C54  1  0.69565515  0.66122909  0.34057390  1  0.010377  0  -0.079357  -0.105848  0  3.953653  0
C  C55  1  0.68650214  0.62450637  0.37707862  1  -0.033536  0  -0.078087  -0.083352  0  3.962221  0
C  C56  1  0.86444123  0.60275709  0.39583291  1  0.00646  0  -0.009985  -0.036415  0  3.962588  0
C  C57  1  0.91424676  0.78415651  0.21610401  1  0.981408  0  0.241846  0.242057  0  3.982688  0
C  C58  1  0.89467717  0.71548037  0.28365153  1  0.950882  0  0.243424  0.245794  0  3.976694  0
C  C59  1  0.11357848  0.83872357  0.15940994  1  -0.013204  0  -0.079227  -0.10639  0  3.954428  0
C  C60  1  0.12278240  0.87546632  0.12292266  1  -0.01908  0  -0.078997  -0.083852  0  3.963112  0
C  C61  1  0.94485896  0.89720279  0.10412087  1  -0.038476  0  -0.010638  -0.037822  0  3.96282  0
C  C62  1  0.75722689  0.88200734  0.12259637  1  0.011948  0  -0.077786  -0.082788  0  3.964355  0
C  C63  1  0.74707160  0.84543919  0.15913956  1  -0.074434  0  -0.08071  -0.107763  0  3.96032  0
C  C64  1  0.92529362  0.82328974  0.17776326  1  -0.040072  0  -0.001545  0.02418  0  3.986432  0
C  C65  1  0.72581921  0.67026013  0.70559995  1  1.36274  0  0.25019  0.448851  0  4.080644  0
C  C66  1  0.03289614  0.70967941  0.66766168  1  1.361445  0  0.251796  0.451562  0  4.076918  0
C  C67  1  0.04303658  0.74108297  0.69950929  1  0.088547  0  0.007982  -0.097783  0  3.945757  0
C  C68  1  0.90093288  0.73603353  0.73364283  1  0.004321  0  0.010241  0.048301  0  3.987164  0
C  C69  1  0.74377333  0.70188139  0.73717578  1  0.017965  0  0.001471  -0.050784  0  3.976504  0
C  C70  1  0.19041071  0.77625903  0.69689410  1  0.153667  0  0.102161  0.082249  0  3.908805  0
C  C71  1  0.20650124  0.80558582  0.72728301  1  0.025881  0  -0.057439  -0.127101  0  3.910952  0
C  C72  1  0.06870945  0.80052723  0.76087175  1  0.009862  0  0.003135  -0.038156  0  3.978257  0
C  C73  1  0.91223023  0.76623088  0.76424880  1  0.00927  0  0.005499  0.028276  0  4.003406  0
C  C74  1  0.76611479  0.76192074  0.79739025  1  -0.038794  0  -0.003062  -0.058276  0  3.986645  0
C  C75  1  0.61234393  0.72830380  0.79998367  1  -0.058137  0  -0.061033  -0.066422  0  3.928335  0
C  C76  1  0.60173831  0.69835206  0.76999480  1  0.011457  0  -0.060738  -0.067556  0  3.927959  0
C  C77  1  0.08570659  0.83213065  0.79263790  1  1.362532  0  0.249774  0.442368  0  4.079931  0
C  C78  1  0.77464603  0.79310747  0.82946775  1  1.321636  0  0.249014  0.442011  0  4.082676  0
C  C79  1  0.77560502  0.88663672  0.86011442  1  -0.003886  0  -0.081571  -0.150907  0  3.968821  0
C  C80  1  0.78055274  0.91551924  0.89054058  1  -0.026043  0  -0.074635  -0.074038  0  3.965354  0
C  C81  1  0.95425014  0.91681156  0.91536920  1  0.024873  0  -0.012021  -0.046206  0  3.97535  0
C  C82  1  0.12292266  0.88864859  0.90969231  1  -0.042314  0  -0.075813  -0.074131  0  3.965914  0
C  C83  1  0.11699149  0.85842734  0.88030249  1  0.004823  0  -0.082378  -0.152563  0  3.962757  0
C  C84  1  0.94331340  0.85785130  0.85557347  1  0.253524  0  0.090327  0.195311  0  3.997786  0
C  C85  1  0.69501606  0.64441042  0.61726914  1  -0.012817  0  -0.07906  -0.146366  0  3.950652  0
C  C86  1  0.68902821  0.61369885  0.58829969  1  -0.025231  0  -0.074406  -0.072545  0  3.963949  0
C  C87  1  0.85589405  0.58451689  0.58368158  1  -0.00163  0  -0.012129  -0.047613  0  3.978341  0
C  C88  1  0.02835608  0.58544592  0.60896726  1  -0.01922  0  -0.074859  -0.074147  0  3.965465  0
C  C89  1  0.03317769  0.61481938  0.63898919  1  0.023854  0  -0.081907  -0.153153  0  3.970922  0
C  C90  1  0.86699977  0.64440169  0.64257605  1  0.243144  0  0.091988  0.19555  0  3.998869  0
C  C91  1  0.26562435  0.20755358  0.17070137  1  1.311874  0  0.247192  0.44002  0  4.083227  0
C  C92  1  0.58715172  0.17031042  0.20458769  1  1.328878  0  0.247467  0.440525  0  4.082675  0
C  C93  1  0.57426036  0.20244276  0.23590736  1  -0.010305  0  -0.002528  -0.057937  0  3.982388  0
C  C94  1  0.40984184  0.23479859  0.23477028  1  0.04721  0  0.003901  0.029738  0  4.012462  0
C  C95  1  0.25624901  0.23792704  0.20346921  1  -0.037063  0  -0.002321  -0.058089  0  3.983948  0
C  C96  1  0.72392035  0.20022888  0.26682970  1  -0.065428  0  -0.061966  -0.069244  0  3.937369  0
C  C97  1  0.71313062  0.22979707  0.29722090  1  -0.001009  0  -0.062522  -0.070337  0  3.934872  0
C  C98  1  0.55286179  0.26179112  0.29680328  1  -0.022593  0  -0.002076  -0.055204  0  3.979776  0
C  C99  1  0.39912577  0.26484764  0.26554519  1  -0.008244  0  0.003819  0.027725  0  4.011674  0
C  C100  1  0.23505021  0.29731857  0.26431686  1  -0.019004  0  -0.002732  -0.057922  0  3.983013  0
C  C101  1  0.08545747  0.29956170  0.23338132  1  -0.063006  0  -0.062138  -0.06878  0  3.939169  0
C  C102  1  0.09602645  0.26994247  0.20303164  1  0.007476  0  -0.062836  -0.069216  0  3.938378  0
C  C103  1  0.54408266  0.29235961  0.32942524  1  1.31226  0  0.247245  0.439419  0  4.082533  0
C  C104  1  0.22266085  0.32960905  0.29551533  1  1.332814  0  0.247648  0.440397  0  4.08228  0
C  C105  1  0.53832241  0.38546369  0.36040785  1  -0.011537  0  -0.081912  -0.15174  0  3.963917  0
C  C106  1  0.53366909  0.41471003  0.39056988  1  0.003861  0  -0.076026  -0.074685  0  3.96392  0
C  C107  1  0.36145477  0.41612545  0.41615264  1  -0.034314  0  -0.013474  -0.050349  0  3.979123  0
C  C108  1  0.19423408  0.38759349  0.41153393  1  -0.014385  0  -0.076381  -0.073142  0  3.970499  0
C  C109  1  0.20004088  0.35704132  0.38243538  1  0.001648  0  -0.082033  -0.151276  0  3.964225  0
C  C110  1  0.37207139  0.35641173  0.35686375  1  0.281355  0  0.091363  0.195751  0  3.999222  0
C  C111  1  0.60961543  0.14284554  0.11769854  1  0.003832  0  -0.08214  -0.15195  0  3.965098  0
C  C112  1  0.61524778  0.11232088  0.08857853  1  -0.025791  0  -0.07635  -0.073572  0  3.972443  0
C  C113  1  0.44785908  0.08386149  0.08393090  1  -0.01803  0  -0.013773  -0.049521  0  3.978455  0
C  C114  1  0.27557345  0.08528749  0.10949294  1  -0.004925  0  -0.075848  -0.074396  0  3.96348  0
C  C115  1  0.27109433  0.11451574  0.13966686  1  -0.012227  0  -0.081702  -0.151066  0  3.961458  0
C  C116  1  0.43751548  0.14353156  0.14323207  1  0.287693  0  0.091456  0.196681  0  3.996437  0
C  C117  1  0.55252385  0.38203416  0.62276721  1  -0.030511  0  -0.078197  -0.083586  0  3.963904  0
C  C118  1  0.56251155  0.34544762  0.65930531  1  -0.072228  0  -0.080797  -0.107126  0  3.960117  0
C  C119  1  0.38426618  0.32348567  0.67787767  1  -0.064535  0  -0.00202  0.02251  0  3.985391  0
C  C120  1  0.19625927  0.33901283  0.65938082  1  0.013591  0  -0.080464  -0.107999  0  3.955991  0
C  C121  1  0.18730191  0.37578937  0.62290483  1  -0.034822  0  -0.078061  -0.083433  0  3.963418  0
C  C122  1  0.36516521  0.39742863  0.60424565  1  0.015718  0  -0.009523  -0.035954  0  3.962763  0
C  C123  1  0.41416038  0.21575207  0.78387001  1  0.959513  0  0.242581  0.243464  0  3.982175  0
C  C124  1  0.39485104  0.28450415  0.71634119  1  0.958435  0  0.243432  0.245125  0  3.978435  0
C  C125  1  0.61310520  0.16106104  0.84064643  1  -0.008068  0  -0.080221  -0.108019  0  3.955297  0
C  C126  1  0.62216868  0.12426770  0.87710454  1  -0.031258  0  -0.077858  -0.083512  0  3.962347  0
C  C127  1  0.44429010  0.10263864  0.89579780  1  -0.031547  0  -0.010079  -0.037487  0  3.961941  0
C  C128  1  0.25682113  0.11803860  0.87731631  1  0.011315  0  -0.077649  -0.083038  0  3.962277  0
C  C129  1  0.24685102  0.15464741  0.84078553  1  -0.078873  0  -0.0803  -0.10678  0  3.958693  0
C  C130  1  0.42502633  0.17663377  0.82222428  1  -0.042719  0  -0.002241  0.023637  0  3.986492  0
C  C131  1  0.45239812  0.06392287  0.93557784  1  1.562145  0  0.266412  0.637134  0  4.108642  0
C  C132  1  0.45144389  0.05253038  0.05160659  1  1.573975  0  0.269208  0.643816  0  4.093894  0
C  C133  1  0.95282267  0.93582724  0.06427498  1  1.563679  0  0.265371  0.635806  0  4.108496  0
C  C134  1  0.95673843  0.94774181  0.94806811  1  1.580536  0  0.269847  0.64295  0  4.09771  0
N  N135  1  0.71919706  0.73606859  0.26705664  1  -0.550797  0  -0.149771  -0.138288  0  3.209346  0
N  N136  1  0.72916585  0.77098990  0.23269799  1  -0.567866  0  -0.150969  -0.142043  0  3.213617  0
N  N137  1  0.08959983  0.76329391  0.23247027  1  -0.547838  0  -0.150248  -0.139008  0  3.21304  0
N  N138  1  0.07966882  0.72837156  0.26682120  1  -0.541586  0  -0.149907  -0.140963  0  3.212117  0
N  N139  1  0.87524171  0.67578812  0.67298358  1  -1.148055  0  -0.220158  -0.211222  0  3.560194  0
N  N140  1  0.93490474  0.82677414  0.82489863  1  -1.143278  0  -0.222873  -0.217349  0  3.559826  0
N  N141  1  0.43006008  0.17471921  0.17380221  1  -1.168932  0  -0.223612  -0.217475  0  3.554748  0
N  N142  1  0.37957927  0.32518066  0.32632529  1  -1.161078  0  -0.223023  -0.215966  0  3.554809  0
N  N143  1  0.21953121  0.26394136  0.73277159  1  -0.558151  0  -0.15037  -0.139153  0  3.209083  0
N  N144  1  0.22936443  0.22898266  0.76711348  1  -0.543397  0  -0.150841  -0.141709  0  3.212955  0
N  N145  1  0.58938516  0.23650823  0.76759109  1  -0.552696  0  -0.150638  -0.139709  0  3.212752  0
N  N146  1  0.57956566  0.27146188  0.73325104  1  -0.538827  0  -0.150502  -0.141334  0  3.213664  0
N  N147  1  0.33822265  0.78628053  0.66092617  1  0.459922  0  0.063477  0.514629  0  4.253817  0
O  O148  1  0.52579513  0.45199739  0.54818646  1  -1.259525  0  -0.236728  -0.594075  0  2.357587  0
O  O149  1  0.18581320  0.45773890  0.46258264  1  -1.261482  0  -0.235933  -0.596656  0  2.337924  0
O  O150  1  0.02521615  0.54830170  0.45198612  1  -1.257727  0  -0.236998  -0.594563  0  2.357599  0
O  O151  1  0.18333632  0.44990074  0.54950012  1  -1.255213  0  -0.236976  -0.591702  0  2.342016  0
O  O152  1  0.02354321  0.53875191  0.54002899  1  -1.261179  0  -0.234665  -0.594397  0  2.352239  0
O  O153  1  0.52739682  0.46147932  0.45995777  1  -1.259868  0  -0.235232  -0.595345  0  2.34575  0
O  O154  1  0.35147747  0.52911462  0.49694508  1  -1.399519  0  -0.447775  -0.999819  0  2.232521  0
O  O155  1  0.68189849  0.54268486  0.53765058  1  -1.255467  0  -0.23492  -0.59435  0  2.334807  0
O  O156  1  0.68266671  0.55045555  0.45065568  1  -1.25348  0  -0.237678  -0.5937  0  2.340691  0
O  O157  1  0.85281789  0.47115077  0.50319531  1  -1.414372  0  -0.447898  -1.000405  0  2.230887  0
O  O158  1  0.59065717  0.64045553  0.70768347  1  -1.093219  0  -0.266261  -0.42633  0  2.078408  0
O  O159  1  0.15644121  0.71281965  0.63826014  1  -1.074384  0  -0.251579  -0.406504  0  2.1085  0
O  O160  1  0.22242109  0.86154381  0.79077613  1  -1.096374  0  -0.265027  -0.422242  0  2.078142  0
O  O161  1  0.65071661  0.78998548  0.85878234  1  -1.087015  0  -0.263831  -0.424092  0  2.089562  0
O  O162  1  0.13866742  0.21059597  0.14216710  1  -1.07965  0  -0.266429  -0.426974  0  2.092335  0
O  O163  1  0.72550240  0.14108552  0.20528747  1  -1.079626  0  -0.267138  -0.427017  0  2.089446  0
O  O164  1  0.67155926  0.28949341  0.35783191  1  -1.080583  0  -0.265641  -0.426136  0  2.092125  0
O  O165  1  0.08472783  0.35897891  0.29467350  1  -1.080851  0  -0.267907  -0.427988  0  2.088203  0
O  O166  1  0.28162543  0.03851403  0.04018885  1  -1.261821  0  -0.235483  -0.595702  0  2.347364  0
O  O167  1  0.62624131  0.05003486  0.95042452  1  -1.255967  0  -0.237403  -0.593139  0  2.341437  0
O  O168  1  0.78598380  0.96137368  0.95995527  1  -1.260624  0  -0.234654  -0.593388  0  2.352864  0
O  O169  1  0.62325674  0.04244824  0.03733734  1  -1.260278  0  -0.236097  -0.597393  0  2.338851  0
O  O170  1  0.78393835  0.95173828  0.04802147  1  -1.259943  0  -0.237073  -0.595657  0  2.356995  0
O  O171  1  0.28385024  0.04821827  0.95200555  1  -1.260597  0  -0.236754  -0.594212  0  2.357269  0
O  O172  1  0.45786805  0.97102318  0.00307718  1  -1.441447  0  -0.448009  -1.000443  0  2.23678  0
O  O173  1  0.12652166  0.94942100  0.04919135  1  -1.260031  0  -0.23783  -0.594711  0  2.339281  0
O  O174  1  0.12780421  0.95783119  0.96203914  1  -1.255034  0  -0.235013  -0.593201  0  2.335083  0
O  O175  1  0.95647267  0.02893588  0.99688322  1  -1.411909  0  -0.448188  -1.00049  0  2.23048  0
O  O176  1  0.28567775  0.81579547  0.62872869  1  -0.40357  0  -0.102138  -0.280495  0  1.855114  0
O  O177  1  0.50674050  0.76719238  0.66770032  1  -0.457146  0  -0.119562  -0.322642  0  1.938081  0
