# generated using pymatgen
data_SmH7(C3O4)2
_symmetry_space_group_name_H-M   'P 1'
_cell_length_a   6.19638994
_cell_length_b   10.18011347
_cell_length_c   15.47575282
_cell_angle_alpha   103.30348804
_cell_angle_beta   90.00133950
_cell_angle_gamma   107.72443154
_symmetry_Int_Tables_number   1
_chemical_formula_structural   SmH7(C3O4)2
_chemical_formula_sum   'Sm4 H28 C24 O32'
_cell_volume   902.32801357
_cell_formula_units_Z   4
loop_
 _symmetry_equiv_pos_site_id
 _symmetry_equiv_pos_as_xyz
  1  'x, y, z'
loop_
 _atom_site_type_symbol
 _atom_site_label
 _atom_site_symmetry_multiplicity
 _atom_site_fract_x
 _atom_site_fract_y
 _atom_site_fract_z
 _atom_site_occupancy
 _atom_site_hle17_bader_spin_density
 _atom_site_hle17_ddec_charge
 _atom_site_hle17_ddec_spin_density
 _atom_site_hle17_ddec_sum_bond_order
 _atom_site_hle17_magmom
 _atom_site_hse06_10hf_bader_spin_density
 _atom_site_hse06_10hf_ddec_charge
 _atom_site_hse06_10hf_ddec_spin_density
 _atom_site_hse06_10hf_ddec_sum_bond_order
 _atom_site_hse06_10hf_magmom
 _atom_site_hse06_bader_spin_density
 _atom_site_hse06_ddec_charge
 _atom_site_hse06_ddec_spin_density
 _atom_site_hse06_ddec_sum_bond_order
 _atom_site_hse06_magmom
 _atom_site_pbe_bader_spin_density
 _atom_site_pbe_cm5_charge
 _atom_site_pbe_ddec_charge
 _atom_site_pbe_ddec_spin_density
 _atom_site_pbe_ddec_sum_bond_order
 _atom_site_pbe_magmom
Sm  Sm0  1  0.53329625  0.18582838  0.70314176  1  0  2.273264  0  1.610871  0  0  2.105724  0  2.084144  0  0  2.219619  0  1.91324  0  0  1.517293  2.07165  0  2.116221  0
Sm  Sm1  1  0.34765673  0.81392320  0.79678923  1  0  2.274859  0  1.609321  0  0  2.108075  0  2.082044  0  0  2.221733  0  1.91133  0  0  1.517099  2.072103  0  2.115783  0
Sm  Sm2  1  0.46670214  0.81417269  0.29685917  1  0  2.273256  0  1.61086  0  0  2.105682  0  2.084182  0  0  2.219602  0  1.913227  0  0  1.51729  2.071617  0  2.116252  0
Sm  Sm3  1  0.65234274  0.18607680  0.20321089  1  0  2.274859  0  1.609293  0  0  2.108083  0  2.081987  0  0  2.221729  0  1.911297  0  0  1.517092  2.072099  0  2.115753  0
H  H4  1  0.77438780  0.04910049  0.54467571  1  0  0.455586  0  0.839045  0  0  0.426333  0  0.897969  0  0  0.437673  0  0.881689  0  0  0.30318  0.418648  0  0.909001  0
H  H5  1  0.72553330  0.95088920  0.95519433  1  0  0.455555  0  0.839229  0  0  0.426128  0  0.898484  0  0  0.437499  0  0.882178  0  0  0.303065  0.418445  0  0.909482  0
H  H6  1  0.22561219  0.95090057  0.45532392  1  0  0.455595  0  0.839025  0  0  0.426347  0  0.897942  0  0  0.437687  0  0.88166  0  0  0.303206  0.418663  0  0.908973  0
H  H7  1  0.27446563  0.04910972  0.04480434  1  0  0.455565  0  0.839208  0  0  0.426175  0  0.898422  0  0  0.437521  0  0.882148  0  0  0.303071  0.418496  0  0.909413  0
H  H8  1  0.93933829  0.12371810  0.63792231  1  0  0.446469  0  0.85236  0  0  0.415493  0  0.915117  0  0  0.427008  0  0.898561  0  0  0.302766  0.407282  0  0.92709  0
H  H9  1  0.81589922  0.87620382  0.86196525  1  0  0.445683  0  0.853165  0  0  0.414741  0  0.915873  0  0  0.426235  0  0.899352  0  0  0.302608  0.406538  0  0.927816  0
H  H10  1  0.06066171  0.87628296  0.36207796  1  0  0.446471  0  0.852356  0  0  0.415498  0  0.915107  0  0  0.427011  0  0.898556  0  0  0.302781  0.407287  0  0.92708  0
H  H11  1  0.18410024  0.12379617  0.13803422  1  0  0.445683  0  0.853162  0  0  0.41474  0  0.915871  0  0  0.426235  0  0.89935  0  0  0.302611  0.406536  0  0.927816  0
H  H12  1  0.36750026  0.28832725  0.99286997  1  0  0.136886  0  0.910397  0  0  0.151486  0  0.966143  0  0  0.154007  0  0.964913  0  0  0.119986  0.149711  0  0.967008  0
H  H13  1  0.07885355  0.71168059  0.50703383  1  0  0.137352  0  0.910655  0  0  0.15188  0  0.966176  0  0  0.154404  0  0.964911  0  0  0.120224  0.150142  0  0.966887  0
H  H14  1  0.63249813  0.71167383  0.00713224  1  0  0.136925  0  0.910423  0  0  0.151494  0  0.966163  0  0  0.154015  0  0.96493  0  0  0.120003  0.149721  0  0.967026  0
H  H15  1  0.92114806  0.28832047  0.49296580  1  0  0.13729  0  0.91056  0  0  0.151844  0  0.966106  0  0  0.154369  0  0.96484  0  0  0.120218  0.150105  0  0.966814  0
H  H16  1  0.07916072  0.19766462  0.96012975  1  0  0.155142  0  0.896392  0  0  0.169528  0  0.947549  0  0  0.17314  0  0.945163  0  0  0.12482  0.167037  0  0.949035  0
H  H17  1  0.88131130  0.80229705  0.54006728  1  0  0.156454  0  0.895607  0  0  0.170053  0  0.947553  0  0  0.173583  0  0.945269  0  0  0.125347  0.167581  0  0.948933  0
H  H18  1  0.92083822  0.80233433  0.03987150  1  0  0.155123  0  0.896495  0  0  0.169527  0  0.947587  0  0  0.17314  0  0.945196  0  0  0.124815  0.167036  0  0.949072  0
H  H19  1  0.11868977  0.19770295  0.45993284  1  0  0.156467  0  0.895555  0  0  0.170088  0  0.947518  0  0  0.173616  0  0.945231  0  0  0.125367  0.167616  0  0.948897  0
H  H20  1  0.29565507  0.49860491  0.98731033  1  0  0.134035  0  0.91438  0  0  0.14739  0  0.973255  0  0  0.150449  0  0.971169  0  0  0.112552  0.145509  0  0.974444  0
H  H21  1  0.79721818  0.50112751  0.51255604  1  0  0.133258  0  0.914752  0  0  0.14662  0  0.973878  0  0  0.149534  0  0.971886  0  0  0.112181  0.144569  0  0.975205  0
H  H22  1  0.70434493  0.50139615  0.01268995  1  0  0.134051  0  0.914371  0  0  0.147406  0  0.97325  0  0  0.150466  0  0.971163  0  0  0.112553  0.145525  0  0.974437  0
H  H23  1  0.20278668  0.49887036  0.48744376  1  0  0.133244  0  0.914747  0  0  0.146632  0  0.973861  0  0  0.149544  0  0.97187  0  0  0.112204  0.14458  0  0.975182  0
H  H24  1  0.01671825  0.42290220  0.93685211  1  0  0.149364  0  0.922414  0  0  0.161484  0  0.980582  0  0  0.164947  0  0.9782  0  0  0.120017  0.159316  0  0.981839  0
H  H25  1  0.59399263  0.57681859  0.56302019  1  0  0.149686  0  0.922906  0  0  0.161841  0  0.981005  0  0  0.165248  0  0.978577  0  0  0.120039  0.159582  0  0.982286  0
H  H26  1  0.98327960  0.57709780  0.06314801  1  0  0.149342  0  0.922442  0  0  0.161505  0  0.980555  0  0  0.164968  0  0.978171  0  0  0.120012  0.159337  0  0.981811  0
H  H27  1  0.40601114  0.42318033  0.43697848  1  0  0.149652  0  0.922926  0  0  0.161801  0  0.981056  0  0  0.165206  0  0.978627  0  0  0.120019  0.159541  0  0.982338  0
H  H28  1  0.48081932  0.45382638  0.81831486  1  0  0.399285  0  0.883393  0  0  0.374119  0  0.954115  0  0  0.385371  0  0.942541  0  0  0.30831  0.365517  0  0.963761  0
H  H29  1  0.02709991  0.54589856  0.68162482  1  0  0.397414  0  0.885484  0  0  0.372478  0  0.955744  0  0  0.383743  0  0.944211  0  0  0.308385  0.364357  0  0.964799  0
H  H30  1  0.51917908  0.54617150  0.18168559  1  0  0.399199  0  0.88349  0  0  0.374036  0  0.954212  0  0  0.385287  0  0.942639  0  0  0.308278  0.365435  0  0.963854  0
H  H31  1  0.97290331  0.45410250  0.31837546  1  0  0.397424  0  0.885447  0  0  0.372485  0  0.955709  0  0  0.383751  0  0.944175  0  0  0.308386  0.364365  0  0.964763  0
C  C32  1  0.31057252  0.09302457  0.89767128  1  0  0.760722  0  3.776869  0  0  0.711901  0  4.072722  0  0  0.746004  0  4.069576  0  0  0.23126  0.688691  0  4.078584  0
C  C33  1  0.21762124  0.90669033  0.60236974  1  0  0.759829  0  3.780552  0  0  0.709975  0  4.077812  0  0  0.744081  0  4.074674  0  0  0.229683  0.686573  0  4.08379  0
C  C34  1  0.68942266  0.90697332  0.10232982  1  0  0.760831  0  3.776768  0  0  0.711899  0  4.07274  0  0  0.746  0  4.069597  0  0  0.231184  0.68869  0  4.078599  0
C  C35  1  0.78238360  0.09331074  0.39763054  1  0  0.759877  0  3.780396  0  0  0.709917  0  4.077861  0  0  0.744023  0  4.074724  0  0  0.229643  0.686516  0  4.083838  0
C  C36  1  0.19559840  0.45525240  0.92248646  1  0  -0.356867  0  3.628055  0  0  -0.398131  0  3.870122  0  0  -0.404508  0  3.875113  0  0  -0.159984  -0.393429  0  3.865962  0
C  C37  1  0.74046060  0.54441475  0.57738444  1  0  -0.354917  0  3.629417  0  0  -0.397407  0  3.871651  0  0  -0.403391  0  3.876147  0  0  -0.15935  -0.392682  0  3.867347  0
C  C38  1  0.80439890  0.54474971  0.07751333  1  0  -0.356932  0  3.628095  0  0  -0.398215  0  3.870223  0  0  -0.404589  0  3.875211  0  0  -0.160006  -0.393515  0  3.866063  0
C  C39  1  0.25954156  0.45558418  0.42261488  1  0  -0.354864  0  3.629445  0  0  -0.397394  0  3.871728  0  0  -0.403388  0  3.876252  0  0  -0.159366  -0.392668  0  3.867425  0
C  C40  1  0.07450821  0.24260441  0.79052529  1  0  0.654858  0  3.791416  0  0  0.609772  0  4.084254  0  0  0.642332  0  4.081049  0  0  0.237958  0.587847  0  4.088845  0
C  C41  1  0.83194035  0.75695694  0.70938989  1  0  0.652155  0  3.792355  0  0  0.608967  0  4.081126  0  0  0.641429  0  4.078043  0  0  0.237391  0.586789  0  4.086144  0
C  C42  1  0.92549019  0.75739346  0.20947452  1  0  0.65481  0  3.791499  0  0  0.609797  0  4.084309  0  0  0.642358  0  4.081103  0  0  0.237963  0.587872  0  4.088899  0
C  C43  1  0.16805964  0.24304411  0.29060909  1  0  0.652123  0  3.792499  0  0  0.609008  0  4.081129  0  0  0.641478  0  4.078033  0  0  0.237392  0.586826  0  4.086154  0
C  C44  1  0.23785940  0.57478109  0.87540165  1  0  0.70732  0  3.856543  0  0  0.662676  0  4.157411  0  0  0.694318  0  4.157701  0  0  0.201628  0.640496  0  4.161223  0
C  C45  1  0.66303937  0.42483558  0.62442801  1  0  0.703047  0  3.857154  0  0  0.659167  0  4.157077  0  0  0.690746  0  4.157503  0  0  0.200029  0.636839  0  4.161437  0
C  C46  1  0.76213307  0.42521782  0.12459572  1  0  0.70723  0  3.856573  0  0  0.662621  0  4.15739  0  0  0.694262  0  4.157681  0  0  0.201604  0.640443  0  4.161199  0
C  C47  1  0.33697031  0.57516549  0.37557292  1  0  0.703048  0  3.857045  0  0  0.659168  0  4.156981  0  0  0.690744  0  4.157407  0  0  0.200046  0.636839  0  4.161343  0
C  C48  1  0.25288983  0.32367863  0.87092908  1  0  0.26186  0  3.56479  0  0  0.255885  0  3.816635  0  0  0.26027  0  3.828746  0  0  0.074587  0.252644  0  3.810074  0
C  C49  1  0.92928314  0.67595566  0.62898515  1  0  0.261794  0  3.565491  0  0  0.257916  0  3.81256  0  0  0.262289  0  3.824514  0  0  0.074246  0.254875  0  3.805066  0
C  C50  1  0.74710749  0.67632031  0.12907153  1  0  0.261991  0  3.564654  0  0  0.255802  0  3.816791  0  0  0.260181  0  3.828907  0  0  0.074611  0.252563  0  3.810225  0
C  C51  1  0.07071847  0.32404540  0.37101448  1  0  0.261777  0  3.565607  0  0  0.257926  0  3.812672  0  0  0.262298  0  3.824623  0  0  0.074256  0.254885  0  3.80518  0
C  C52  1  0.24821743  0.22681753  0.93442012  1  0  -0.340077  0  3.582502  0  0  -0.377687  0  3.818182  0  0  -0.383958  0  3.822131  0  0  -0.145483  -0.373143  0  3.815032  0
C  C53  1  0.02125861  0.77301488  0.56560233  1  0  -0.342457  0  3.58357  0  0  -0.379652  0  3.819146  0  0  -0.385839  0  3.822984  0  0  -0.146104  -0.374825  0  3.815281  0
C  C54  1  0.75178042  0.77318248  0.06558065  1  0  -0.340182  0  3.582633  0  0  -0.377635  0  3.818236  0  0  -0.383898  0  3.822172  0  0  -0.145474  -0.373093  0  3.815081  0
C  C55  1  0.97874408  0.22698511  0.43439650  1  0  -0.342331  0  3.583452  0  0  -0.379628  0  3.819236  0  0  -0.385813  0  3.823071  0  0  -0.146092  -0.374802  0  3.815371  0
O  O56  1  0.47609732  0.36499167  0.83814800  1  0  -0.654942  0  2.063413  0  0  -0.607663  0  2.294139  0  0  -0.630801  0  2.280611  0  0  -0.431177  -0.595947  0  2.303448  0
O  O57  1  0.11123494  0.63466684  0.66174276  1  0  -0.653295  0  2.065076  0  0  -0.607261  0  2.295847  0  0  -0.630404  0  2.282311  0  0  -0.431568  -0.595711  0  2.304156  0
O  O58  1  0.52389947  0.63500621  0.16185310  1  0  -0.654857  0  2.06345  0  0  -0.607555  0  2.294261  0  0  -0.630695  0  2.280735  0  0  -0.431157  -0.595839  0  2.303568  0
O  O59  1  0.88876666  0.36533422  0.33825687  1  0  -0.653282  0  2.065049  0  0  -0.607245  0  2.295808  0  0  -0.630387  0  2.282273  0  0  -0.431554  -0.595688  0  2.304111  0
O  O60  1  0.25726939  0.99151510  0.93648051  1  0  -0.660607  0  1.942959  0  0  -0.602814  0  2.164302  0  0  -0.63259  0  2.153085  0  0  -0.324225  -0.585998  0  2.171987  0
O  O61  1  0.26557374  0.00838226  0.56369803  1  0  -0.660401  0  1.945636  0  0  -0.601703  0  2.167066  0  0  -0.631525  0  2.155836  0  0  -0.323844  -0.584877  0  2.173774  0
O  O62  1  0.74273007  0.00848490  0.06351961  1  0  -0.660703  0  1.942855  0  0  -0.602847  0  2.164215  0  0  -0.632635  0  2.153003  0  0  -0.324227  -0.586025  0  2.171896  0
O  O63  1  0.73443269  0.99162201  0.43630402  1  0  -0.660464  0  1.945675  0  0  -0.601666  0  2.167102  0  0  -0.631485  0  2.155867  0  0  -0.323815  -0.584839  0  2.173808  0
O  O64  1  0.14917709  0.18759840  0.71861099  1  0  -0.716945  0  2.107192  0  0  -0.657812  0  2.3467  0  0  -0.691567  0  2.334731  0  0  -0.378191  -0.639881  0  2.35279  0
O  O65  1  0.96183808  0.81223873  0.78125547  1  0  -0.715149  0  2.107579  0  0  -0.656803  0  2.346112  0  0  -0.690533  0  2.334197  0  0  -0.37751  -0.638959  0  2.352673  0
O  O66  1  0.85082184  0.81240054  0.28138898  1  0  -0.716932  0  2.107169  0  0  -0.657806  0  2.346636  0  0  -0.691562  0  2.334664  0  0  -0.378181  -0.639873  0  2.352728  0
O  O67  1  0.03816299  0.18776126  0.21874271  1  0  -0.715136  0  2.107676  0  0  -0.656815  0  2.346185  0  0  -0.69055  0  2.334263  0  0  -0.3775  -0.638963  0  2.352742  0
O  O68  1  0.86960815  0.23413227  0.80043702  1  0  -0.660375  0  2.004158  0  0  -0.613291  0  2.252783  0  0  -0.645103  0  2.239393  0  0  -0.367312  -0.597092  0  2.25919  0
O  O69  1  0.63542294  0.76528734  0.69951913  1  0  -0.659594  0  2.004641  0  0  -0.613452  0  2.252235  0  0  -0.645241  0  2.238901  0  0  -0.367112  -0.59721  0  2.258971  0
O  O70  1  0.13039026  0.76586561  0.19956408  1  0  -0.660386  0  2.004244  0  0  -0.613308  0  2.252832  0  0  -0.645124  0  2.23944  0  0  -0.367336  -0.597118  0  2.259259  0
O  O71  1  0.36457652  0.23471266  0.30048034  1  0  -0.659597  0  2.004672  0  0  -0.613486  0  2.252236  0  0  -0.645275  0  2.238899  0  0  -0.367122  -0.597237  0  2.258975  0
O  O72  1  0.78322974  0.09845808  0.60901674  1  0  -0.968653  0  1.84  0  0  -0.919134  0  2.044224  0  0  -0.948496  0  2.003562  0  0  -0.673783  -0.905079  0  2.067826  0
O  O73  1  0.68507236  0.90152397  0.89084233  1  0  -0.968168  0  1.840196  0  0  -0.918538  0  2.044503  0  0  -0.94791  0  2.003784  0  0  -0.673625  -0.904155  0  2.067849  0
O  O74  1  0.21677079  0.90154405  0.39098369  1  0  -0.968655  0  1.83997  0  0  -0.91913  0  2.044177  0  0  -0.9485  0  2.003529  0  0  -0.673813  -0.905074  0  2.067779  0
O  O75  1  0.31492657  0.09847496  0.10915698  1  0  -0.968179  0  1.840141  0  0  -0.918593  0  2.044402  0  0  -0.947925  0  2.003697  0  0  -0.673636  -0.904211  0  2.067739  0
O  O76  1  0.36765584  0.57632128  0.80985509  1  0  -0.712009  0  1.953867  0  0  -0.655424  0  2.181205  0  0  -0.687042  0  2.17072  0  0  -0.368757  -0.636702  0  2.187333  0
O  O77  1  0.79105877  0.42334941  0.69007543  1  0  -0.709763  0  1.952298  0  0  -0.65301  0  2.178908  0  0  -0.684784  0  2.168603  0  0  -0.368334  -0.635583  0  2.185256  0
O  O78  1  0.63234365  0.42367553  0.19014456  1  0  -0.711892  0  1.953873  0  0  -0.655314  0  2.181192  0  0  -0.686934  0  2.17071  0  0  -0.368716  -0.636591  0  2.187318  0
O  O79  1  0.20894554  0.57665060  0.30992599  1  0  -0.70986  0  1.952251  0  0  -0.653091  0  2.178864  0  0  -0.684867  0  2.168557  0  0  -0.368396  -0.635665  0  2.185218  0
O  O80  1  0.41650682  0.07999483  0.82692615  1  0  -0.797691  0  2.158987  0  0  -0.737303  0  2.422243  0  0  -0.778277  0  2.411616  0  0  -0.433442  -0.718742  0  2.429407  0
O  O81  1  0.33701226  0.91952761  0.67295548  1  0  -0.796371  0  2.161454  0  0  -0.735649  0  2.425235  0  0  -0.776649  0  2.414606  0  0  -0.432755  -0.71742  0  2.431942  0
O  O82  1  0.58349049  0.92000411  0.17307382  1  0  -0.797674  0  2.158986  0  0  -0.737257  0  2.422274  0  0  -0.778235  0  2.411648  0  0  -0.433383  -0.718699  0  2.429443  0
O  O83  1  0.66298773  0.08047346  0.32704480  1  0  -0.796423  0  2.161296  0  0  -0.735653  0  2.425116  0  0  -0.776654  0  2.414486  0  0  -0.432764  -0.717423  0  2.431826  0
O  O84  1  0.15282946  0.67404677  0.90189773  1  0  -0.66836  0  1.901074  0  0  -0.624813  0  2.132286  0  0  -0.654849  0  2.122274  0  0  -0.371672  -0.60905  0  2.139136  0
O  O85  1  0.47882498  0.32552380  0.59781605  1  0  -0.665223  0  1.90111  0  0  -0.622099  0  2.132368  0  0  -0.652204  0  2.122448  0  0  -0.370446  -0.606281  0  2.138181  0
O  O86  1  0.84716785  0.32595214  0.09809900  1  0  -0.66834  0  1.901004  0  0  -0.624802  0  2.132194  0  0  -0.654838  0  2.122184  0  0  -0.371648  -0.609036  0  2.139042  0
O  O87  1  0.52117771  0.67447619  0.40218342  1  0  -0.665156  0  1.901078  0  0  -0.62203  0  2.13234  0  0  -0.65213  0  2.122411  0  0  -0.370401  -0.606211  0  2.138152  0
