# generated using pymatgen
data_CsH3C2(N3O)2
_symmetry_space_group_name_H-M   'P 1'
_cell_length_a   6.40824619
_cell_length_b   8.31471242
_cell_length_c   13.70617021
_cell_angle_alpha   90.00009411
_cell_angle_beta   89.99973904
_cell_angle_gamma   98.83845697
_symmetry_Int_Tables_number   1
_chemical_formula_structural   CsH3C2(N3O)2
_chemical_formula_sum   'Cs4 H12 C8 N24 O8'
_cell_volume   721.63009603
_cell_formula_units_Z   4
loop_
 _symmetry_equiv_pos_site_id
 _symmetry_equiv_pos_as_xyz
  1  'x, y, z'
loop_
 _atom_site_type_symbol
 _atom_site_label
 _atom_site_symmetry_multiplicity
 _atom_site_fract_x
 _atom_site_fract_y
 _atom_site_fract_z
 _atom_site_occupancy
 _atom_site_hle17_bader_spin_density
 _atom_site_hle17_ddec_charge
 _atom_site_hle17_ddec_spin_density
 _atom_site_hle17_ddec_sum_bond_order
 _atom_site_hle17_magmom
 _atom_site_hse06_10hf_bader_spin_density
 _atom_site_hse06_10hf_ddec_charge
 _atom_site_hse06_10hf_ddec_spin_density
 _atom_site_hse06_10hf_ddec_sum_bond_order
 _atom_site_hse06_10hf_magmom
 _atom_site_hse06_bader_spin_density
 _atom_site_hse06_ddec_charge
 _atom_site_hse06_ddec_spin_density
 _atom_site_hse06_ddec_sum_bond_order
 _atom_site_hse06_magmom
 _atom_site_pbe_bader_spin_density
 _atom_site_pbe_cm5_charge
 _atom_site_pbe_ddec_charge
 _atom_site_pbe_ddec_spin_density
 _atom_site_pbe_ddec_sum_bond_order
 _atom_site_pbe_magmom
Cs  Cs0  1  0.85510237  0.59300372  0.18662774  1  0  0.911427  0  0.59344  0  0  0.828478  0  0.856352  0  0  0.846114  0  0.832712  0  0  0.98754  0.815473  0  0.873251  0
Cs  Cs1  1  0.64489690  0.90699690  0.68662848  1  0  0.91143  0  0.593427  0  0  0.828461  0  0.856365  0  0  0.846098  0  0.832725  0  0  0.987542  0.815455  0  0.873259  0
Cs  Cs2  1  0.14489753  0.40699580  0.81337168  1  0  0.91143  0  0.59344  0  0  0.828481  0  0.85635  0  0  0.846118  0  0.83271  0  0  0.987543  0.815482  0  0.873246  0
Cs  Cs3  1  0.35510324  0.09300384  0.31337167  1  0  0.91142  0  0.593436  0  0  0.828456  0  0.856368  0  0  0.846094  0  0.832727  0  0  0.987536  0.815449  0  0.873264  0
H  H4  1  0.72573727  0.03126949  0.15336885  1  0  0.116515  0  0.959151  0  0  0.134228  0  1.026511  0  0  0.134995  0  1.025495  0  0  0.117212  0.133765  0  1.026788  0
H  H5  1  0.77426231  0.46872915  0.65336938  1  0  0.116513  0  0.959131  0  0  0.134228  0  1.026486  0  0  0.134995  0  1.02547  0  0  0.117209  0.133768  0  1.026756  0
H  H6  1  0.27426237  0.96872881  0.84663057  1  0  0.116526  0  0.959163  0  0  0.134239  0  1.026511  0  0  0.135007  0  1.025494  0  0  0.117217  0.133778  0  1.02679  0
H  H7  1  0.22573628  0.53127159  0.34663077  1  0  0.116515  0  0.95913  0  0  0.134221  0  1.026492  0  0  0.134988  0  1.025475  0  0  0.117204  0.133758  0  1.026773  0
H  H8  1  0.90239225  0.21973335  0.14912760  1  0  0.104265  0  0.96327  0  0  0.119306  0  1.037255  0  0  0.120466  0  1.035405  0  0  0.114707  0.118487  0  1.038214  0
H  H9  1  0.59760606  0.28026650  0.64912832  1  0  0.104322  0  0.963234  0  0  0.119329  0  1.037244  0  0  0.120489  0  1.035393  0  0  0.114709  0.118512  0  1.038204  0
H  H10  1  0.09760895  0.78026494  0.85087109  1  0  0.104326  0  0.96323  0  0  0.119329  0  1.037241  0  0  0.120489  0  1.035389  0  0  0.114697  0.118512  0  1.038202  0
H  H11  1  0.40239252  0.71973424  0.35087183  1  0  0.104321  0  0.96324  0  0  0.119324  0  1.03725  0  0  0.120484  0  1.0354  0  0  0.114703  0.118506  0  1.038211  0
H  H12  1  0.96100309  0.04723741  0.08224955  1  0  0.117436  0  0.966902  0  0  0.128195  0  1.044876  0  0  0.130594  0  1.041704  0  0  0.12031  0.126494  0  1.046845  0
H  H13  1  0.53899585  0.45276234  0.58225056  1  0  0.117439  0  0.966917  0  0  0.128199  0  1.044881  0  0  0.130598  0  1.041708  0  0  0.120322  0.126501  0  1.046853  0
H  H14  1  0.03899475  0.95275968  0.91774914  1  0  0.117459  0  0.966895  0  0  0.12822  0  1.044853  0  0  0.130619  0  1.04168  0  0  0.120333  0.126521  0  1.046824  0
H  H15  1  0.46100429  0.54723840  0.41774886  1  0  0.117455  0  0.966906  0  0  0.1282  0  1.044876  0  0  0.130599  0  1.041705  0  0  0.120325  0.126512  0  1.046836  0
C  C16  1  0.55404613  0.24056274  0.01843721  1  0  0.418136  0  3.816845  0  0  0.367936  0  4.110155  0  0  0.395577  0  4.119515  0  0  0.32749  0.353285  0  4.104108  0
C  C17  1  0.94595341  0.25943690  0.51843570  1  0  0.418122  0  3.81681  0  0  0.367928  0  4.110122  0  0  0.395574  0  4.119481  0  0  0.327475  0.353291  0  4.104066  0
C  C18  1  0.44595245  0.75943800  0.98156367  1  0  0.418164  0  3.816792  0  0  0.367988  0  4.110084  0  0  0.395641  0  4.119443  0  0  0.327506  0.353342  0  4.10403  0
C  C19  1  0.05404649  0.74056262  0.48156445  1  0  0.418109  0  3.816808  0  0  0.367911  0  4.110125  0  0  0.395555  0  4.119484  0  0  0.32748  0.353268  0  4.104068  0
C  C20  1  0.83468644  0.11211652  0.10713194  1  0  -0.182905  0  3.615387  0  0  -0.296752  0  3.859046  0  0  -0.284131  0  3.870032  0  0  -0.121768  -0.300917  0  3.85484  0
C  C21  1  0.66531202  0.38788205  0.60713188  1  0  -0.182972  0  3.615428  0  0  -0.296794  0  3.859105  0  0  -0.284166  0  3.870093  0  0  -0.121783  -0.300962  0  3.854903  0
C  C22  1  0.16531321  0.88788178  0.89286748  1  0  -0.182979  0  3.615434  0  0  -0.296773  0  3.859082  0  0  -0.284141  0  3.870071  0  0  -0.121773  -0.300946  0  3.854883  0
C  C23  1  0.33468656  0.61211869  0.39286754  1  0  -0.182994  0  3.615425  0  0  -0.296783  0  3.8591  0  0  -0.284159  0  3.870088  0  0  -0.121777  -0.300959  0  3.85489  0
N  N24  1  0.48213215  0.28879622  0.10553458  1  0  -0.504616  0  2.943688  0  0  -0.511075  0  3.240451  0  0  -0.527377  0  3.243536  0  0  -0.347359  -0.499437  0  3.236402  0
N  N25  1  0.01786721  0.21120188  0.60553394  1  0  -0.504627  0  2.943673  0  0  -0.511079  0  3.240454  0  0  -0.527378  0  3.243534  0  0  -0.347356  -0.499449  0  3.236409  0
N  N26  1  0.51786725  0.71120087  0.89446557  1  0  -0.504698  0  2.94372  0  0  -0.511172  0  3.240493  0  0  -0.527473  0  3.243573  0  0  -0.347393  -0.49954  0  3.236452  0
N  N27  1  0.98213268  0.78879764  0.39446621  1  0  -0.504594  0  2.943576  0  0  -0.511013  0  3.240386  0  0  -0.527312  0  3.243467  0  0  -0.347344  -0.499383  0  3.236339  0
N  N28  1  0.50102760  0.25239905  0.92382586  1  0  -0.35535  0  2.946589  0  0  -0.33685  0  3.249651  0  0  -0.348572  0  3.256802  0  0  -0.305848  -0.328643  0  3.243124  0
N  N29  1  0.99896944  0.24760002  0.42382496  1  0  -0.355299  0  2.946552  0  0  -0.336803  0  3.24961  0  0  -0.348525  0  3.25676  0  0  -0.305813  -0.328599  0  3.243081  0
N  N30  1  0.49897074  0.74760048  0.07617429  1  0  -0.355277  0  2.946516  0  0  -0.336772  0  3.249555  0  0  -0.348494  0  3.256702  0  0  -0.3058  -0.32857  0  3.24303  0
N  N31  1  0.00103045  0.75239950  0.57617518  1  0  -0.355282  0  2.946545  0  0  -0.336782  0  3.249602  0  0  -0.348505  0  3.256753  0  0  -0.305811  -0.328573  0  3.243066  0
N  N32  1  0.77472532  0.12203525  0.93052467  1  0  -0.147439  0  2.95411  0  0  -0.154127  0  3.236117  0  0  -0.145298  0  3.252686  0  0  -0.127943  -0.155763  0  3.228085  0
N  N33  1  0.72527502  0.37796503  0.43052522  1  0  -0.14735  0  2.954157  0  0  -0.154038  0  3.236164  0  0  -0.145202  0  3.252735  0  0  -0.127886  -0.155675  0  3.228136  0
N  N34  1  0.22527482  0.87796549  0.06947475  1  0  -0.147379  0  2.954132  0  0  -0.154064  0  3.236157  0  0  -0.145221  0  3.252731  0  0  -0.127908  -0.155708  0  3.228125  0
N  N35  1  0.27472488  0.62203449  0.56947565  1  0  -0.147324  0  2.954141  0  0  -0.153996  0  3.236134  0  0  -0.145163  0  3.252701  0  0  -0.127879  -0.155632  0  3.228105  0
N  N36  1  0.31015490  0.36042911  0.10652560  1  0  0.622486  0  4.088581  0  0  0.676931  0  4.343329  0  0  0.701313  0  4.353878  0  0  0.07073  0.660634  0  4.335967  0
N  N37  1  0.18984520  0.13957264  0.60652305  1  0  0.622527  0  4.088379  0  0  0.676931  0  4.343187  0  0  0.701309  0  4.353737  0  0  0.07074  0.660633  0  4.335827  0
N  N38  1  0.68984549  0.63957284  0.89347309  1  0  0.622558  0  4.088578  0  0  0.676999  0  4.343335  0  0  0.701381  0  4.353884  0  0  0.070726  0.660701  0  4.335979  0
N  N39  1  0.81015494  0.86042809  0.39347783  1  0  0.622542  0  4.088246  0  0  0.676852  0  4.343188  0  0  0.701232  0  4.353737  0  0  0.070723  0.660556  0  4.335823  0
N  N40  1  0.72380448  0.15941882  0.02214189  1  0  0.013015  0  3.501715  0  0  0.131239  0  3.690029  0  0  0.090713  0  3.748657  0  0  -0.125576  0.144056  0  3.670097  0
N  N41  1  0.77619322  0.34057962  0.52214228  1  0  0.012984  0  3.501721  0  0  0.131215  0  3.690005  0  0  0.090672  0  3.748655  0  0  -0.125568  0.144023  0  3.670083  0
N  N42  1  0.27619361  0.84057948  0.97785826  1  0  0.012957  0  3.501764  0  0  0.131149  0  3.690092  0  0  0.090587  0  3.748761  0  0  -0.125589  0.143974  0  3.670155  0
N  N43  1  0.22380667  0.65941990  0.47785787  1  0  0.01295  0  3.501653  0  0  0.131165  0  3.68996  0  0  0.09063  0  3.748596  0  0  -0.12559  0.143973  0  3.670039  0
N  N44  1  0.64066735  0.17828011  0.87285738  1  0  -0.114567  0  3.0624  0  0  -0.108396  0  3.386595  0  0  -0.105904  0  3.392658  0  0  -0.160496  -0.109004  0  3.380443  0
N  N45  1  0.85933223  0.32172130  0.37285686  1  0  -0.114636  0  3.062452  0  0  -0.108465  0  3.386654  0  0  -0.105972  0  3.392715  0  0  -0.160568  -0.109069  0  3.380494  0
N  N46  1  0.35933304  0.82172184  0.12714277  1  0  -0.114629  0  3.0624  0  0  -0.10846  0  3.386599  0  0  -0.105969  0  3.392659  0  0  -0.16056  -0.109063  0  3.380443  0
N  N47  1  0.14066767  0.67827821  0.62714328  1  0  -0.11467  0  3.062484  0  0  -0.108503  0  3.386683  0  0  -0.10601  0  3.392745  0  0  -0.160582  -0.109117  0  3.38053  0
O  O48  1  0.24927370  0.39692948  0.19094240  1  0  -0.524748  0  1.774977  0  0  -0.513593  0  1.99423  0  0  -0.529387  0  1.990152  0  0  -0.287383  -0.502455  0  1.996913  0
O  O49  1  0.25072561  0.10307240  0.69094407  1  0  -0.524803  0  1.774679  0  0  -0.513636  0  1.993958  0  0  -0.529434  0  1.989881  0  0  -0.287429  -0.502499  0  1.996642  0
O  O50  1  0.75072514  0.60307247  0.80905702  1  0  -0.524787  0  1.775067  0  0  -0.513623  0  1.994326  0  0  -0.529418  0  1.990248  0  0  -0.287378  -0.502488  0  1.997014  0
O  O51  1  0.74927454  0.89692833  0.30905608  1  0  -0.524818  0  1.774657  0  0  -0.513625  0  1.993973  0  0  -0.529422  0  1.989895  0  0  -0.287432  -0.502489  0  1.996655  0
O  O52  1  0.20968556  0.39004106  0.03130120  1  0  -0.473662  0  1.779074  0  0  -0.465518  0  1.997483  0  0  -0.479102  0  1.993508  0  0  -0.261632  -0.455972  0  2.000091  0
O  O53  1  0.29031550  0.10996179  0.53130352  1  0  -0.473634  0  1.779199  0  0  -0.465473  0  1.997626  0  0  -0.479054  0  1.993652  0  0  -0.261573  -0.455923  0  2.00023  0
O  O54  1  0.79031795  0.60996088  0.96869822  1  0  -0.47367  0  1.778984  0  0  -0.465534  0  1.9974  0  0  -0.479119  0  1.993423  0  0  -0.26162  -0.455983  0  2.000006  0
O  O55  1  0.70968670  0.89004137  0.46869663  1  0  -0.473643  0  1.779203  0  0  -0.465441  0  1.997661  0  0  -0.479025  0  1.993686  0  0  -0.261561  -0.455891  0  2.000258  0
