# generated using pymatgen
data_Cu2H7C9Br2N3
_symmetry_space_group_name_H-M   'P 1'
_cell_length_a   8.70504115
_cell_length_b   8.31782983
_cell_length_c   8.54315607
_cell_angle_alpha   73.26450970
_cell_angle_beta   73.15611110
_cell_angle_gamma   74.24461306
_symmetry_Int_Tables_number   1
_chemical_formula_structural   Cu2H7C9Br2N3
_chemical_formula_sum   'Cu4 H14 C18 Br4 N6'
_cell_volume   554.90268327
_cell_formula_units_Z   2
loop_
 _symmetry_equiv_pos_site_id
 _symmetry_equiv_pos_as_xyz
  1  'x, y, z'
loop_
 _atom_site_type_symbol
 _atom_site_label
 _atom_site_symmetry_multiplicity
 _atom_site_fract_x
 _atom_site_fract_y
 _atom_site_fract_z
 _atom_site_occupancy
 _atom_site_hle17_bader_spin_density
 _atom_site_hle17_ddec_charge
 _atom_site_hle17_ddec_spin_density
 _atom_site_hle17_ddec_sum_bond_order
 _atom_site_hle17_magmom
 _atom_site_hse06_10hf_bader_spin_density
 _atom_site_hse06_10hf_ddec_charge
 _atom_site_hse06_10hf_ddec_spin_density
 _atom_site_hse06_10hf_ddec_sum_bond_order
 _atom_site_hse06_10hf_magmom
 _atom_site_hse06_bader_spin_density
 _atom_site_hse06_ddec_charge
 _atom_site_hse06_ddec_spin_density
 _atom_site_hse06_ddec_sum_bond_order
 _atom_site_hse06_magmom
 _atom_site_pbe_bader_spin_density
 _atom_site_pbe_cm5_charge
 _atom_site_pbe_ddec_charge
 _atom_site_pbe_ddec_spin_density
 _atom_site_pbe_ddec_sum_bond_order
 _atom_site_pbe_magmom
Cu  Cu0  1  0.64108435  0.21868625  0.71510957  1  0  0.399843  0  2.01313  0  0  0.295319  0  2.508246  0  0  0.289221  0  2.468597  0  0  0.397499  0.30271  0  2.531168  0
Cu  Cu1  1  0.35889824  0.78131671  0.28487246  1  0  0.399744  0  2.013153  0  0  0.2952  0  2.508283  0  0  0.2891  0  2.468622  0  0  0.397458  0.302609  0  2.53121  0
Cu  Cu2  1  0.38329283  0.58262569  0.91382617  1  0  0.375389  0  1.985221  0  0  0.274918  0  2.479044  0  0  0.289585  0  2.421675  0  0  0.31361  0.26891  0  2.514984  0
Cu  Cu3  1  0.61669163  0.41738476  0.08617253  1  0  0.37534  0  1.985423  0  0  0.274925  0  2.479265  0  0  0.289606  0  2.421892  0  0  0.313597  0.268947  0  2.515147  0
H  H4  1  0.46488657  0.90483305  0.90739876  1  0  0.064436  0  0.947438  0  0  0.064736  0  1.027651  0  0  0.070578  0  1.019341  0  0  0.113118  0.060116  0  1.034094  0
H  H5  1  0.53511743  0.09517551  0.09259393  1  0  0.064378  0  0.947553  0  0  0.064659  0  1.027786  0  0  0.070505  0  1.019467  0  0  0.113114  0.060039  0  1.034227  0
H  H6  1  0.76252584  0.79013713  0.35990392  1  0  0.122969  0  0.964803  0  0  0.132115  0  1.024975  0  0  0.136751  0  1.023354  0  0  0.102545  0.12867  0  1.02654  0
H  H7  1  0.23748585  0.20985276  0.64009894  1  0  0.122907  0  0.964889  0  0  0.132057  0  1.02506  0  0  0.136692  0  1.02344  0  0  0.102511  0.128613  0  1.026623  0
H  H8  1  0.59021084  0.59189177  0.56912542  1  0  0.077871  0  0.950691  0  0  0.077105  0  1.036811  0  0  0.084129  0  1.025631  0  0  0.106241  0.071644  0  1.045197  0
H  H9  1  0.40979722  0.40809817  0.43087958  1  0  0.077906  0  0.950815  0  0  0.07715  0  1.036908  0  0  0.084175  0  1.025728  0  0  0.106277  0.071689  0  1.045299  0
H  H10  1  0.86988204  0.44966258  0.44903909  1  0  0.071437  0  0.947444  0  0  0.080641  0  1.013804  0  0  0.083106  0  1.01146  0  0  0.105868  0.078721  0  1.015692  0
H  H11  1  0.13010707  0.55034117  0.55096215  1  0  0.071439  0  0.947524  0  0  0.080669  0  1.013841  0  0  0.083134  0  1.011499  0  0  0.105873  0.078741  0  1.015748  0
H  H12  1  0.07491662  0.41932922  0.18101489  1  0  0.106667  0  0.982662  0  0  0.11329  0  1.049633  0  0  0.11691  0  1.048612  0  0  0.088222  0.110443  0  1.050924  0
H  H13  1  0.92506517  0.58067446  0.81899302  1  0  0.106683  0  0.982674  0  0  0.113313  0  1.049614  0  0  0.116932  0  1.048597  0  0  0.088286  0.110468  0  1.050902  0
H  H14  1  0.10977599  0.15975268  0.06855766  1  0  0.09661  0  0.953605  0  0  0.103284  0  1.021188  0  0  0.107042  0  1.017945  0  0  0.09314  0.100441  0  1.023671  0
H  H15  1  0.89022670  0.84026339  0.93143611  1  0  0.096538  0  0.953661  0  0  0.103232  0  1.021231  0  0  0.10699  0  1.017988  0  0  0.093149  0.100391  0  1.023709  0
H  H16  1  0.94388642  0.94004970  0.23280469  1  0  0.108142  0  0.979084  0  0  0.118769  0  1.039536  0  0  0.122262  0  1.03799  0  0  0.094423  0.116209  0  1.040841  0
H  H17  1  0.05613824  0.05994846  0.76719527  1  0  0.108227  0  0.979174  0  0  0.118849  0  1.039609  0  0  0.122342  0  1.038063  0  0  0.094509  0.116286  0  1.04092  0
C  C18  1  0.53556801  0.87811814  0.78608523  1  0  0.304133  0  3.674399  0  0  0.254121  0  3.935831  0  0  0.268908  0  3.944091  0  0  0.171526  0.244103  0  3.931561  0
C  C19  1  0.46443881  0.12188769  0.21390846  1  0  0.304124  0  3.674612  0  0  0.25418  0  3.936085  0  0  0.268982  0  3.944327  0  0  0.171465  0.244162  0  3.931819  0
C  C20  1  0.71407492  0.95780954  0.53127081  1  0  0.219296  0  3.717568  0  0  0.209671  0  3.956397  0  0  0.225355  0  3.970034  0  0  0.120429  0.19898  0  3.947699  0
C  C21  1  0.28592409  0.04219275  0.46872574  1  0  0.219145  0  3.717674  0  0  0.209564  0  3.956631  0  0  0.225268  0  3.970244  0  0  0.120299  0.198874  0  3.947938  0
C  C22  1  0.70091870  0.81570034  0.48338920  1  0  -0.185093  0  3.683697  0  0  -0.200502  0  3.930716  0  0  -0.21262  0  3.946924  0  0  -0.083033  -0.193459  0  3.92124  0
C  C23  1  0.29908895  0.18429224  0.51661417  1  0  -0.185027  0  3.683806  0  0  -0.200405  0  3.930794  0  0  -0.212524  0  3.946995  0  0  -0.082972  -0.19336  0  3.921314  0
C  C24  1  0.60442983  0.70613704  0.59732080  1  0  0.173079  0  3.66053  0  0  0.132421  0  3.925248  0  0  0.149762  0  3.930508  0  0  0.048419  0.120665  0  3.922888  0
C  C25  1  0.39557432  0.29386194  0.40268330  1  0  0.172949  0  3.660526  0  0  0.132339  0  3.925282  0  0  0.149684  0  3.930543  0  0  0.048358  0.120581  0  3.922924  0
C  C26  1  0.88785855  0.33924519  0.39643277  1  0  0.127564  0  3.711479  0  0  0.096413  0  3.967223  0  0  0.103016  0  3.98143  0  0  0.035269  0.092106  0  3.958294  0
C  C27  1  0.11213851  0.66074455  0.60358343  1  0  0.127516  0  3.711443  0  0  0.096344  0  3.96719  0  0  0.102939  0  3.981395  0  0  0.035161  0.092043  0  3.958251  0
C  C28  1  0.00279001  0.32108249  0.24713994  1  0  -0.098706  0  3.698775  0  0  -0.112724  0  3.948322  0  0  -0.116394  0  3.965359  0  0  -0.08816  -0.111323  0  3.938242  0
C  C29  1  0.99720865  0.67891245  0.75287237  1  0  -0.098708  0  3.698896  0  0  -0.112719  0  3.948449  0  0  -0.116387  0  3.965484  0  0  -0.088141  -0.111318  0  3.938364  0
C  C30  1  0.02125416  0.17747477  0.18509285  1  0  0.000318  0  3.718347  0  0  -0.021906  0  3.979313  0  0  -0.015914  0  3.990461  0  0  -0.078363  -0.026048  0  3.972709  0
C  C31  1  0.97874237  0.82253525  0.81490270  1  0  0.000407  0  3.71831  0  0  -0.021852  0  3.979302  0  0  -0.015856  0  3.990446  0  0  -0.0784  -0.025988  0  3.972683  0
C  C32  1  0.92646903  0.05605486  0.27610121  1  0  -0.122126  0  3.689753  0  0  -0.144879  0  3.942152  0  0  -0.147944  0  3.957926  0  0  -0.083193  -0.143463  0  3.932453  0
C  C33  1  0.07354090  0.94394501  0.72390349  1  0  -0.122289  0  3.689709  0  0  -0.144924  0  3.942186  0  0  -0.147988  0  3.957972  0  0  -0.083258  -0.143503  0  3.932481  0
C  C34  1  0.81393450  0.08234602  0.42534799  1  0  0.151206  0  3.753491  0  0  0.1508  0  3.992748  0  0  0.153089  0  4.011756  0  0  0.102009  0.149167  0  3.980514  0
C  C35  1  0.18607048  0.91765572  0.57465177  1  0  0.151414  0  3.753271  0  0  0.150677  0  3.992989  0  0  0.152933  0  4.012036  0  0  0.101948  0.149044  0  3.980755  0
Br  Br36  1  0.79981409  0.30609019  0.85788679  1  0  -0.497913  0  1.442861  0  0  -0.421156  0  1.851126  0  0  -0.444531  0  1.815607  0  0  -0.246084  -0.4041  0  1.873344  0
Br  Br37  1  0.20016622  0.69390091  0.14212304  1  0  -0.49786  0  1.443006  0  0  -0.421095  0  1.851317  0  0  -0.444465  0  1.815781  0  0  -0.246052  -0.404035  0  1.873552  0
Br  Br38  1  0.36024912  0.33918644  0.83657463  1  0  -0.490752  0  1.460258  0  0  -0.409922  0  1.875315  0  0  -0.434711  0  1.839634  0  0  -0.236852  -0.39193  0  1.897656  0
Br  Br39  1  0.63974440  0.66080614  0.16342196  1  0  -0.490704  0  1.460304  0  0  -0.409879  0  1.875381  0  0  -0.434674  0  1.839701  0  0  -0.236838  -0.391894  0  1.897725  0
N  N40  1  0.52068718  0.73708751  0.74993022  1  0  -0.330515  0  3.372521  0  0  -0.249639  0  3.664345  0  0  -0.265714  0  3.66817  0  0  -0.368888  -0.240722  0  3.66271  0
N  N41  1  0.47932004  0.26290763  0.25007272  1  0  -0.330373  0  3.37251  0  0  -0.249656  0  3.664427  0  0  -0.265751  0  3.668287  0  0  -0.36885  -0.240739  0  3.662794  0
N  N42  1  0.63044354  0.98692423  0.68594929  1  0  -0.35441  0  3.291201  0  0  -0.287043  0  3.581143  0  0  -0.298643  0  3.58482  0  0  -0.35018  -0.280259  0  3.578751  0
N  N43  1  0.36956414  0.01307649  0.31404528  1  0  -0.354272  0  3.291163  0  0  -0.286886  0  3.58105  0  0  -0.298485  0  3.58472  0  0  -0.350008  -0.280106  0  3.578672  0
N  N44  1  0.79228271  0.22534114  0.48343640  1  0  -0.319459  0  3.328269  0  0  -0.255838  0  3.620997  0  0  -0.263264  0  3.62828  0  0  -0.357574  -0.251615  0  3.615938  0
N  N45  1  0.20770316  0.77466798  0.51656220  1  0  -0.319472  0  3.327798  0  0  -0.255735  0  3.620587  0  0  -0.263134  0  3.627854  0  0  -0.357477  -0.251513  0  3.615541  0
