# generated using pymatgen
data_CdH7C8S2N3O
_symmetry_space_group_name_H-M   'P 1'
_cell_length_a   7.43833019
_cell_length_b   7.71297947
_cell_length_c   19.84068638
_cell_angle_alpha   89.99990078
_cell_angle_beta   99.34589615
_cell_angle_gamma   89.99990555
_symmetry_Int_Tables_number   1
_chemical_formula_structural   CdH7C8S2N3O
_chemical_formula_sum   'Cd4 H28 C32 S8 N12 O4'
_cell_volume   1123.18390121
_cell_formula_units_Z   4
loop_
 _symmetry_equiv_pos_site_id
 _symmetry_equiv_pos_as_xyz
  1  'x, y, z'
loop_
 _atom_site_type_symbol
 _atom_site_label
 _atom_site_symmetry_multiplicity
 _atom_site_fract_x
 _atom_site_fract_y
 _atom_site_fract_z
 _atom_site_occupancy
 _atom_site_hle17_bader_spin_density
 _atom_site_hle17_ddec_charge
 _atom_site_hle17_ddec_spin_density
 _atom_site_hle17_ddec_sum_bond_order
 _atom_site_hle17_magmom
 _atom_site_hse06_10hf_bader_charge
 _atom_site_hse06_10hf_bader_spin_density
 _atom_site_hse06_10hf_ddec_charge
 _atom_site_hse06_10hf_ddec_spin_density
 _atom_site_hse06_10hf_ddec_sum_bond_order
 _atom_site_hse06_10hf_magmom
 _atom_site_hse06_bader_spin_density
 _atom_site_hse06_ddec_charge
 _atom_site_hse06_ddec_spin_density
 _atom_site_hse06_ddec_sum_bond_order
 _atom_site_hse06_magmom
 _atom_site_pbe_bader_spin_density
 _atom_site_pbe_cm5_charge
 _atom_site_pbe_ddec_charge
 _atom_site_pbe_ddec_spin_density
 _atom_site_pbe_ddec_sum_bond_order
 _atom_site_pbe_magmom
Cd  Cd0  1  0.30843149  0.32465273  0.48083768  1  0  1.028842  0  1.960746  0  1.227298  0  0.863198  0  2.437706  0  0  0.90978  0  2.39379  0  0  0.710917  0.830603  0  2.467318  0
Cd  Cd1  1  0.69157118  0.82465349  0.01916253  1  0  1.028892  0  1.960712  0  1.227268  0  0.863258  0  2.437652  0  0  0.90982  0  2.393777  0  0  0.710935  0.830666  0  2.467262  0
Cd  Cd2  1  0.69156641  0.67534821  0.51916276  1  0  1.028896  0  1.960647  0  1.227317  0  0.863241  0  2.437623  0  0  0.909804  0  2.393745  0  0  0.710929  0.83065  0  2.467236  0
Cd  Cd3  1  0.30843215  0.17534745  0.98083722  1  0  1.028884  0  1.960694  0  1.227283  0  0.863244  0  2.437643  0  0  0.909804  0  2.39377  0  0  0.710927  0.830654  0  2.467252  0
H  H4  1  0.57115758  0.62568821  0.36029951  1  0  0.116755  0  0.960207  0  0.15122  0  0.123964  0  1.025894  0  0  0.127  0  1.02331  0  0  0.125411  0.121718  0  1.027863  0
H  H5  1  0.42884001  0.12568878  0.13969802  1  0  0.116768  0  0.960109  0  0.151233  0  0.124015  0  1.025753  0  0  0.127051  0  1.023169  0  0  0.125422  0.121771  0  1.02772  0
H  H6  1  0.42884169  0.37430884  0.63970101  1  0  0.116702  0  0.960199  0  0.151203  0  0.123968  0  1.025862  0  0  0.126984  0  1.023302  0  0  0.125414  0.121724  0  1.027828  0
H  H7  1  0.57116198  0.87431086  0.86030266  1  0  0.116758  0  0.960126  0  0.151194  0  0.124006  0  1.025769  0  0  0.127043  0  1.023185  0  0  0.125413  0.121762  0  1.027736  0
H  H8  1  0.64952253  0.56054756  0.24242401  1  0  0.100773  0  0.978816  0  0.12116  0  0.108257  0  1.042167  0  0  0.111211  0  1.042007  0  0  0.099346  0.106168  0  1.042408  0
H  H9  1  0.35048064  0.06054514  0.25757389  1  0  0.100742  0  0.978766  0  0.121212  0  0.108208  0  1.04216  0  0  0.111164  0  1.042  0  0  0.099349  0.106119  0  1.042398  0
H  H10  1  0.35047810  0.43945208  0.75757659  1  0  0.100762  0  0.978796  0  0.121174  0  0.108245  0  1.042149  0  0  0.111198  0  1.04199  0  0  0.099337  0.106156  0  1.042391  0
H  H11  1  0.64951997  0.93945450  0.74242621  1  0  0.100749  0  0.978755  0  0.121185  0  0.108225  0  1.042139  0  0  0.11118  0  1.041978  0  0  0.09934  0.106136  0  1.042379  0
H  H12  1  0.76167052  0.26504304  0.21902881  1  0  0.103787  0  0.967854  0  0.132087  0  0.110278  0  1.037571  0  0  0.113576  0  1.035466  0  0  0.09637  0.107846  0  1.039164  0
H  H13  1  0.23833360  0.76504206  0.28097002  1  0  0.103797  0  0.967824  0  0.132037  0  0.110308  0  1.037526  0  0  0.113607  0  1.035419  0  0  0.096371  0.107873  0  1.039119  0
H  H14  1  0.23833146  0.73495530  0.78097187  1  0  0.103839  0  0.967803  0  0.131979  0  0.110343  0  1.037507  0  0  0.113642  0  1.0354  0  0  0.096383  0.107908  0  1.039099  0
H  H15  1  0.76166428  0.23495499  0.71902941  1  0  0.103822  0  0.967812  0  0.132031  0  0.110328  0  1.037515  0  0  0.113626  0  1.035408  0  0  0.096397  0.107894  0  1.039109  0
H  H16  1  0.73021603  0.13506170  0.42940588  1  0  0.135947  0  0.91487  0  0.182035  0  0.146278  0  0.970522  0  0  0.149061  0  0.968476  0  0  0.136758  0.14422  0  0.972074  0
H  H17  1  0.26978020  0.63506420  0.07059308  1  0  0.135875  0  0.914963  0  0.181998  0  0.146221  0  0.970622  0  0  0.149002  0  0.968575  0  0  0.136765  0.144165  0  0.972171  0
H  H18  1  0.26978460  0.86493664  0.57059523  1  0  0.135944  0  0.91483  0  0.182057  0  0.146283  0  0.970482  0  0  0.149067  0  0.968435  0  0  0.136743  0.144225  0  0.972034  0
H  H19  1  0.73022176  0.36493803  0.92940608  1  0  0.135904  0  0.91494  0  0.182002  0  0.146248  0  0.970587  0  0  0.149028  0  0.968541  0  0  0.136766  0.144192  0  0.972135  0
H  H20  1  0.86201481  0.92385032  0.35797549  1  0  0.125114  0  0.961848  0  0.090596  0  0.142343  0  1.025784  0  0  0.143405  0  1.026682  0  0  0.09059  0.141501  0  1.025233  0
H  H21  1  0.13798357  0.42384745  0.14202491  1  0  0.125121  0  0.961825  0  0.090609  0  0.142338  0  1.025777  0  0  0.1434  0  1.026674  0  0  0.090578  0.141497  0  1.025226  0
H  H22  1  0.13798446  0.07614932  0.64202554  1  0  0.125128  0  0.961864  0  0.090627  0  0.142348  0  1.02581  0  0  0.14341  0  1.026708  0  0  0.090589  0.141506  0  1.025256  0
H  H23  1  0.86201432  0.57615219  0.85797502  1  0  0.125154  0  0.96181  0  0.090595  0  0.142369  0  1.025761  0  0  0.143432  0  1.026659  0  0  0.09059  0.141527  0  1.025205  0
H  H24  1  0.91885540  0.98887980  0.27766387  1  0  0.115144  0  0.956567  0  0.045402  0  0.134467  0  1.020029  0  0  0.136068  0  1.019628  0  0  0.085736  0.133262  0  1.020371  0
H  H25  1  0.08114422  0.48888185  0.22233656  1  0  0.115146  0  0.956562  0  0.045401  0  0.134472  0  1.020023  0  0  0.136073  0  1.019622  0  0  0.085738  0.133267  0  1.020365  0
H  H26  1  0.08114524  0.01111984  0.72233774  1  0  0.115111  0  0.956585  0  0.078674  0  0.134435  0  1.020048  0  0  0.136037  0  1.019647  0  0  0.085718  0.133231  0  1.020391  0
H  H27  1  0.91885367  0.51112297  0.77766287  1  0  0.115147  0  0.956547  0  0.045392  0  0.134433  0  1.020048  0  0  0.136033  0  1.019649  0  0  0.085721  0.133228  0  1.020392  0
H  H28  1  0.69598031  0.91539604  0.28264914  1  0  0.109681  0  0.946421  0  0.049085  0  0.133534  0  1.00508  0  0  0.1335  0  1.00677  0  0  0.08858  0.133522  0  1.003903  0
H  H29  1  0.30402082  0.41539776  0.21735143  1  0  0.109655  0  0.946426  0  0.04909  0  0.133516  0  1.005084  0  0  0.133483  0  1.00677  0  0  0.088565  0.133504  0  1.003906  0
H  H30  1  0.30402169  0.08460230  0.71735204  1  0  0.10966  0  0.94643  0  0.049071  0  0.133521  0  1.005081  0  0  0.133487  0  1.00677  0  0  0.088581  0.13351  0  1.003903  0
H  H31  1  0.69597707  0.58460188  0.78264851  1  0  0.109639  0  0.946447  0  0.049058  0  0.133506  0  1.005086  0  0  0.133473  0  1.006772  0  0  0.088555  0.133494  0  1.003908  0
C  C32  1  0.41187554  0.94462722  0.41581848  1  0  0.312177  0  3.991272  0  0.629166  0  0.289663  0  4.294941  0  0  0.311051  0  4.310228  0  0  0.154892  0.275066  0  4.284268  0
C  C33  1  0.58811869  0.44463037  0.08418016  1  0  0.312227  0  3.991314  0  0.628658  0  0.289714  0  4.294993  0  0  0.311104  0  4.310279  0  0  0.154909  0.275116  0  4.284324  0
C  C34  1  0.58812233  0.05537372  0.58417995  1  0  0.312174  0  3.991387  0  0.628885  0  0.28966  0  4.295064  0  0  0.311049  0  4.310351  0  0  0.154916  0.275064  0  4.284392  0
C  C35  1  0.41187784  0.55537316  0.91582020  1  0  0.312211  0  3.991343  0  0.628712  0  0.289696  0  4.295029  0  0  0.311087  0  4.310315  0  0  0.15492  0.275099  0  4.284358  0
C  C36  1  0.97188081  0.36650483  0.56922424  1  0  0.319291  0  3.988035  0  0.591607  0  0.297481  0  4.290178  0  0  0.319915  0  4.305391  0  0  0.149795  0.282179  0  4.279455  0
C  C37  1  0.02812276  0.86650871  0.93077288  1  0  0.319412  0  3.987965  0  0.591812  0  0.297598  0  4.290113  0  0  0.320034  0  4.30532  0  0  0.149808  0.282295  0  4.279392  0
C  C38  1  0.02811845  0.63349740  0.43077628  1  0  0.319353  0  3.988067  0  0.591727  0  0.297544  0  4.290206  0  0  0.319977  0  4.305416  0  0  0.149822  0.282242  0  4.279485  0
C  C39  1  0.97188054  0.13349482  0.06922486  1  0  0.319352  0  3.987942  0  0.591573  0  0.297536  0  4.290105  0  0  0.319972  0  4.305315  0  0  0.14983  0.282234  0  4.279382  0
C  C40  1  0.62344128  0.50188131  0.34573850  1  0  0.004356  0  3.598397  0  0.36633  0  -0.039509  0  3.859935  0  0  -0.032887  0  3.872861  0  0  0.035924  -0.043689  0  3.851372  0
C  C41  1  0.37655657  0.00188060  0.15426014  1  0  0.004218  0  3.598345  0  0.366273  0  -0.039681  0  3.859905  0  0  -0.033058  0  3.872829  0  0  0.035889  -0.043859  0  3.851341  0
C  C42  1  0.37655799  0.49811574  0.65426253  1  0  0.004375  0  3.59838  0  0.36625  0  -0.039578  0  3.859946  0  0  -0.032942  0  3.872881  0  0  0.035903  -0.043757  0  3.851384  0
C  C43  1  0.62344539  0.99811904  0.84573953  1  0  0.004254  0  3.59837  0  0.36633  0  -0.039644  0  3.85993  0  0  -0.033023  0  3.872856  0  0  0.035925  -0.043823  0  3.851367  0
C  C44  1  0.66625165  0.46180611  0.28221902  1  0  -0.093133  0  3.797166  0  -0.04124  0  -0.103709  0  4.053399  0  0  -0.108948  0  4.072957  0  0  -0.083392  -0.100592  0  4.0404  0
C  C45  1  0.33374797  0.96180267  0.21777840  1  0  -0.093038  0  3.797063  0  -0.041543  0  -0.103598  0  4.05334  0  0  -0.10884  0  4.072895  0  0  -0.083416  -0.10048  0  4.040339  0
C  C46  1  0.33374624  0.53819353  0.71778091  1  0  -0.093083  0  3.797143  0  -0.041254  0  -0.103636  0  4.053387  0  0  -0.108874  0  4.072941  0  0  -0.083381  -0.10052  0  4.04039  0
C  C47  1  0.66625400  0.03819438  0.78222127  1  0  -0.093116  0  3.797075  0  -0.041571  0  -0.103687  0  4.053341  0  0  -0.108929  0  4.072899  0  0  -0.083432  -0.10057  0  4.040344  0
C  C48  1  0.72927541  0.29694892  0.26930466  1  0  -0.088427  0  3.67802  0  -0.01242  0  -0.119916  0  3.930294  0  0  -0.116925  0  3.946377  0  0  -0.077735  -0.121543  0  3.919408  0
C  C49  1  0.27072455  0.79694811  0.23069340  1  0  -0.088455  0  3.678008  0  -0.012019  0  -0.120008  0  3.930271  0  0  -0.117018  0  3.946352  0  0  -0.077723  -0.121634  0  3.919384  0
C  C50  1  0.27072384  0.70304943  0.73069535  1  0  -0.088538  0  3.678077  0  -0.01235  0  -0.120034  0  3.930347  0  0  -0.117044  0  3.946429  0  0  -0.077748  -0.121656  0  3.919461  0
C  C51  1  0.72927605  0.20305024  0.76930619  1  0  -0.088403  0  3.677987  0  -0.012015  0  -0.119926  0  3.93024  0  0  -0.116934  0  3.946321  0  0  -0.077717  -0.121554  0  3.919359  0
C  C52  1  0.75208893  0.17188816  0.32135829  1  0  0.131812  0  3.751772  0  0.066617  0  0.1616  0  3.992173  0  0  0.159181  0  4.015594  0  0  0.00599  0.162738  0  3.976569  0
C  C53  1  0.24790721  0.67188892  0.17863963  1  0  0.131804  0  3.75185  0  0.066683  0  0.161712  0  3.992134  0  0  0.159292  0  4.015554  0  0  0.005994  0.16285  0  3.976533  0
C  C54  1  0.24791032  0.82810889  0.67864122  1  0  0.131778  0  3.751736  0  0.066667  0  0.161554  0  3.992177  0  0  0.159135  0  4.015597  0  0  0.005934  0.162691  0  3.976574  0
C  C55  1  0.75209341  0.32810943  0.82136047  1  0  0.131693  0  3.751736  0  0.066704  0  0.161553  0  3.99207  0  0  0.159133  0  4.015489  0  0  0.005916  0.162691  0  3.976468  0
C  C56  1  0.71345618  0.21981246  0.38506478  1  0  -0.03939  0  3.543521  0  0.377777  0  -0.089296  0  3.802287  0  0  -0.083824  0  3.816304  0  0  0.044193  -0.092757  0  3.793121  0
C  C57  1  0.28653849  0.71980825  0.11493302  1  0  -0.039286  0  3.543558  0  0.377685  0  -0.089289  0  3.802352  0  0  -0.083811  0  3.816364  0  0  0.044158  -0.09275  0  3.793186  0
C  C58  1  0.28654580  0.78018718  0.61493539  1  0  -0.039292  0  3.543469  0  0.377767  0  -0.089216  0  3.80227  0  0  -0.083745  0  3.816288  0  0  0.04424  -0.092676  0  3.793103  0
C  C59  1  0.71346213  0.28019009  0.88506758  1  0  -0.039293  0  3.543448  0  0.377536  0  -0.089264  0  3.802253  0  0  -0.083785  0  3.816262  0  0  0.044197  -0.092725  0  3.793086  0
C  C60  1  0.81180218  0.99007779  0.30974279  1  0  -0.339384  0  3.707737  0  -0.074573  0  -0.418087  0  3.934482  0  0  -0.420322  0  3.944929  0  0  -0.243634  -0.416243  0  3.927388  0
C  C61  1  0.18819741  0.49007852  0.19025663  1  0  -0.339375  0  3.707702  0  -0.074576  0  -0.4181  0  3.934392  0  0  -0.420334  0  3.944839  0  0  -0.243611  -0.416255  0  3.927296  0
C  C62  1  0.18819845  0.00992055  0.69025831  1  0  -0.33934  0  3.707713  0  -0.107834  0  -0.418034  0  3.934469  0  0  -0.420269  0  3.944917  0  0  -0.243595  -0.416186  0  3.927371  0
C  C63  1  0.81179911  0.50992241  0.80974272  1  0  -0.339377  0  3.707674  0  -0.07452  0  -0.418057  0  3.93441  0  0  -0.420291  0  3.944859  0  0  -0.243591  -0.416205  0  3.927316  0
S  S64  1  0.25461364  0.08282945  0.38420730  1  0  -0.33364  0  2.207208  0  0.062657  0  -0.290571  0  2.535226  0  0  -0.309975  0  2.53007  0  0  -0.124446  -0.276862  0  2.538427  0
S  S65  1  0.74538269  0.58282839  0.11579120  1  0  -0.333645  0  2.207314  0  0.062579  0  -0.290579  0  2.53533  0  0  -0.309983  0  2.530177  0  0  -0.124437  -0.276869  0  2.538533  0
S  S66  1  0.74538561  0.91717278  0.61579221  1  0  -0.333647  0  2.207291  0  0.062638  0  -0.29058  0  2.53532  0  0  -0.309984  0  2.530167  0  0  -0.124444  -0.276872  0  2.538523  0
S  S67  1  0.25461385  0.41717514  0.88420916  1  0  -0.333628  0  2.207318  0  0.062822  0  -0.290571  0  2.535356  0  0  -0.309973  0  2.530202  0  0  -0.124423  -0.27686  0  2.538558  0
S  S68  1  0.85382802  0.46475349  0.62029120  1  0  -0.34213  0  2.159523  0  0.065364  0  -0.303674  0  2.484142  0  0  -0.324391  0  2.480257  0  0  -0.13801  -0.288979  0  2.486443  0
S  S69  1  0.14617674  0.96475740  0.87970793  1  0  -0.342148  0  2.159596  0  0.065265  0  -0.303698  0  2.484225  0  0  -0.324416  0  2.480342  0  0  -0.138  -0.289005  0  2.486523  0
S  S70  1  0.14617397  0.53524745  0.37970948  1  0  -0.342107  0  2.159518  0  0.065285  0  -0.303659  0  2.484143  0  0  -0.32438  0  2.480258  0  0  -0.137984  -0.288962  0  2.48644  0
S  S71  1  0.85382794  0.03524743  0.12029139  1  0  -0.34213  0  2.159567  0  0.065377  0  -0.303683  0  2.484192  0  0  -0.324401  0  2.480309  0  0  -0.13801  -0.288988  0  2.48649  0
N  N72  1  0.52837066  0.84523358  0.43695318  1  0  -0.531172  0  2.898676  0  -1.335164  0  -0.476966  0  3.18114  0  0  -0.497743  0  3.186982  0  0  -0.38929  -0.462746  0  3.177063  0
N  N73  1  0.47162378  0.34523572  0.06304604  1  0  -0.531198  0  2.898619  0  -1.33459  0  -0.477014  0  3.181116  0  0  -0.49779  0  3.186955  0  0  -0.389317  -0.462794  0  3.177041  0
N  N74  1  0.47162721  0.15476606  0.56304575  1  0  -0.531139  0  2.898703  0  -1.334858  0  -0.476949  0  3.181195  0  0  -0.497725  0  3.187034  0  0  -0.389308  -0.462728  0  3.177119  0
N  N75  1  0.52837413  0.65476781  0.93695491  1  0  -0.531194  0  2.898628  0  -1.334852  0  -0.477006  0  3.181117  0  0  -0.497784  0  3.186957  0  0  -0.389333  -0.462785  0  3.17704  0
N  N76  1  0.05820182  0.29476164  0.53249615  1  0  -0.539308  0  2.853174  0  -1.304434  0  -0.485773  0  3.12883  0  0  -0.507755  0  3.134996  0  0  -0.396731  -0.47064  0  3.12435  0
N  N77  1  0.94179783  0.79476390  0.96750229  1  0  -0.539413  0  2.853051  0  -1.304523  0  -0.485887  0  3.128722  0  0  -0.507868  0  3.134882  0  0  -0.396748  -0.470757  0  3.124247  0
N  N78  1  0.94179743  0.70523929  0.46750336  1  0  -0.539405  0  2.853253  0  -1.304474  0  -0.485875  0  3.128917  0  0  -0.507854  0  3.135079  0  0  -0.396786  -0.470747  0  3.124444  0
N  N79  1  0.05820275  0.20523963  0.03249578  1  0  -0.539366  0  2.853055  0  -1.30442  0  -0.485834  0  3.12873  0  0  -0.507814  0  3.134894  0  0  -0.396762  -0.470705  0  3.124253  0
N  N80  1  0.64794813  0.38006574  0.39574912  1  0  0.274206  0  3.710812  0  -0.711635  0  0.324814  0  3.973009  0  0  0.323622  0  3.995589  0  0  -0.11809  0.324908  0  3.957789  0
N  N81  1  0.35204757  0.88006795  0.10424814  1  0  0.27426  0  3.71093  0  -0.711534  0  0.324892  0  3.973134  0  0  0.323699  0  3.995714  0  0  -0.118029  0.324985  0  3.957912  0
N  N82  1  0.35205113  0.61993131  0.60425140  1  0  0.274162  0  3.710895  0  -0.711606  0  0.324792  0  3.97311  0  0  0.323601  0  3.995688  0  0  -0.118078  0.324886  0  3.957889  0
N  N83  1  0.64795576  0.11993039  0.89575162  1  0  0.274301  0  3.710875  0  -0.711404  0  0.324922  0  3.973084  0  0  0.323729  0  3.995664  0  0  -0.118037  0.325015  0  3.95786  0
O  O84  1  0.60398424  0.41507675  0.45685939  1  0  -0.571342  0  1.929909  0  -0.678956  0  -0.508395  0  2.197527  0  0  -0.534609  0  2.195096  0  0  -0.253192  -0.489706  0  2.198633  0
O  O85  1  0.39601412  0.91507528  0.04313799  1  0  -0.571351  0  1.930136  0  -0.679036  0  -0.508388  0  2.197697  0  0  -0.534601  0  2.195265  0  0  -0.253197  -0.489702  0  2.198802  0
O  O86  1  0.39601502  0.58492289  0.54314063  1  0  -0.571301  0  1.929925  0  -0.678927  0  -0.508366  0  2.197568  0  0  -0.534579  0  2.195138  0  0  -0.253169  -0.489675  0  2.198672  0
O  O87  1  0.60398786  0.08492566  0.95686218  1  0  -0.57136  0  1.930112  0  -0.678991  0  -0.508395  0  2.197679  0  0  -0.534606  0  2.195247  0  0  -0.253191  -0.489706  0  2.198783  0
