# generated using pymatgen
data_ZnH18C24(NO)4
_symmetry_space_group_name_H-M   'P 1'
_cell_length_a   7.99605518
_cell_length_b   8.40010248
_cell_length_c   16.19017819
_cell_angle_alpha   101.72166321
_cell_angle_beta   96.39101151
_cell_angle_gamma   93.13934410
_symmetry_Int_Tables_number   1
_chemical_formula_structural   ZnH18C24(NO)4
_chemical_formula_sum   'Zn2 H36 C48 N8 O8'
_cell_volume   1054.81084774
_cell_formula_units_Z   2
loop_
 _symmetry_equiv_pos_site_id
 _symmetry_equiv_pos_as_xyz
  1  'x, y, z'
loop_
 _atom_site_type_symbol
 _atom_site_label
 _atom_site_symmetry_multiplicity
 _atom_site_fract_x
 _atom_site_fract_y
 _atom_site_fract_z
 _atom_site_occupancy
 _atom_site_hle17_bader_spin_density
 _atom_site_hle17_ddec_charge
 _atom_site_hle17_ddec_spin_density
 _atom_site_hle17_ddec_sum_bond_order
 _atom_site_hle17_magmom
 _atom_site_hse06_10hf_bader_spin_density
 _atom_site_hse06_10hf_ddec_charge
 _atom_site_hse06_10hf_ddec_spin_density
 _atom_site_hse06_10hf_ddec_sum_bond_order
 _atom_site_hse06_10hf_magmom
 _atom_site_hse06_bader_spin_density
 _atom_site_hse06_ddec_charge
 _atom_site_hse06_ddec_spin_density
 _atom_site_hse06_ddec_sum_bond_order
 _atom_site_hse06_magmom
 _atom_site_pbe_bader_spin_density
 _atom_site_pbe_cm5_charge
 _atom_site_pbe_ddec_charge
 _atom_site_pbe_ddec_spin_density
 _atom_site_pbe_ddec_sum_bond_order
 _atom_site_pbe_magmom
Zn  Zn0  1  0.25454949  0.07784829  0.74965795  1  0  0.979849  0  1.862363  0  0  0.789478  0  2.328364  0  0  0.839071  0  2.274293  0  0  0.688141  0.754952  0  2.365283  0
Zn  Zn1  1  0.74544667  0.92214696  0.25034088  1  0  0.979809  0  1.862322  0  0  0.789441  0  2.328306  0  0  0.839036  0  2.274235  0  0  0.688168  0.754918  0  2.365228  0
H  H2  1  0.46287347  0.30404211  0.54451962  1  0  0.091058  0  0.975843  0  0  0.101125  0  1.040876  0  0  0.103936  0  1.039093  0  0  0.101102  0.099088  0  1.042217  0
H  H3  1  0.53711660  0.69597032  0.45548492  1  0  0.09094  0  0.975921  0  0  0.101063  0  1.040905  0  0  0.103875  0  1.039122  0  0  0.101088  0.099025  0  1.04225  0
H  H4  1  0.68270838  0.43212078  0.47326889  1  0  0.09745  0  0.969014  0  0  0.10201  0  1.042017  0  0  0.105616  0  1.039566  0  0  0.10135  0.0994  0  1.043885  0
H  H5  1  0.31728212  0.56788182  0.52673036  1  0  0.097527  0  0.969032  0  0  0.102117  0  1.041993  0  0  0.105725  0  1.039541  0  0  0.101378  0.0995  0  1.043866  0
H  H6  1  0.06036061  0.38876028  0.67764370  1  0  0.113096  0  0.953655  0  0  0.118833  0  1.02334  0  0  0.122837  0  1.020386  0  0  0.107528  0.11582  0  1.025725  0
H  H7  1  0.93963431  0.61123493  0.32235258  1  0  0.113119  0  0.953585  0  0  0.118867  0  1.02325  0  0  0.122875  0  1.020294  0  0  0.107545  0.115839  0  1.025651  0
H  H8  1  0.84060286  0.26395622  0.74768043  1  0  0.110784  0  0.951976  0  0  0.117204  0  1.018501  0  0  0.120838  0  1.015702  0  0  0.10862  0.114569  0  1.020562  0
H  H9  1  0.15939267  0.73604636  0.25231972  1  0  0.110774  0  0.951951  0  0  0.11719  0  1.018478  0  0  0.120822  0  1.015682  0  0  0.108602  0.114554  0  1.020543  0
H  H10  1  0.98053884  0.48866779  0.82163176  1  0  0.090347  0  0.985757  0  0  0.101281  0  1.048301  0  0  0.103702  0  1.047342  0  0  0.09827  0.099528  0  1.048996  0
H  H11  1  0.01947705  0.51133710  0.17836668  1  0  0.090325  0  0.9858  0  0  0.101262  0  1.048345  0  0  0.103684  0  1.047381  0  0  0.098291  0.09951  0  1.04905  0
H  H12  1  0.89624837  0.76716025  0.87943449  1  0  0.090771  0  0.981058  0  0  0.096645  0  1.05243  0  0  0.099543  0  1.05118  0  0  0.099526  0.094603  0  1.053347  0
H  H13  1  0.10376886  0.23284594  0.12056972  1  0  0.090689  0  0.981078  0  0  0.096595  0  1.052418  0  0  0.099493  0  1.051167  0  0  0.099493  0.094549  0  1.053342  0
H  H14  1  0.26985447  0.80879731  0.09777876  1  0  0.116392  0  0.951479  0  0  0.123668  0  1.017801  0  0  0.127631  0  1.015061  0  0  0.106055  0.120817  0  1.019843  0
H  H15  1  0.73017452  0.19119895  0.90221770  1  0  0.116375  0  0.951374  0  0  0.12366  0  1.017683  0  0  0.12762  0  1.014948  0  0  0.106053  0.120809  0  1.019722  0
H  H16  1  0.35150910  0.52960165  0.03918018  1  0  0.097393  0  0.958943  0  0  0.108456  0  1.020419  0  0  0.11123  0  1.018734  0  0  0.105426  0.1064  0  1.021715  0
H  H17  1  0.64851120  0.47039584  0.96081468  1  0  0.097382  0  0.958866  0  0  0.108437  0  1.020355  0  0  0.111251  0  1.018628  0  0  0.105438  0.106384  0  1.02165  0
H  H18  1  0.22894199  0.72913798  0.67127399  1  0  0.070681  0  0.962751  0  0  0.072886  0  1.039018  0  0  0.075676  0  1.036502  0  0  0.110243  0.070843  0  1.040841  0
H  H19  1  0.77104460  0.27084886  0.32872839  1  0  0.070763  0  0.962663  0  0  0.072936  0  1.038972  0  0  0.075726  0  1.036457  0  0  0.110251  0.07089  0  1.040799  0
H  H20  1  0.35737624  0.47847877  0.69853330  1  0  0.104213  0  0.961394  0  0  0.113889  0  1.023257  0  0  0.116627  0  1.022635  0  0  0.106637  0.11184  0  1.023948  0
H  H21  1  0.64259982  0.52150334  0.30147480  1  0  0.104206  0  0.961518  0  0  0.113871  0  1.023345  0  0  0.116655  0  1.022671  0  0  0.106607  0.111823  0  1.024034  0
H  H22  1  0.54319283  0.49293815  0.83539774  1  0  0.106051  0  0.943545  0  0  0.117858  0  0.999787  0  0  0.120459  0  0.998201  0  0  0.112478  0.115921  0  1.000976  0
H  H23  1  0.45678860  0.50706222  0.16461127  1  0  0.106123  0  0.94337  0  0  0.11791  0  0.999656  0  0  0.120511  0  0.99807  0  0  0.112542  0.115992  0  1.000816  0
H  H24  1  0.58869740  0.76032587  0.94257966  1  0  0.132973  0  0.976754  0  0  0.13822  0  1.039615  0  0  0.142561  0  1.037191  0  0  0.111479  0.135072  0  1.041516  0
H  H25  1  0.41129866  0.23968283  0.05742237  1  0  0.132927  0  0.976632  0  0  0.138181  0  1.03955  0  0  0.142522  0  1.037126  0  0  0.111462  0.135034  0  1.041446  0
H  H26  1  0.45161275  0.00499895  0.90331376  1  0  0.09974  0  0.940077  0  0  0.108087  0  1.001515  0  0  0.111182  0  0.998554  0  0  0.123272  0.105752  0  1.003748  0
H  H27  1  0.54838679  0.99500597  0.09668191  1  0  0.099776  0  0.940175  0  0  0.108131  0  1.001595  0  0  0.111205  0  0.998659  0  0  0.12329  0.105799  0  1.003821  0
H  H28  1  0.94982019  0.96501521  0.80594449  1  0  0.082262  0  0.95454  0  0  0.080512  0  1.036737  0  0  0.084422  0  1.031923  0  0  0.116972  0.077519  0  1.040391  0
H  H29  1  0.05017869  0.03498250  0.19405659  1  0  0.082306  0  0.954594  0  0  0.08056  0  1.036771  0  0  0.084469  0  1.031962  0  0  0.116993  0.07757  0  1.040418  0
H  H30  1  0.65755743  0.84439245  0.74950713  1  0  0.096966  0  0.989902  0  0  0.105445  0  1.052282  0  0  0.106924  0  1.054943  0  0  0.104601  0.104351  0  1.050638  0
H  H31  1  0.34243997  0.15560283  0.25049362  1  0  0.09699  0  0.989887  0  0  0.105409  0  1.052328  0  0  0.106888  0  1.054985  0  0  0.104562  0.104317  0  1.050684  0
H  H32  1  0.56907121  0.78568366  0.59218908  1  0  0.088008  0  0.954434  0  0  0.101677  0  1.012087  0  0  0.103473  0  1.011472  0  0  0.106318  0.100312  0  1.012598  0
H  H33  1  0.43092443  0.21432014  0.40781120  1  0  0.087989  0  0.954278  0  0  0.101622  0  1.012005  0  0  0.103431  0  1.011384  0  0  0.106261  0.10025  0  1.012517  0
H  H34  1  0.78161275  0.84352409  0.49593228  1  0  0.112377  0  0.961874  0  0  0.118972  0  1.0282  0  0  0.122988  0  1.025593  0  0  0.106302  0.115998  0  1.030337  0
H  H35  1  0.21837724  0.15648705  0.50406780  1  0  0.112324  0  0.96191  0  0  0.118898  0  1.028285  0  0  0.122909  0  1.025675  0  0  0.106276  0.115924  0  1.03042  0
H  H36  1  0.07486726  0.95601200  0.56330733  1  0  0.076446  0  0.9413  0  0  0.087229  0  1.003677  0  0  0.089242  0  1.002672  0  0  0.11586  0.085741  0  1.004459  0
H  H37  1  0.92512536  0.04400032  0.43669117  1  0  0.076479  0  0.941316  0  0  0.087245  0  1.003723  0  0  0.089258  0  1.002718  0  0  0.115833  0.085765  0  1.004484  0
C  C38  1  0.59481085  0.32181012  0.57199179  1  0  -0.075537  0  3.759375  0  0  -0.09625  0  4.000583  0  0  -0.096804  0  4.022438  0  0  -0.086786  -0.095541  0  3.985594  0
C  C39  1  0.40518018  0.67819858  0.42800872  1  0  -0.075271  0  3.759294  0  0  -0.096056  0  4.000509  0  0  -0.096608  0  4.022363  0  0  -0.086703  -0.095351  0  3.985527  0
C  C40  1  0.71575685  0.39265110  0.53268103  1  0  -0.13961  0  3.737328  0  0  -0.157464  0  3.983448  0  0  -0.16173  0  4.006008  0  0  -0.089704  -0.154621  0  3.968154  0
C  C41  1  0.28423386  0.60735395  0.46731971  1  0  -0.1398  0  3.73729  0  0  -0.157692  0  3.983453  0  0  -0.161957  0  4.006007  0  0  -0.089776  -0.154849  0  3.968162  0
C  C42  1  0.88525350  0.41597411  0.57071012  1  0  0.15781  0  3.823038  0  0  0.163432  0  4.069907  0  0  0.163589  0  4.095201  0  0  0.084615  0.163449  0  4.052638  0
C  C43  1  0.11473910  0.58402356  0.42928628  1  0  0.157821  0  3.823081  0  0  0.163444  0  4.069943  0  0  0.163601  0  4.095239  0  0  0.084665  0.163466  0  4.052667  0
C  C44  1  0.92936676  0.36986293  0.64838446  1  0  -0.116624  0  3.683401  0  0  -0.137085  0  3.931983  0  0  -0.140739  0  3.95189  0  0  -0.077277  -0.13461  0  3.918574  0
C  C45  1  0.07062573  0.63013356  0.35161429  1  0  -0.116589  0  3.683469  0  0  -0.137055  0  3.932011  0  0  -0.140715  0  3.951918  0  0  -0.077299  -0.134566  0  3.918616  0
C  C46  1  0.80685545  0.29978455  0.68741929  1  0  -0.05671  0  3.719335  0  0  -0.080886  0  3.966403  0  0  -0.080219  0  3.986447  0  0  -0.078281  -0.081058  0  3.952761  0
C  C47  1  0.19313872  0.70021682  0.31258066  1  0  -0.056712  0  3.719203  0  0  -0.080888  0  3.966247  0  0  -0.080221  0  3.986293  0  0  -0.078262  -0.081066  0  3.952612  0
C  C48  1  0.63905903  0.27369191  0.64928759  1  0  -0.048924  0  3.746765  0  0  -0.024237  0  3.973005  0  0  -0.03292  0  3.997901  0  0  -0.012439  -0.018965  0  3.956759  0
C  C49  1  0.36093629  0.72630824  0.35071292  1  0  -0.049095  0  3.746793  0  0  -0.024377  0  3.973038  0  0  -0.033061  0  3.997934  0  0  -0.012504  -0.019081  0  3.956746  0
C  C50  1  0.50945052  0.19848827  0.69266706  1  0  0.608468  0  3.945381  0  0  0.561985  0  4.235011  0  0  0.595565  0  4.22954  0  0  0.190627  0.539328  0  4.237733  0
C  C51  1  0.49054940  0.80150698  0.30733322  1  0  0.608648  0  3.945273  0  0  0.56213  0  4.234928  0  0  0.595707  0  4.229461  0  0  0.190657  0.539472  0  4.237659  0
C  C52  1  0.04345942  0.56001479  0.88171190  1  0  -0.064613  0  3.758089  0  0  -0.084655  0  3.998392  0  0  -0.084872  0  4.020607  0  0  -0.087782  -0.084186  0  3.983199  0
C  C53  1  0.95655067  0.43998163  0.11828845  1  0  -0.064599  0  3.758114  0  0  -0.08467  0  3.99843  0  0  -0.084882  0  4.02065  0  0  -0.087812  -0.084206  0  3.98324  0
C  C54  1  0.99764441  0.71482526  0.91297835  1  0  -0.130013  0  3.732952  0  0  -0.149748  0  3.98028  0  0  -0.154119  0  4.002954  0  0  -0.088438  -0.146878  0  3.964932  0
C  C55  1  0.00237115  0.28517601  0.08702218  1  0  -0.129909  0  3.732871  0  0  -0.149674  0  3.980208  0  0  -0.154043  0  4.002877  0  0  -0.088405  -0.146801  0  3.964859  0
C  C56  1  0.08130648  0.80655394  0.99051543  1  0  0.164796  0  3.818692  0  0  0.169024  0  4.068828  0  0  0.169569  0  4.093544  0  0  0.08819  0.168727  0  4.052047  0
C  C57  1  0.91871631  0.19344361  0.00948390  1  0  0.164745  0  3.818878  0  0  0.169014  0  4.068982  0  0  0.169557  0  4.093703  0  0  0.088205  0.168713  0  4.052193  0
C  C58  1  0.20667408  0.73844483  0.03715925  1  0  -0.12285  0  3.680767  0  0  -0.144645  0  3.932343  0  0  -0.149165  0  3.953237  0  0  -0.079735  -0.141623  0  3.91814  0
C  C59  1  0.79334652  0.26155638  0.96283971  1  0  -0.122817  0  3.680418  0  0  -0.144624  0  3.932023  0  0  -0.149142  0  3.952923  0  0  -0.079788  -0.141613  0  3.917848  0
C  C60  1  0.25118978  0.58200697  0.00500884  1  0  -0.053832  0  3.730943  0  0  -0.077352  0  3.978684  0  0  -0.076756  0  3.999873  0  0  -0.079066  -0.07744  0  3.96424  0
C  C61  1  0.74883083  0.41799422  0.99498888  1  0  -0.053805  0  3.730753  0  0  -0.077344  0  3.978521  0  0  -0.076775  0  3.999693  0  0  -0.079035  -0.077438  0  3.964078  0
C  C62  1  0.17137578  0.49188937  0.92694260  1  0  -0.058087  0  3.74304  0  0  -0.034315  0  3.97098  0  0  -0.04353  0  3.996553  0  0  -0.013061  -0.028396  0  3.953814  0
C  C63  1  0.82864860  0.50811180  0.07305534  1  0  -0.058139  0  3.743097  0  0  -0.034335  0  3.971011  0  0  -0.043572  0  3.996629  0  0  -0.01308  -0.028416  0  3.953847  0
C  C64  1  0.22339296  0.32592063  0.89017235  1  0  0.6348  0  3.924299  0  0  0.583743  0  4.222368  0  0  0.618036  0  4.215147  0  0  0.201074  0.560464  0  4.226473  0
C  C65  1  0.77661055  0.67407209  0.10982294  1  0  0.63467  0  3.924425  0  0  0.583634  0  4.222458  0  0  0.617931  0  4.215239  0  0  0.201058  0.560357  0  4.226563  0
C  C66  1  0.31167063  0.73167412  0.72991713  1  0  0.109182  0  3.726096  0  0  0.08057  0  3.973285  0  0  0.086695  0  3.992936  0  0  0.040021  0.076716  0  3.959893  0
C  C67  1  0.68831786  0.26832000  0.27008486  1  0  0.108877  0  3.726141  0  0  0.080288  0  3.973328  0  0  0.086408  0  3.992995  0  0  0.039943  0.076436  0  3.959937  0
C  C68  1  0.38359207  0.59233735  0.74552603  1  0  -0.120246  0  3.73916  0  0  -0.132733  0  3.989983  0  0  -0.140122  0  4.012514  0  0  -0.083642  -0.128016  0  3.974937  0
C  C69  1  0.61639734  0.40765317  0.25447873  1  0  -0.12026  0  3.739565  0  0  -0.132707  0  3.990362  0  0  -0.140134  0  4.012878  0  0  -0.083641  -0.127993  0  3.975326  0
C  C70  1  0.48629573  0.60165458  0.82219303  1  0  0.0101  0  3.679444  0  0  -0.010465  0  3.926443  0  0  -0.006104  0  3.944242  0  0  -0.056947  -0.01305  0  3.914343  0
C  C71  1  0.51369043  0.39834207  0.17781340  1  0  0.010056  0  3.679123  0  0  -0.010482  0  3.926173  0  0  -0.006123  0  3.943985  0  0  -0.056924  -0.01308  0  3.914068  0
C  C72  1  0.51253132  0.75004692  0.88106990  1  0  -0.121504  0  3.689347  0  0  -0.130397  0  3.937735  0  0  -0.138168  0  3.958045  0  0  -0.075337  -0.125479  0  3.924247  0
C  C73  1  0.48746336  0.24996059  0.11893318  1  0  -0.121224  0  3.68896  0  0  -0.130198  0  3.937421  0  0  -0.137968  0  3.957722  0  0  -0.075319  -0.12528  0  3.923935  0
C  C74  1  0.43678380  0.88497137  0.86074806  1  0  0.136723  0  3.653214  0  0  0.103315  0  3.902012  0  0  0.111029  0  3.918697  0  0  0.055137  0.098366  0  3.890732  0
C  C75  1  0.56321038  0.11502995  0.13924880  1  0  0.136378  0  3.653239  0  0  0.103  0  3.902044  0  0  0.110729  0  3.918733  0  0  0.05503  0.098051  0  3.890766  0
C  C76  1  0.90854002  0.93282039  0.73752541  1  0  0.128204  0  3.672897  0  0  0.099913  0  3.919215  0  0  0.106191  0  3.936593  0  0  0.053025  0.095936  0  3.907518  0
C  C77  1  0.09145602  0.06717365  0.26247391  1  0  0.128215  0  3.672962  0  0  0.099941  0  3.919257  0  0  0.106214  0  3.93664  0  0  0.053042  0.095965  0  3.907564  0
C  C78  1  0.74538322  0.86671440  0.70576448  1  0  -0.099641  0  3.714062  0  0  -0.108988  0  3.954534  0  0  -0.115596  0  3.97732  0  0  -0.077155  -0.104844  0  3.93927  0
C  C79  1  0.25461021  0.13327843  0.29423395  1  0  -0.099772  0  3.714108  0  0  -0.10909  0  3.954605  0  0  -0.115697  0  3.977398  0  0  -0.077154  -0.104947  0  3.939341  0
C  C80  1  0.69752025  0.83407718  0.61818769  1  0  0.000892  0  3.708495  0  0  -0.018357  0  3.953317  0  0  -0.01498  0  3.972832  0  0  -0.06414  -0.020251  0  3.939878  0
C  C81  1  0.30247382  0.16592296  0.38181151  1  0  0.001027  0  3.70831  0  0  -0.018178  0  3.953053  0  0  -0.014817  0  3.972582  0  0  -0.064069  -0.020069  0  3.93962  0
C  C82  1  0.81490012  0.86625311  0.56477258  1  0  -0.121711  0  3.723429  0  0  -0.13506  0  3.977467  0  0  -0.142827  0  3.999832  0  0  -0.082877  -0.130031  0  3.962454  0
C  C83  1  0.18509856  0.13375678  0.43522849  1  0  -0.121711  0  3.72335  0  0  -0.135038  0  3.977379  0  0  -0.142798  0  3.99974  0  0  -0.082875  -0.130009  0  3.96236  0
C  C84  1  0.97678492  0.92985127  0.60149066  1  0  0.12575  0  3.702684  0  0  0.093506  0  3.953258  0  0  0.099579  0  3.973381  0  0  0.047622  0.089647  0  3.939527  0
C  C85  1  0.02320591  0.07015498  0.39850836  1  0  0.125771  0  3.70269  0  0  0.093536  0  3.953237  0  0  0.099614  0  3.973352  0  0  0.047683  0.089679  0  3.93951  0
N  N86  1  0.01887874  0.48738674  0.53712897  1  0  -0.163339  0  3.022302  0  0  -0.139368  0  3.308147  0  0  -0.137851  0  3.314993  0  0  -0.150398  -0.140261  0  3.303422  0
N  N87  1  0.98111365  0.51260851  0.46286840  1  0  -0.163226  0  3.02216  0  0  -0.139247  0  3.307989  0  0  -0.137728  0  3.314835  0  0  -0.150339  -0.140143  0  3.303265  0
N  N88  1  0.04422261  0.96631068  0.02562092  1  0  -0.152634  0  3.001401  0  0  -0.126196  0  3.281818  0  0  -0.124865  0  3.287805  0  0  -0.14464  -0.126827  0  3.277524  0
N  N89  1  0.95580439  0.03369173  0.97437852  1  0  -0.15243  0  3.001475  0  0  -0.125986  0  3.281844  0  0  -0.124656  0  3.287835  0  0  -0.144443  -0.126614  0  3.277549  0
N  N90  1  0.02224795  0.96326780  0.68610228  1  0  -0.332925  0  3.314417  0  0  -0.24896  0  3.580275  0  0  -0.268045  0  3.59742  0  0  -0.328353  -0.236109  0  3.568458  0
N  N91  1  0.97774757  0.03673480  0.31389849  1  0  -0.33299  0  3.314506  0  0  -0.249039  0  3.580377  0  0  -0.268125  0  3.597522  0  0  -0.32839  -0.236191  0  3.568564  0
N  N92  1  0.33905552  0.87578311  0.78611069  1  0  -0.343267  0  3.350712  0  0  -0.254692  0  3.62518  0  0  -0.275002  0  3.64062  0  0  -0.334275  -0.241047  0  3.614535  0
N  N93  1  0.66093896  0.12420725  0.21388693  1  0  -0.342939  0  3.350324  0  0  -0.254356  0  3.624743  0  0  -0.274663  0  3.640176  0  0  -0.334157  -0.240712  0  3.614097  0
O  O94  1  0.36405709  0.14324120  0.64950798  1  0  -0.648559  0  1.946379  0  0  -0.582504  0  2.199534  0  0  -0.610263  0  2.185966  0  0  -0.340024  -0.562829  0  2.207939  0
O  O95  1  0.63593842  0.85676143  0.35049526  1  0  -0.648653  0  1.946408  0  0  -0.582573  0  2.199549  0  0  -0.610338  0  2.185994  0  0  -0.340082  -0.562896  0  2.207945  0
O  O96  1  0.54327810  0.19240110  0.76984696  1  0  -0.602772  0  1.940687  0  0  -0.549538  0  2.173491  0  0  -0.575071  0  2.166175  0  0  -0.308967  -0.531606  0  2.177871  0
O  O97  1  0.45672276  0.80759051  0.23015424  1  0  -0.602805  0  1.940663  0  0  -0.549554  0  2.173473  0  0  -0.575087  0  2.166154  0  0  -0.308927  -0.531628  0  2.177858  0
O  O98  1  0.16172384  0.26983772  0.81074302  1  0  -0.660271  0  2.080096  0  0  -0.580424  0  2.359172  0  0  -0.61102  0  2.345476  0  0  -0.338337  -0.558844  0  2.367672  0
O  O99  1  0.83827244  0.73015869  0.18925284  1  0  -0.66019  0  2.080066  0  0  -0.580388  0  2.359179  0  0  -0.610963  0  2.345433  0  0  -0.338396  -0.558809  0  2.36768  0
O  O100  1  0.31943575  0.25237612  0.93287854  1  0  -0.600034  0  1.931853  0  0  -0.554766  0  2.157293  0  0  -0.577575  0  2.148971  0  0  -0.312951  -0.53877  0  2.162506  0
O  O101  1  0.68058349  0.74762385  0.06711837  1  0  -0.599972  0  1.932075  0  0  -0.554705  0  2.157491  0  0  -0.577514  0  2.14916  0  0  -0.312918  -0.538713  0  2.162708  0
