# generated using pymatgen
data_FeH8(C6N5)2
_symmetry_space_group_name_H-M   'P 1'
_cell_length_a   6.20426251
_cell_length_b   7.15135566
_cell_length_c   9.33093845
_cell_angle_alpha   112.64855782
_cell_angle_beta   107.35514543
_cell_angle_gamma   90.00911226
_symmetry_Int_Tables_number   1
_chemical_formula_structural   FeH8(C6N5)2
_chemical_formula_sum   'Fe1 H8 C12 N10'
_cell_volume   361.56020024
_cell_formula_units_Z   1
loop_
 _symmetry_equiv_pos_site_id
 _symmetry_equiv_pos_as_xyz
  1  'x, y, z'
loop_
 _atom_site_type_symbol
 _atom_site_label
 _atom_site_symmetry_multiplicity
 _atom_site_fract_x
 _atom_site_fract_y
 _atom_site_fract_z
 _atom_site_occupancy
 _atom_site_hle17_bader_spin_density
 _atom_site_hle17_ddec_charge
 _atom_site_hle17_ddec_spin_density
 _atom_site_hle17_ddec_sum_bond_order
 _atom_site_hle17_magmom
 _atom_site_hse06_10hf_bader_spin_density
 _atom_site_hse06_10hf_ddec_charge
 _atom_site_hse06_10hf_ddec_spin_density
 _atom_site_hse06_10hf_ddec_sum_bond_order
 _atom_site_hse06_10hf_magmom
 _atom_site_hse06_bader_spin_density
 _atom_site_hse06_ddec_charge
 _atom_site_hse06_ddec_spin_density
 _atom_site_hse06_ddec_sum_bond_order
 _atom_site_hse06_magmom
 _atom_site_pbe_bader_spin_density
 _atom_site_pbe_cm5_charge
 _atom_site_pbe_ddec_charge
 _atom_site_pbe_ddec_spin_density
 _atom_site_pbe_ddec_sum_bond_order
 _atom_site_pbe_magmom
Fe  Fe0  1  0.49308483  0.01144456  0.02343368  1  0  0.703397  0  3.107151  0  0  0.669406  0  3.626179  0  0  0.718706  0  3.555802  0  0  0.800416  0.642102  0  3.668549  0
H  H1  1  0.26584041  0.68081229  0.36072962  1  0  0.085237  0  0.974182  0  0  0.0868  0  1.046483  0  0  0.088945  0  1.046096  0  0  0.11172  0.085401  0  1.046497  0
H  H2  1  0.74256168  0.31174844  0.62318230  1  0  0.089491  0  0.967262  0  0  0.088371  0  1.041957  0  0  0.091419  0  1.040231  0  0  0.112299  0.085983  0  1.043544  0
H  H3  1  0.66259731  0.67040675  0.33925924  1  0  0.101609  0  0.965904  0  0  0.112673  0  1.023211  0  0  0.114028  0  1.023535  0  0  0.111068  0.111743  0  1.023057  0
H  H4  1  0.34978336  0.32753047  0.65465828  1  0  0.109301  0  0.951812  0  0  0.118033  0  1.011071  0  0  0.121027  0  1.007798  0  0  0.110623  0.115411  0  1.014395  0
H  H5  1  0.99755491  0.80377907  0.60683364  1  0  0.114808  0  0.97239  0  0  0.111745  0  1.049339  0  0  0.115849  0  1.047007  0  0  0.110496  0.10906  0  1.050575  0
H  H6  1  0.00812438  0.19483069  0.38936643  1  0  0.119222  0  0.966313  0  0  0.116582  0  1.042164  0  0  0.120492  0  1.039655  0  0  0.112638  0.113827  0  1.044093  0
H  H7  1  0.89690076  0.93372475  0.86829624  1  0  0.091837  0  0.967634  0  0  0.097333  0  1.036196  0  0  0.098224  0  1.036334  0  0  0.121526  0.096697  0  1.03641  0
H  H8  1  0.09390242  0.06304086  0.12591317  1  0  0.100214  0  0.96779  0  0  0.104571  0  1.036806  0  0  0.106735  0  1.034242  0  0  0.125162  0.102621  0  1.039322  0
C  C9  1  0.41748163  0.73513516  0.46956959  1  0  0.062615  0  3.721715  0  0  0.039422  0  3.983911  0  0  0.038569  0  4.00647  0  0  0.045807  0.040774  0  3.96748  0
C  C10  1  0.58731369  0.25880874  0.51702434  1  0  0.067537  0  3.721864  0  0  0.041498  0  3.994682  0  0  0.041721  0  4.00854  0  0  0.045531  0.040849  0  3.987306  0
C  C11  1  0.63732533  0.72972243  0.45843527  1  0  -0.057221  0  3.705071  0  0  -0.072504  0  3.945214  0  0  -0.075343  0  3.969043  0  0  -0.062715  -0.070398  0  3.928569  0
C  C12  1  0.37098257  0.26737476  0.53408598  1  0  -0.055556  0  3.691016  0  0  -0.079266  0  3.945364  0  0  -0.072213  0  3.955949  0  0  -0.070406  -0.085789  0  3.941215  0
C  C13  1  0.81952354  0.80193759  0.60322138  1  0  -0.061017  0  3.678624  0  0  -0.06912  0  3.9187  0  0  -0.073577  0  3.940714  0  0  -0.060246  -0.065698  0  3.903254  0
C  C14  1  0.18519140  0.19570449  0.39088320  1  0  -0.058565  0  3.680499  0  0  -0.069441  0  3.931773  0  0  -0.072902  0  3.945974  0  0  -0.062438  -0.068161  0  3.924436  0
C  C15  1  0.76577626  0.87425464  0.74872571  1  0  0.081107  0  3.681398  0  0  0.055517  0  3.931483  0  0  0.056981  0  3.954645  0  0  0.057734  0.054416  0  3.915671  0
C  C16  1  0.22967476  0.12155085  0.24279391  1  0  0.086505  0  3.624484  0  0  0.050425  0  3.880117  0  0  0.059236  0  3.893034  0  0  0.050522  0.043853  0  3.873586  0
C  C17  1  0.19023500  0.60362726  0.89531840  1  0  0.485144  0  3.9341  0  0  0.453146  0  4.224167  0  0  0.478985  0  4.233282  0  0  0.31149  0.435266  0  4.217769  0
C  C18  1  0.80717713  0.71528955  0.11686784  1  0  0.479514  0  3.934871  0  0  0.448233  0  4.2244  0  0  0.474235  0  4.2331  0  0  0.310309  0.43023  0  4.218251  0
C  C19  1  0.80718124  0.40155096  0.11695751  1  0  0.47835  0  3.935323  0  0  0.446957  0  4.224927  0  0  0.472975  0  4.233638  0  0  0.31005  0.42895  0  4.218759  0
C  C20  1  0.19025366  0.29043383  0.89541147  1  0  0.486097  0  3.933572  0  0  0.454021  0  4.223765  0  0  0.479894  0  4.23285  0  0  0.311859  0.436109  0  4.217399  0
N  N21  1  0.55113338  0.87507018  0.75063976  1  0  -0.122207  0  3.151359  0  0  -0.085038  0  3.430376  0  0  -0.10189  0  3.451209  0  0  -0.154404  -0.072406  0  3.415309  0
N  N22  1  0.44440349  0.11748696  0.23492600  1  0  -0.081749  0  3.336364  0  0  -0.037122  0  3.623848  0  0  -0.057954  0  3.641606  0  0  -0.205018  -0.024811  0  3.612129  0
N  N23  1  0.37559971  0.80639757  0.61286033  1  0  -0.162923  0  3.033538  0  0  -0.135283  0  3.307187  0  0  -0.141912  0  3.326814  0  0  -0.175939  -0.12984  0  3.292782  0
N  N24  1  0.62382209  0.18613779  0.37215156  1  0  -0.152175  0  2.993159  0  0  -0.131332  0  3.266676  0  0  -0.131605  0  3.28096  0  0  -0.181239  -0.131218  0  3.258111  0
N  N25  1  0.27202185  0.77332700  0.94131777  1  0  -0.514887  0  3.124638  0  0  -0.494178  0  3.438789  0  0  -0.516976  0  3.440042  0  0  -0.390108  -0.479691  0  3.437366  0
N  N26  1  0.71703279  0.84622125  0.08609533  1  0  -0.511843  0  3.13138  0  0  -0.493242  0  3.449901  0  0  -0.516073  0  3.450942  0  0  -0.39055  -0.478434  0  3.448253  0
N  N27  1  0.71704754  0.23970521  0.08626561  1  0  -0.510655  0  3.131274  0  0  -0.491932  0  3.449489  0  0  -0.514758  0  3.450563  0  0  -0.390361  -0.47713  0  3.447827  0
N  N28  1  0.27203223  0.16707551  0.94155256  1  0  -0.515564  0  3.124269  0  0  -0.494884  0  3.43864  0  0  -0.517706  0  3.439897  0  0  -0.390417  -0.480391  0  3.437233  0
N  N29  1  0.09052078  0.41687132  0.83541524  1  0  -0.470432  0  3.242654  0  0  -0.422041  0  3.505422  0  0  -0.444063  0  3.505194  0  0  -0.312723  -0.405793  0  3.504946  0
N  N30  1  0.91791637  0.57899077  0.15781069  1  0  -0.46719  0  3.248697  0  0  -0.41935  0  3.51231  0  0  -0.441049  0  3.511602  0  0  -0.312684  -0.40353  0  3.512337  0
