# generated using pymatgen
data_Hg5H14C6(NCl)10
_symmetry_space_group_name_H-M   'P 1'
_cell_length_a   9.29062165
_cell_length_b   10.02935294
_cell_length_c   14.87688961
_cell_angle_alpha   91.38649228
_cell_angle_beta   89.99995303
_cell_angle_gamma   90.00003155
_symmetry_Int_Tables_number   1
_chemical_formula_structural   Hg5H14C6(NCl)10
_chemical_formula_sum   'Hg10 H28 C12 N20 Cl20'
_cell_volume   1385.80670680
_cell_formula_units_Z   2
loop_
 _symmetry_equiv_pos_site_id
 _symmetry_equiv_pos_as_xyz
  1  'x, y, z'
loop_
 _atom_site_type_symbol
 _atom_site_label
 _atom_site_symmetry_multiplicity
 _atom_site_fract_x
 _atom_site_fract_y
 _atom_site_fract_z
 _atom_site_occupancy
 _atom_site_hle17_bader_spin_density
 _atom_site_hle17_ddec_charge
 _atom_site_hle17_ddec_spin_density
 _atom_site_hle17_ddec_sum_bond_order
 _atom_site_hle17_magmom
 _atom_site_hse06_10hf_bader_spin_density
 _atom_site_hse06_10hf_ddec_charge
 _atom_site_hse06_10hf_ddec_spin_density
 _atom_site_hse06_10hf_ddec_sum_bond_order
 _atom_site_hse06_10hf_magmom
 _atom_site_hse06_bader_spin_density
 _atom_site_hse06_ddec_charge
 _atom_site_hse06_ddec_spin_density
 _atom_site_hse06_ddec_sum_bond_order
 _atom_site_hse06_magmom
 _atom_site_pbe_bader_spin_density
 _atom_site_pbe_cm5_charge
 _atom_site_pbe_ddec_charge
 _atom_site_pbe_ddec_spin_density
 _atom_site_pbe_ddec_sum_bond_order
 _atom_site_pbe_magmom
Hg  Hg0  1  0.00000289  0.00000190  0.49999924  1  0  0.832334  0  2.017959  0  0  0.671159  0  2.474594  0  0  0.718926  0  2.442592  0  0  0.621574  0.636912  0  2.496437  0
Hg  Hg1  1  0.49999575  0.49999645  0.00000070  1  0  0.832353  0  2.01799  0  0  0.671175  0  2.474618  0  0  0.718944  0  2.442611  0  0  0.621575  0.636931  0  2.496449  0
Hg  Hg2  1  0.46292035  0.11958355  0.40015769  1  0  0.761971  0  2.145223  0  0  0.635778  0  2.644754  0  0  0.682628  0  2.609136  0  0  0.448013  0.60394  0  2.668206  0
Hg  Hg3  1  0.96291946  0.38042001  0.09984276  1  0  0.761988  0  2.145211  0  0  0.635803  0  2.644735  0  0  0.682651  0  2.609114  0  0  0.447995  0.603958  0  2.668177  0
Hg  Hg4  1  0.53708017  0.88041713  0.59984291  1  0  0.761986  0  2.145229  0  0  0.635793  0  2.644764  0  0  0.682641  0  2.609146  0  0  0.448007  0.603948  0  2.668206  0
Hg  Hg5  1  0.03707998  0.61958067  0.90015515  1  0  0.76202  0  2.145199  0  0  0.635838  0  2.644713  0  0  0.682683  0  2.609102  0  0  0.448028  0.603995  0  2.668152  0
Hg  Hg6  1  0.13440628  0.88384028  0.72411292  1  0  0.766268  0  2.115628  0  0  0.622713  0  2.616109  0  0  0.6685  0  2.581578  0  0  0.481187  0.591785  0  2.638811  0
Hg  Hg7  1  0.63440931  0.61615757  0.77588577  1  0  0.766245  0  2.11565  0  0  0.6227  0  2.616108  0  0  0.66849  0  2.581578  0  0  0.481197  0.591784  0  2.638848  0
Hg  Hg8  1  0.86559532  0.11616539  0.27588709  1  0  0.766278  0  2.115569  0  0  0.622729  0  2.616042  0  0  0.668502  0  2.581541  0  0  0.481226  0.591811  0  2.638788  0
Hg  Hg9  1  0.36559229  0.38384112  0.22411346  1  0  0.766253  0  2.115657  0  0  0.622714  0  2.616115  0  0  0.6685  0  2.581585  0  0  0.481211  0.591786  0  2.638888  0
H  H10  1  0.09436808  0.29617960  0.43472336  1  0  0.335416  0  0.91365  0  0  0.318399  0  0.980323  0  0  0.324829  0  0.975559  0  0  0.279053  0.313684  0  0.984085  0
H  H11  1  0.59436929  0.20381981  0.06528058  1  0  0.335419  0  0.913552  0  0  0.3184  0  0.980255  0  0  0.324829  0  0.975491  0  0  0.279052  0.313681  0  0.984027  0
H  H12  1  0.90563352  0.70382408  0.56527594  1  0  0.335487  0  0.91357  0  0  0.318457  0  0.980274  0  0  0.324889  0  0.975502  0  0  0.279062  0.313742  0  0.984022  0
H  H13  1  0.40563231  0.79617690  0.93472266  1  0  0.335444  0  0.913616  0  0  0.318414  0  0.980328  0  0  0.324847  0  0.975552  0  0  0.279043  0.3137  0  0.984073  0
H  H14  1  0.15829060  0.43492736  0.49474767  1  0  0.346832  0  0.864212  0  0  0.328769  0  0.929776  0  0  0.336411  0  0.922652  0  0  0.308587  0.323722  0  0.934009  0
H  H15  1  0.65829289  0.06507108  0.00525622  1  0  0.346846  0  0.864222  0  0  0.328799  0  0.929754  0  0  0.33644  0  0.922631  0  0  0.308633  0.32375  0  0.933986  0
H  H16  1  0.84171099  0.56507631  0.50524895  1  0  0.346805  0  0.864321  0  0  0.328735  0  0.929896  0  0  0.33638  0  0.922768  0  0  0.30856  0.323685  0  0.934126  0
H  H17  1  0.34171086  0.93492563  0.99474836  1  0  0.346821  0  0.864263  0  0  0.328761  0  0.929818  0  0  0.336404  0  0.922694  0  0  0.308569  0.323709  0  0.934041  0
H  H18  1  0.20418516  0.51584133  0.69176469  1  0  0.282155  0  0.946326  0  0  0.268405  0  1.020424  0  0  0.27328  0  1.0161  0  0  0.272374  0.26487  0  1.023778  0
H  H19  1  0.70418406  0.98415557  0.80823865  1  0  0.282191  0  0.946309  0  0  0.268416  0  1.020429  0  0  0.273289  0  1.016108  0  0  0.272377  0.264874  0  1.023785  0
H  H20  1  0.79581643  0.48416434  0.30823531  1  0  0.282213  0  0.946264  0  0  0.268467  0  1.020356  0  0  0.27334  0  1.016037  0  0  0.272414  0.26493  0  1.023712  0
H  H21  1  0.29582077  0.01584113  0.19176189  1  0  0.282146  0  0.946325  0  0  0.268404  0  1.020421  0  0  0.273278  0  1.016098  0  0  0.272371  0.264861  0  1.023797  0
H  H22  1  0.35765176  0.45003337  0.64882123  1  0  0.284349  0  0.927297  0  0  0.270991  0  0.999149  0  0  0.276364  0  0.993941  0  0  0.280889  0.267542  0  1.002076  0
H  H23  1  0.85764926  0.04996696  0.85117832  1  0  0.284367  0  0.927354  0  0  0.271012  0  0.999193  0  0  0.276385  0  0.993985  0  0  0.280868  0.267554  0  1.00213  0
H  H24  1  0.64234876  0.54997130  0.35117876  1  0  0.284301  0  0.927387  0  0  0.270957  0  0.999221  0  0  0.27633  0  0.994013  0  0  0.280874  0.26751  0  1.002153  0
H  H25  1  0.14235126  0.95003472  0.14882095  1  0  0.284394  0  0.92731  0  0  0.271032  0  0.999159  0  0  0.276405  0  0.99395  0  0  0.280886  0.267574  0  1.002085  0
H  H26  1  0.29903445  0.34543439  0.80813787  1  0  0.137361  0  0.970313  0  0  0.151865  0  1.039784  0  0  0.154167  0  1.039033  0  0  0.085565  0.149872  0  1.040843  0
H  H27  1  0.79899025  0.15455092  0.69185207  1  0  0.137398  0  0.970308  0  0  0.151851  0  1.039848  0  0  0.154152  0  1.039102  0  0  0.085609  0.149858  0  1.040897  0
H  H28  1  0.70096930  0.65456929  0.19186210  1  0  0.137409  0  0.970309  0  0  0.151884  0  1.039796  0  0  0.154186  0  1.039045  0  0  0.08559  0.149895  0  1.040847  0
H  H29  1  0.20097368  0.84543677  0.30813893  1  0  0.13737  0  0.970293  0  0  0.15185  0  1.039793  0  0  0.15415  0  1.039046  0  0  0.085582  0.149863  0  1.040842  0
H  H30  1  0.34536822  0.17213741  0.80191083  1  0  0.14121  0  0.938584  0  0  0.156732  0  1.003816  0  0  0.159296  0  1.002714  0  0  0.089944  0.154699  0  1.00492  0
H  H31  1  0.84537793  0.32783402  0.69809771  1  0  0.141296  0  0.938307  0  0  0.156799  0  1.003568  0  0  0.159379  0  1.002447  0  0  0.089985  0.154767  0  1.004678  0
H  H32  1  0.65463876  0.82786427  0.19808643  1  0  0.141246  0  0.93856  0  0  0.156763  0  1.003787  0  0  0.159327  0  1.002685  0  0  0.089959  0.154732  0  1.004902  0
H  H33  1  0.15463766  0.67214177  0.30191395  1  0  0.141215  0  0.938607  0  0  0.156735  0  1.003842  0  0  0.159301  0  1.002738  0  0  0.089946  0.154709  0  1.004934  0
H  H34  1  0.17925445  0.22399825  0.85074918  1  0  0.144424  0  0.954572  0  0  0.160709  0  1.018394  0  0  0.163514  0  1.016938  0  0  0.088517  0.158729  0  1.01919  0
H  H35  1  0.67925021  0.27603092  0.64925291  1  0  0.144333  0  0.954662  0  0  0.16069  0  1.018431  0  0  0.163492  0  1.016989  0  0  0.088504  0.158709  0  1.019228  0
H  H36  1  0.82074930  0.77600043  0.14924938  1  0  0.144375  0  0.954648  0  0  0.160681  0  1.018449  0  0  0.163487  0  1.016996  0  0  0.088514  0.158706  0  1.019237  0
H  H37  1  0.32075246  0.72399969  0.35074882  1  0  0.144382  0  0.954651  0  0  0.160693  0  1.018454  0  0  0.163496  0  1.017006  0  0  0.088527  0.158715  0  1.019256  0
C  C38  1  0.18834651  0.23090995  0.70771886  1  0  0.378154  0  3.686973  0  0  0.348272  0  3.968624  0  0  0.366846  0  3.978934  0  0  0.232457  0.335702  0  3.961612  0
C  C39  1  0.68833346  0.26908232  0.79228201  1  0  0.378194  0  3.687016  0  0  0.348359  0  3.968585  0  0  0.366831  0  3.979049  0  0  0.232492  0.33583  0  3.961523  0
C  C40  1  0.81165724  0.76909372  0.29227843  1  0  0.378262  0  3.686885  0  0  0.348379  0  3.968512  0  0  0.366955  0  3.978824  0  0  0.232566  0.335805  0  3.961523  0
C  C41  1  0.31165629  0.73091039  0.20771915  1  0  0.378221  0  3.68698  0  0  0.348397  0  3.968545  0  0  0.366972  0  3.978859  0  0  0.232488  0.335814  0  3.961567  0
C  C42  1  0.25685102  0.24428353  0.79720572  1  0  -0.391882  0  3.669014  0  0  -0.466759  0  3.903313  0  0  -0.471881  0  3.907387  0  0  -0.244571  -0.462854  0  3.901008  0
C  C43  1  0.75683701  0.25571077  0.70279513  1  0  -0.391917  0  3.668922  0  0  -0.466846  0  3.903285  0  0  -0.471915  0  3.907313  0  0  -0.244655  -0.46294  0  3.900958  0
C  C44  1  0.74315380  0.75571815  0.20279221  1  0  -0.391942  0  3.669102  0  0  -0.4668  0  3.903396  0  0  -0.471909  0  3.907438  0  0  -0.244607  -0.462892  0  3.901095  0
C  C45  1  0.24315598  0.74428493  0.29720674  1  0  -0.391888  0  3.669094  0  0  -0.46679  0  3.903417  0  0  -0.471894  0  3.907448  0  0  -0.244585  -0.462864  0  3.901098  0
C  C46  1  0.12066439  0.27756471  0.56856356  1  0  0.542578  0  3.82219  0  0  0.477555  0  4.113298  0  0  0.504636  0  4.120019  0  0  0.345259  0.459308  0  4.108852  0
C  C47  1  0.62066081  0.22243252  0.93144145  1  0  0.542472  0  3.822274  0  0  0.477454  0  4.113381  0  0  0.504546  0  4.12008  0  0  0.345132  0.459218  0  4.108912  0
C  C48  1  0.87933505  0.72244096  0.43143578  1  0  0.542534  0  3.822197  0  0  0.477554  0  4.113277  0  0  0.504631  0  4.120005  0  0  0.345284  0.459323  0  4.108799  0
C  C49  1  0.37933540  0.77756219  0.06856310  1  0  0.542581  0  3.822118  0  0  0.477528  0  4.113283  0  0  0.504595  0  4.120022  0  0  0.345283  0.4593  0  4.108799  0
N  N50  1  0.08088337  0.15301911  0.58684202  1  0  -0.337459  0  3.273517  0  0  -0.253358  0  3.558701  0  0  -0.279188  0  3.580307  0  0  -0.256104  -0.23615  0  3.54394  0
N  N51  1  0.58087666  0.34697710  0.91316030  1  0  -0.337585  0  3.273493  0  0  -0.253481  0  3.558675  0  0  -0.279307  0  3.580259  0  0  -0.256179  -0.236275  0  3.543924  0
N  N52  1  0.91911716  0.84698457  0.41315796  1  0  -0.337443  0  3.273419  0  0  -0.253406  0  3.558614  0  0  -0.279231  0  3.580213  0  0  -0.25617  -0.236205  0  3.543865  0
N  N53  1  0.41911741  0.65301860  0.08684090  1  0  -0.337497  0  3.27347  0  0  -0.253436  0  3.558723  0  0  -0.279256  0  3.580324  0  0  -0.256163  -0.236235  0  3.543966  0
N  N54  1  0.18602381  0.32976537  0.64418681  1  0  -0.082045  0  3.532468  0  0  -0.000814  0  3.760076  0  0  -0.017002  0  3.779041  0  0  -0.152913  0.00986  0  3.747378  0
N  N55  1  0.68601923  0.17023088  0.85581412  1  0  -0.082007  0  3.532413  0  0  -0.000782  0  3.759992  0  0  -0.016945  0  3.778981  0  0  -0.152868  0.009883  0  3.74728  0
N  N56  1  0.81397563  0.67023929  0.35581117  1  0  -0.081968  0  3.532399  0  0  -0.000743  0  3.759992  0  0  -0.016931  0  3.77896  0  0  -0.152919  0.009926  0  3.747291  0
N  N57  1  0.31397806  0.82976482  0.14418709  1  0  -0.08204  0  3.532529  0  0  -0.000811  0  3.760136  0  0  -0.016996  0  3.779104  0  0  -0.152907  0.009862  0  3.747433  0
N  N58  1  0.12413659  0.12454337  0.67356826  1  0  -0.307286  0  3.104764  0  0  -0.273292  0  3.393617  0  0  -0.289525  0  3.413228  0  0  -0.24302  -0.262506  0  3.380048  0
N  N59  1  0.62412356  0.37545087  0.82643266  1  0  -0.307203  0  3.104535  0  0  -0.273216  0  3.393354  0  0  -0.28942  0  3.413003  0  0  -0.242954  -0.262453  0  3.379796  0
N  N60  1  0.87586716  0.87546031  0.32643037  1  0  -0.307417  0  3.104799  0  0  -0.273412  0  3.39369  0  0  -0.289645  0  3.413303  0  0  -0.243118  -0.262634  0  3.380154  0
N  N61  1  0.37586620  0.62454284  0.17356851  1  0  -0.307271  0  3.104722  0  0  -0.273276  0  3.393559  0  0  -0.289511  0  3.413169  0  0  -0.243011  -0.262497  0  3.380031  0
N  N62  1  0.10106943  0.34812679  0.49451488  1  0  -0.666632  0  3.099668  0  0  -0.636835  0  3.339415  0  0  -0.655739  0  3.333818  0  0  -0.576207  -0.623964  0  3.342822  0
N  N63  1  0.60107177  0.15187162  0.00548770  1  0  -0.666569  0  3.099856  0  0  -0.636784  0  3.339573  0  0  -0.65569  0  3.33397  0  0  -0.576169  -0.623925  0  3.343001  0
N  N64  1  0.89893001  0.65187988  0.50548380  1  0  -0.666632  0  3.099703  0  0  -0.636834  0  3.339417  0  0  -0.65574  0  3.333823  0  0  -0.576151  -0.623959  0  3.342802  0
N  N65  1  0.39893198  0.84812508  0.99451218  1  0  -0.666666  0  3.09953  0  0  -0.636851  0  3.339272  0  0  -0.655752  0  3.333677  0  0  -0.576207  -0.62398  0  3.342654  0
N  N66  1  0.24807460  0.45527311  0.64266291  1  0  -0.504641  0  3.013908  0  0  -0.506925  0  3.253222  0  0  -0.514025  0  3.252221  0  0  -0.505678  -0.501448  0  3.252943  0
N  N67  1  0.74807424  0.04472518  0.85733936  1  0  -0.504689  0  3.013835  0  0  -0.506954  0  3.253159  0  0  -0.514055  0  3.252157  0  0  -0.505679  -0.501489  0  3.252889  0
N  N68  1  0.75192592  0.54473157  0.35733641  1  0  -0.504712  0  3.014146  0  0  -0.507002  0  3.253437  0  0  -0.514109  0  3.252443  0  0  -0.505705  -0.50152  0  3.253161  0
N  N69  1  0.25192735  0.95527351  0.14266189  1  0  -0.504668  0  3.013955  0  0  -0.50696  0  3.253225  0  0  -0.514062  0  3.252226  0  0  -0.505663  -0.501483  0  3.252959  0
Cl  Cl70  1  0.17237362  0.10330058  0.35114908  1  0  -0.589823  0  1.025216  0  0  -0.537364  0  1.324855  0  0  -0.558443  0  1.303276  0  0  -0.316033  -0.521679  0  1.339719  0
Cl  Cl71  1  0.67237483  0.39670184  0.14885151  1  0  -0.589825  0  1.025199  0  0  -0.537376  0  1.324849  0  0  -0.558457  0  1.303275  0  0  -0.316038  -0.521699  0  1.33972  0
Cl  Cl72  1  0.82762905  0.89669811  0.64885082  1  0  -0.589858  0  1.025253  0  0  -0.537386  0  1.324869  0  0  -0.558463  0  1.303278  0  0  -0.316062  -0.521733  0  1.339732  0
Cl  Cl73  1  0.32762569  0.60330084  0.85115048  1  0  -0.589867  0  1.025268  0  0  -0.537406  0  1.324904  0  0  -0.558489  0  1.303329  0  0  -0.316054  -0.521739  0  1.339769  0
Cl  Cl74  1  0.08105023  0.92424604  0.87809608  1  0  -0.398311  0  1.087509  0  0  -0.333916  0  1.370569  0  0  -0.353543  0  1.352074  0  0  -0.221586  -0.319257  0  1.380664  0
Cl  Cl75  1  0.58105021  0.57574879  0.62190259  1  0  -0.398285  0  1.087483  0  0  -0.333901  0  1.37056  0  0  -0.353532  0  1.352067  0  0  -0.22157  -0.319239  0  1.38068  0
Cl  Cl76  1  0.91895029  0.07575364  0.12190317  1  0  -0.39832  0  1.087471  0  0  -0.333924  0  1.370524  0  0  -0.35355  0  1.352031  0  0  -0.221569  -0.319228  0  1.380632  0
Cl  Cl77  1  0.41895138  0.42424890  0.37809730  1  0  -0.398312  0  1.087475  0  0  -0.333923  0  1.370529  0  0  -0.353552  0  1.352036  0  0  -0.221562  -0.319231  0  1.38065  0
Cl  Cl78  1  0.45509946  0.16038300  0.55906716  1  0  -0.41307  0  1.134234  0  0  -0.353115  0  1.427291  0  0  -0.374513  0  1.411836  0  0  -0.23728  -0.338714  0  1.436605  0
Cl  Cl79  1  0.95509810  0.33961538  0.94093299  1  0  -0.413113  0  1.134224  0  0  -0.353152  0  1.427264  0  0  -0.374552  0  1.411817  0  0  -0.23729  -0.338756  0  1.436575  0
Cl  Cl80  1  0.54490106  0.83961570  0.44093409  1  0  -0.413107  0  1.13425  0  0  -0.353147  0  1.427296  0  0  -0.374546  0  1.411842  0  0  -0.237298  -0.338761  0  1.436622  0
Cl  Cl81  1  0.04490135  0.66038330  0.05906490  1  0  -0.413118  0  1.13423  0  0  -0.353173  0  1.427294  0  0  -0.374568  0  1.411834  0  0  -0.23732  -0.338802  0  1.436611  0
Cl  Cl82  1  0.53397274  0.08017449  0.24594888  1  0  -0.439615  0  1.124491  0  0  -0.371703  0  1.418011  0  0  -0.392836  0  1.400212  0  0  -0.238203  -0.358398  0  1.431126  0
Cl  Cl83  1  0.03397292  0.41982986  0.25405180  1  0  -0.439594  0  1.124445  0  0  -0.371685  0  1.417961  0  0  -0.392814  0  1.400158  0  0  -0.238225  -0.358416  0  1.431079  0
Cl  Cl84  1  0.46602886  0.91982520  0.75405305  1  0  -0.43961  0  1.124475  0  0  -0.371695  0  1.417984  0  0  -0.392827  0  1.400183  0  0  -0.238246  -0.358439  0  1.431088  0
Cl  Cl85  1  0.96602545  0.58016783  0.74594675  1  0  -0.439603  0  1.124429  0  0  -0.371683  0  1.417931  0  0  -0.392816  0  1.400133  0  0  -0.238249  -0.358424  0  1.431048  0
Cl  Cl86  1  0.20627883  0.79953959  0.57988130  1  0  -0.406115  0  1.145085  0  0  -0.341678  0  1.447957  0  0  -0.363237  0  1.429152  0  0  -0.231028  -0.327167  0  1.459709  0
Cl  Cl87  1  0.70627418  0.70045830  0.92011735  1  0  -0.406104  0  1.145113  0  0  -0.341665  0  1.447976  0  0  -0.363233  0  1.429191  0  0  -0.231017  -0.327144  0  1.459721  0
Cl  Cl88  1  0.79372600  0.20046209  0.42011932  1  0  -0.406094  0  1.145064  0  0  -0.341655  0  1.447933  0  0  -0.36321  0  1.429126  0  0  -0.231007  -0.327115  0  1.459687  0
Cl  Cl89  1  0.29372311  0.29953940  0.07988254  1  0  -0.406088  0  1.1451  0  0  -0.341657  0  1.447983  0  0  -0.36321  0  1.429169  0  0  -0.230993  -0.32711  0  1.459732  0
