# generated using pymatgen
data_CdH11C12SNO7
_symmetry_space_group_name_H-M   'P 1'
_cell_length_a   7.41779813
_cell_length_b   11.90874225
_cell_length_c   15.64530000
_cell_angle_alpha   90.00000000
_cell_angle_beta   90.66072603
_cell_angle_gamma   90.00000000
_symmetry_Int_Tables_number   1
_chemical_formula_structural   CdH11C12SNO7
_chemical_formula_sum   'Cd4 H44 C48 S4 N4 O28'
_cell_volume   1381.96143378
_cell_formula_units_Z   4
loop_
 _symmetry_equiv_pos_site_id
 _symmetry_equiv_pos_as_xyz
  1  'x, y, z'
loop_
 _atom_site_type_symbol
 _atom_site_label
 _atom_site_symmetry_multiplicity
 _atom_site_fract_x
 _atom_site_fract_y
 _atom_site_fract_z
 _atom_site_occupancy
 _atom_site_hle17_bader_spin_density
 _atom_site_hle17_ddec_charge
 _atom_site_hle17_ddec_spin_density
 _atom_site_hle17_ddec_sum_bond_order
 _atom_site_hle17_magmom
 _atom_site_hse06_10hf_bader_spin_density
 _atom_site_hse06_10hf_ddec_charge
 _atom_site_hse06_10hf_ddec_spin_density
 _atom_site_hse06_10hf_ddec_sum_bond_order
 _atom_site_hse06_10hf_magmom
 _atom_site_hse06_bader_spin_density
 _atom_site_hse06_ddec_charge
 _atom_site_hse06_ddec_spin_density
 _atom_site_hse06_ddec_sum_bond_order
 _atom_site_hse06_magmom
 _atom_site_pbe_bader_charge
 _atom_site_pbe_bader_spin_density
 _atom_site_pbe_cm5_charge
 _atom_site_pbe_ddec_charge
 _atom_site_pbe_ddec_spin_density
 _atom_site_pbe_ddec_sum_bond_order
 _atom_site_pbe_magmom
Cd  Cd0  1  0.69226897  0.50564114  0.83257630  1  0  1.24847  0  1.585889  0  0  1.069873  0  2.026963  0  0  1.12426  0  1.970442  0  1.319646  0  0.806561  1.030889  0  2.066002  0
Cd  Cd1  1  0.80773139  0.00564207  0.66742361  1  0  1.248502  0  1.585856  0  0  1.069912  0  2.026938  0  0  1.124298  0  1.970416  0  1.31969  0  0.806581  1.03093  0  2.065977  0
Cd  Cd2  1  0.30773172  0.49435783  0.16742428  1  0  1.24848  0  1.585895  0  0  1.069888  0  2.02697  0  0  1.124275  0  1.970449  0  1.319679  0  0.806564  1.030905  0  2.066009  0
Cd  Cd3  1  0.19226795  0.99435774  0.33257505  1  0  1.248516  0  1.585838  0  0  1.069915  0  2.026911  0  0  1.124302  0  1.970389  0  1.319671  0  0.806589  1.030934  0  2.06595  0
H  H4  1  0.51235321  0.69637245  0.74348246  1  0  0.428173  0  0.867585  0  0  0.399175  0  0.928202  0  0  0.40949  0  0.913135  0  0.631453  0  0.291971  0.391827  0  0.938921  0
H  H5  1  0.98764579  0.19637170  0.75651871  1  0  0.428188  0  0.867564  0  0  0.399196  0  0.92817  0  0  0.40951  0  0.913105  0  0.631479  0  0.291986  0.391847  0  0.938891  0
H  H6  1  0.48764478  0.30362820  0.25651938  1  0  0.4282  0  0.867545  0  0  0.399206  0  0.928155  0  0  0.40952  0  0.91309  0  0.631471  0  0.291979  0.391857  0  0.938877  0
H  H7  1  0.01235354  0.80362895  0.24348122  1  0  0.428207  0  0.867534  0  0  0.399208  0  0.928155  0  0  0.409522  0  0.91309  0  0.631497  0  0.291986  0.391859  0  0.938876  0
H  H8  1  0.69886031  0.69272723  0.70031893  1  0  0.418825  0  0.876088  0  0  0.387026  0  0.947265  0  0  0.397221  0  0.932541  0  0.610766  0  0.289676  0.379758  0  0.957755  0
H  H9  1  0.80113870  0.19272816  0.79968224  1  0  0.41885  0  0.876107  0  0  0.387055  0  0.94723  0  0  0.39725  0  0.932504  0  0.610712  0  0.289686  0.379788  0  0.957716  0
H  H10  1  0.30113768  0.30727258  0.29968291  1  0  0.418859  0  0.87608  0  0  0.387062  0  0.947218  0  0  0.397257  0  0.932494  0  0.61072  0  0.289673  0.379794  0  0.957706  0
H  H11  1  0.19886199  0.80727165  0.20031706  1  0  0.418837  0  0.876111  0  0  0.38704  0  0.94725  0  0  0.397235  0  0.932525  0  0.610705  0  0.289662  0.379772  0  0.957736  0
H  H12  1  0.36548585  0.56462470  0.92345710  1  0  0.437096  0  0.863512  0  0  0.404649  0  0.929419  0  0  0.416241  0  0.91256  0  0.663895  0  0.290186  0.396429  0  0.941343  0
H  H13  1  0.13451382  0.06462395  0.57654287  1  0  0.437063  0  0.86356  0  0  0.404593  0  0.929482  0  0  0.416183  0  0.912629  0  0.663893  0  0.290173  0.396372  0  0.941407  0
H  H14  1  0.63451483  0.43537595  0.07654284  1  0  0.437055  0  0.863572  0  0  0.404584  0  0.929496  0  0  0.416174  0  0.912643  0  0.663898  0  0.290171  0.396363  0  0.941421  0
H  H15  1  0.86548552  0.93537250  0.42345898  1  0  0.437233  0  0.863306  0  0  0.404677  0  0.929374  0  0  0.416267  0  0.912524  0  0.66379  0  0.290211  0.396457  0  0.941299  0
H  H16  1  0.30952752  0.52722780  0.82485518  1  0  0.438711  0  0.858756  0  0  0.40866  0  0.919271  0  0  0.419266  0  0.903917  0  0.662172  0  0.292319  0.401154  0  0.930114  0
H  H17  1  0.19047215  0.02722790  0.67514479  1  0  0.438813  0  0.858623  0  0  0.408769  0  0.919121  0  0  0.419372  0  0.903772  0  0.662166  0  0.292388  0.401264  0  0.929963  0
H  H18  1  0.69047182  0.47277201  0.17514540  1  0  0.438819  0  0.858612  0  0  0.408777  0  0.919108  0  0  0.419381  0  0.903758  0  0.662166  0  0.292392  0.401272  0  0.929949  0
H  H19  1  0.80952449  0.97276940  0.32485641  1  0  0.438756  0  0.858671  0  0  0.408705  0  0.919199  0  0  0.419313  0  0.90384  0  0.662118  0  0.292353  0.4012  0  0.930041  0
H  H20  1  0.94148213  0.70885152  0.78893364  1  0  0.084827  0  0.946429  0  0  0.093919  0  1.010369  0  0  0.096691  0  1.007148  0  0.125022  0  0.117733  0.091818  0  1.012838  0
H  H21  1  0.55852092  0.20885245  0.71106437  1  0  0.084859  0  0.946501  0  0  0.093955  0  1.010427  0  0  0.096727  0  1.007206  0  0.125049  0  0.117745  0.091855  0  1.012895  0
H  H22  1  0.05852126  0.29114662  0.21106632  1  0  0.084858  0  0.94642  0  0  0.093952  0  1.010356  0  0  0.096726  0  1.007135  0  0.125015  0  0.117751  0.091852  0  1.012825  0
H  H23  1  0.44148111  0.79114904  0.28893430  1  0  0.084848  0  0.94645  0  0  0.093945  0  1.010376  0  0  0.096717  0  1.007156  0  0.124998  0  0.117746  0.091845  0  1.012845  0
H  H24  1  0.02317014  0.89161053  0.85095728  1  0  0.113401  0  0.946634  0  0  0.125189  0  1.003697  0  0  0.128266  0  1.002571  0  0.109156  0  0.111945  0.122939  0  1.00476  0
H  H25  1  0.47682818  0.39161147  0.64904140  1  0  0.113394  0  0.94663  0  0  0.125179  0  1.003696  0  0  0.128255  0  1.002573  0  0.10903  0  0.111938  0.122927  0  1.004762  0
H  H26  1  0.97683054  0.10838760  0.14904266  1  0  0.113445  0  0.946619  0  0  0.125236  0  1.003669  0  0  0.128311  0  1.002548  0  0.109145  0  0.111964  0.122985  0  1.004734  0
H  H27  1  0.52317116  0.60839003  0.35095789  1  0  0.113394  0  0.94663  0  0  0.125174  0  1.003701  0  0  0.12825  0  1.002577  0  0.108896  0  0.111928  0.122923  0  1.004764  0
H  H28  1  0.84685342  0.76537470  0.09627613  1  0  0.124279  0  0.937924  0  0  0.1357  0  0.994057  0  0  0.139183  0  0.992984  0  0.119786  0  0.113287  0.133169  0  0.99503  0
H  H29  1  0.65314964  0.26537983  0.40372187  1  0  0.12428  0  0.937904  0  0  0.135691  0  0.994051  0  0  0.139178  0  0.992977  0  0.119743  0  0.113281  0.133159  0  0.995026  0
H  H30  1  0.15314592  0.23462427  0.90372316  1  0  0.124325  0  0.937888  0  0  0.135735  0  0.994035  0  0  0.139218  0  0.99296  0  0.11979  0  0.113295  0.133203  0  0.995008  0
H  H31  1  0.34685375  0.73462670  0.59627681  1  0  0.124277  0  0.937928  0  0  0.135713  0  0.99405  0  0  0.139195  0  0.992976  0  0.119765  0  0.113288  0.13318  0  0.995025  0
H  H32  1  0.76271908  0.58772621  0.02247462  1  0  0.087838  0  0.962129  0  0  0.095509  0  1.026992  0  0  0.098615  0  1.023621  0  0.146546  0  0.116227  0.093173  0  1.029506  0
H  H33  1  0.73728936  0.08773135  0.47752277  1  0  0.087899  0  0.962006  0  0  0.095566  0  1.026879  0  0  0.098674  0  1.023506  0  0.147005  0  0.116231  0.093226  0  1.029399  0
H  H34  1  0.23728430  0.41227108  0.97752533  1  0  0.087876  0  0.962014  0  0  0.095538  0  1.026889  0  0  0.098645  0  1.023517  0  0.146573  0  0.116205  0.093197  0  1.029409  0
H  H35  1  0.26271807  0.91227434  0.52247465  1  0  0.087849  0  0.962129  0  0  0.095517  0  1.026991  0  0  0.098622  0  1.023621  0  0.146535  0  0.11622  0.093179  0  1.029506  0
H  H36  1  0.96893145  0.95177893  0.09072382  1  0  0.103106  0  0.958868  0  0  0.111558  0  1.025495  0  0  0.115126  0  1.022942  0  0.131018  0  0.104082  0.109034  0  1.027287  0
H  H37  1  0.53106891  0.45178323  0.40927608  1  0  0.103109  0  0.958872  0  0  0.111554  0  1.025501  0  0  0.115121  0  1.022949  0  0.131  0  0.104078  0.109031  0  1.027293  0
H  H38  1  0.03106789  0.04821920  0.90927611  1  0  0.103084  0  0.95889  0  0  0.111543  0  1.025501  0  0  0.115105  0  1.022963  0  0.131011  0  0.10407  0.10902  0  1.027292  0
H  H39  1  0.46893043  0.54822162  0.59072385  1  0  0.103082  0  0.958878  0  0  0.111533  0  1.025506  0  0  0.115103  0  1.022949  0  0.131016  0  0.104082  0.109008  0  1.0273  0
H  H40  1  0.16131466  0.24560696  0.59983054  1  0  0.104616  0  0.976327  0  0  0.111261  0  1.044642  0  0  0.115019  0  1.041802  0  0.124695  0  0.109171  0.108534  0  1.046725  0
H  H41  1  0.33868501  0.74560855  0.90016943  1  0  0.104657  0  0.976297  0  0  0.111304  0  1.044606  0  0  0.115063  0  1.041764  0  0.124716  0  0.109183  0.108576  0  1.046691  0
H  H42  1  0.83868468  0.75439117  0.40017004  1  0  0.104644  0  0.976343  0  0  0.111295  0  1.044642  0  0  0.115054  0  1.041803  0  0.124731  0  0.109185  0.108569  0  1.046725  0
H  H43  1  0.66131567  0.25439126  0.09983115  1  0  0.104629  0  0.976305  0  0  0.111269  0  1.044625  0  0  0.115026  0  1.041787  0  0.124696  0  0.109168  0.108542  0  1.046709  0
H  H44  1  0.02937185  0.37454753  0.35060769  1  0  0.110517  0  0.971388  0  0  0.116571  0  1.03853  0  0  0.120583  0  1.034614  0  0.133318  0  0.110122  0.113612  0  1.041444  0
H  H45  1  0.47062781  0.87455163  0.14939292  1  0  0.110485  0  0.971416  0  0  0.11655  0  1.038534  0  0  0.120561  0  1.034617  0  0.133304  0  0.110105  0.113592  0  1.04145  0
H  H46  1  0.97062748  0.62544808  0.64939289  1  0  0.110475  0  0.971432  0  0  0.11654  0  1.038548  0  0  0.120551  0  1.034631  0  0.133306  0  0.110109  0.113581  0  1.041464  0
H  H47  1  0.52937152  0.12545238  0.85060765  1  0  0.110591  0  0.971307  0  0  0.116596  0  1.038507  0  0  0.120608  0  1.034591  0  0.133319  0  0.110142  0.113637  0  1.041421  0
C  C48  1  0.91986241  0.72489855  0.85655399  1  0  0.134287  0  3.725238  0  0  0.10143  0  3.977858  0  0  0.109488  0  3.99578  0  0.497227  0  0.042461  0.096171  0  3.965651  0
C  C49  1  0.58014064  0.22490032  0.64344402  1  0  0.134189  0  3.725513  0  0  0.101324  0  3.978123  0  0  0.109381  0  3.996047  0  0.497235  0  0.042434  0.096066  0  3.965913  0
C  C50  1  0.08013962  0.27509874  0.14344596  1  0  0.134224  0  3.725286  0  0  0.101371  0  3.977909  0  0  0.10943  0  3.995827  0  0.497211  0  0.042447  0.096112  0  3.965699  0
C  C51  1  0.41986274  0.77510117  0.35655402  1  0  0.134167  0  3.725262  0  0  0.101299  0  3.977894  0  0  0.109358  0  3.995814  0  0.49724  0  0.042412  0.09604  0  3.965685  0
C  C52  1  0.96527783  0.82745010  0.89184796  1  0  -0.140123  0  3.67219  0  0  -0.154932  0  3.914037  0  0  -0.162872  0  3.935008  0  -0.064774  0  -0.075587  -0.149884  0  3.90007  0
C  C53  1  0.53472118  0.32745104  0.60815002  1  0  -0.140061  0  3.672213  0  0  -0.154869  0  3.914032  0  0  -0.162807  0  3.935001  0  -0.064586  0  -0.075568  -0.149822  0  3.900067  0
C  C54  1  0.03472285  0.17254803  0.10815198  1  0  -0.140156  0  3.672243  0  0  -0.154979  0  3.914097  0  0  -0.162918  0  3.935067  0  -0.064774  0  -0.075595  -0.14993  0  3.900132  0
C  C55  1  0.46527951  0.67255129  0.39184864  1  0  -0.140093  0  3.672155  0  0  -0.154888  0  3.91398  0  0  -0.162828  0  3.934954  0  -0.064488  0  -0.07555  -0.149839  0  3.900014  0
C  C56  1  0.93714093  0.84642188  0.97953520  1  0  0.141416  0  3.785482  0  0  0.155954  0  4.016289  0  0  0.161779  0  4.039083  0  0.031022  0  0.011947  0.152257  0  4.000734  0
C  C57  1  0.56285808  0.34642533  0.52046342  1  0  0.141358  0  3.785454  0  0  0.155924  0  4.016211  0  0  0.16175  0  4.039006  0  0.030889  0  0.011896  0.152227  0  4.000659  0
C  C58  1  0.06285841  0.15357709  0.02046473  1  0  0.14144  0  3.785387  0  0  0.155996  0  4.016165  0  0  0.161823  0  4.038957  0  0.03105  0  0.011937  0.152298  0  4.000612  0
C  C59  1  0.43714126  0.65357868  0.47953588  1  0  0.14148  0  3.785405  0  0  0.156034  0  4.016183  0  0  0.161858  0  4.038978  0  0.030978  0  0.011972  0.152336  0  4.000629  0
C  C60  1  0.86821967  0.75681208  0.02773719  1  0  -0.152103  0  3.658196  0  0  -0.16909  0  3.902619  0  0  -0.177891  0  3.923741  0  -0.144323  0  -0.077414  -0.163456  0  3.888488  0
C  C61  1  0.63178204  0.25681637  0.47226209  1  0  -0.152094  0  3.658179  0  0  -0.169072  0  3.902579  0  0  -0.177881  0  3.923712  0  -0.143834  0  -0.077367  -0.163435  0  3.888436  0
C  C62  1  0.13178102  0.24318605  0.97226339  1  0  -0.152192  0  3.658263  0  0  -0.169179  0  3.90267  0  0  -0.17798  0  3.923792  0  -0.144362  0  -0.077413  -0.163547  0  3.888539  0
C  C63  1  0.36822135  0.74318932  0.52773723  1  0  -0.152202  0  3.65817  0  0  -0.169212  0  3.902598  0  0  -0.178011  0  3.92372  0  -0.144268  0  -0.077467  -0.163577  0  3.888467  0
C  C64  1  0.82256023  0.65696275  0.98722690  1  0  0.138717  0  3.713204  0  0  0.107028  0  3.965481  0  0  0.115315  0  3.983411  0  0.500028  0  0.043812  0.101711  0  3.953133  0
C  C65  1  0.67744552  0.15696620  0.51277176  1  0  0.138733  0  3.713289  0  0  0.107038  0  3.965557  0  0  0.115324  0  3.983489  0  0.499137  0  0.043848  0.101728  0  3.953202  0
C  C66  1  0.17744046  0.34303539  0.01277368  1  0  0.138742  0  3.713383  0  0  0.107077  0  3.965616  0  0  0.115363  0  3.983549  0  0.500042  0  0.043883  0.101766  0  3.953262  0
C  C67  1  0.32256056  0.84303865  0.48722629  1  0  0.138733  0  3.713202  0  0  0.107053  0  3.96547  0  0  0.11534  0  3.983403  0  0.500062  0  0.043866  0.101737  0  3.953122  0
C  C68  1  0.97730376  0.95258254  0.02102469  1  0  -0.092089  0  3.694553  0  0  -0.113798  0  3.949411  0  0  -0.117849  0  3.97118  0  0.005352  0  -0.075873  -0.110939  0  3.934467  0
C  C69  1  0.52269390  0.45258516  0.47897456  1  0  -0.092137  0  3.694589  0  0  -0.113843  0  3.949422  0  0  -0.117896  0  3.971191  0  -0.106362  0  -0.07587  -0.110984  0  3.934479  0
C  C70  1  0.02269558  0.04741643  0.97897460  1  0  -0.092093  0  3.694528  0  0  -0.113805  0  3.949384  0  0  -0.117859  0  3.97115  0  -0.106473  0  -0.075893  -0.110946  0  3.934438  0
C  C71  1  0.47730544  0.54741801  0.52102537  1  0  -0.09205  0  3.694559  0  0  -0.113763  0  3.9494  0  0  -0.117816  0  3.97117  0  0.005329  0  -0.075899  -0.110906  0  3.934459  0
C  C72  1  0.00637833  0.50752799  0.54545874  1  0  0.068743  0  3.732565  0  0  0.077149  0  3.961448  0  0  0.077548  0  3.984884  0  -0.025287  0  0.006609  0.076862  0  3.945632  0
C  C73  1  0.49361864  0.00753060  0.95454057  1  0  0.068583  0  3.732595  0  0  0.077112  0  3.961395  0  0  0.077511  0  3.984826  0  0.034735  0  0.006572  0.076825  0  3.945576  0
C  C74  1  0.99361966  0.49246930  0.45453991  1  0  0.068564  0  3.732673  0  0  0.077119  0  3.961458  0  0  0.077518  0  3.984891  0  0.034714  0  0.006555  0.076832  0  3.945641  0
C  C75  1  0.50637800  0.99247089  0.04545934  1  0  0.068759  0  3.732557  0  0  0.077208  0  3.9614  0  0  0.077608  0  3.984835  0  -0.025398  0  0.006612  0.076921  0  3.945583  0
C  C76  1  0.06766744  0.41475245  0.59604023  1  0  -0.152705  0  3.703148  0  0  -0.130184  0  3.952533  0  0  -0.13883  0  3.975144  0  -0.189661  0  -0.011719  -0.124641  0  3.937517  0
C  C77  1  0.43233089  0.91475403  0.90395909  1  0  -0.152639  0  3.703146  0  0  -0.130151  0  3.952519  0  0  -0.138796  0  3.975135  0  -0.189673  0  -0.011735  -0.124609  0  3.937505  0
C  C78  1  0.93233055  0.58524568  0.40395906  1  0  -0.152606  0  3.703183  0  0  -0.130124  0  3.952549  0  0  -0.138768  0  3.975163  0  -0.189675  0  -0.011715  -0.124581  0  3.937533  0
C  C79  1  0.56766710  0.08524746  0.09604084  1  0  -0.152718  0  3.703197  0  0  -0.130207  0  3.952576  0  0  -0.138855  0  3.97519  0  -0.189661  0  -0.011735  -0.124664  0  3.937559  0
C  C80  1  0.11541524  0.31441440  0.55952986  1  0  -0.067836  0  3.761513  0  0  -0.10943  0  4.017548  0  0  -0.106881  0  4.037498  0  0.002574  0  -0.080001  -0.110891  0  4.00412  0
C  C81  1  0.38458443  0.81441598  0.94047011  1  0  -0.067935  0  3.761565  0  0  -0.109532  0  4.017611  0  0  -0.106988  0  4.037566  0  0.002602  0  -0.080016  -0.110992  0  4.004181  0
C  C82  1  0.88458410  0.68558374  0.44047071  1  0  -0.06792  0  3.76161  0  0  -0.109523  0  4.017666  0  0  -0.106982  0  4.037622  0  0.002574  0  -0.080028  -0.110985  0  4.004235  0
C  C83  1  0.61541625  0.18558551  0.05953047  1  0  -0.067848  0  3.761502  0  0  -0.10944  0  4.017531  0  0  -0.106895  0  4.037485  0  0.002586  0  -0.079995  -0.110902  0  4.004101  0
C  C84  1  0.10523499  0.30113508  0.46992526  1  0  -0.054917  0  3.767847  0  0  -0.030255  0  4.006111  0  0  -0.03886  0  4.028271  0  -0.015029  0  -0.014698  -0.024793  0  3.991226  0
C  C85  1  0.39476333  0.80113666  0.03007470  1  0  -0.054873  0  3.767889  0  0  -0.030207  0  4.006123  0  0  -0.03881  0  4.028285  0  -0.015042  0  -0.014709  -0.024747  0  3.991236  0
C  C86  1  0.89476300  0.69886222  0.53007466  1  0  -0.054898  0  3.76797  0  0  -0.030231  0  4.006198  0  0  -0.038834  0  4.02836  0  -0.015033  0  -0.014701  -0.024769  0  3.991312  0
C  C87  1  0.60523466  0.19886483  0.96992523  1  0  -0.054935  0  3.767881  0  0  -0.030246  0  4.006116  0  0  -0.03885  0  4.028277  0  -0.015022  0  -0.014694  -0.024784  0  3.991229  0
C  C88  1  0.04337829  0.38803426  0.41897251  1  0  -0.075659  0  3.65549  0  0  -0.112003  0  3.906433  0  0  -0.108859  0  3.921381  0  0.01571  0  -0.069717  -0.113865  0  3.896296  0
C  C89  1  0.45662138  0.88803585  0.08102746  1  0  -0.075697  0  3.655541  0  0  -0.112003  0  3.906465  0  0  -0.108858  0  3.921412  0  0.015705  0  -0.069711  -0.113867  0  3.89633  0
C  C90  1  0.95662105  0.61196387  0.58102743  1  0  -0.075621  0  3.655538  0  0  -0.111911  0  3.90646  0  0  -0.108767  0  3.921407  0  0.015593  0  -0.069684  -0.113777  0  3.896328  0
C  C91  1  0.54337796  0.11196564  0.91897247  1  0  -0.075677  0  3.655424  0  0  -0.11199  0  3.906387  0  0  -0.108846  0  3.921333  0  0.0157  0  -0.069721  -0.113851  0  3.896248  0
C  C92  1  0.15607421  0.19190608  0.43027877  1  0  0.643211  0  3.917777  0  0  0.591756  0  4.206114  0  0  0.625691  0  4.201417  0  1.537089  0  0.204497  0.568846  0  4.208307  0
C  C93  1  0.34392546  0.69190766  0.06972184  1  0  0.643252  0  3.917624  0  0  0.591802  0  4.205951  0  0  0.625735  0  4.201256  0  1.53708  0  0.20452  0.568894  0  4.208142  0
C  C94  1  0.84392513  0.80809122  0.56972244  1  0  0.643207  0  3.917681  0  0  0.591765  0  4.205991  0  0  0.625699  0  4.201298  0  1.53708  0  0.204501  0.568856  0  4.208182  0
C  C95  1  0.65607388  0.30809299  0.93027937  1  0  0.64319  0  3.91781  0  0  0.591708  0  4.20618  0  0  0.625642  0  4.201486  0  1.537055  0  0.204497  0.568799  0  4.208369  0
S  S96  1  0.07225805  0.42374080  0.70961381  1  0  1.315687  0  5.653611  0  0  1.212842  0  6.175504  0  0  1.261905  0  6.151373  0  3.174668  0  0.518513  1.178955  0  6.191115  0
S  S97  1  0.42774297  0.92374155  0.79038617  1  0  1.315679  0  5.653633  0  0  1.212829  0  6.175519  0  0  1.261892  0  6.151389  0  3.17471  0  0.518551  1.178942  0  6.191129  0
S  S98  1  0.92774129  0.57625901  0.29038613  1  0  1.315725  0  5.653541  0  0  1.212884  0  6.175432  0  0  1.261946  0  6.151304  0  3.174457  0  0.518562  1.178996  0  6.191042  0
S  S99  1  0.57225772  0.07625910  0.20961377  1  0  1.315645  0  5.653713  0  0  1.212796  0  6.175604  0  0  1.261863  0  6.15147  0  3.174664  0  0.518516  1.178909  0  6.191213  0
N  N100  1  0.84579238  0.64132801  0.90278283  1  0  -0.38432  0  3.314062  0  0  -0.302806  0  3.587881  0  0  -0.325106  0  3.605809  0  -1.246036  0  -0.345499  -0.287504  0  3.575181  0
N  N101  1  0.65421336  0.14132979  0.59721583  1  0  -0.384348  0  3.314315  0  0  -0.302836  0  3.588127  0  0  -0.325137  0  3.606054  0  -1.246063  0  -0.345533  -0.287534  0  3.575421  0
N  N102  1  0.15421100  0.35867012  0.09721712  1  0  -0.384335  0  3.314255  0  0  -0.302831  0  3.588069  0  0  -0.325132  0  3.605999  0  -1.246005  0  -0.345544  -0.287528  0  3.575362  0
N  N103  1  0.34579137  0.85867254  0.40278222  1  0  -0.384223  0  3.313971  0  0  -0.302709  0  3.587786  0  0  -0.325009  0  3.605716  0  -1.246054  0  -0.345484  -0.287407  0  3.575082  0
O  O104  1  0.16830102  0.18825750  0.34846608  1  0  -0.653642  0  2.004718  0  0  -0.581011  0  2.24051  0  0  -0.611449  0  2.230674  0  -1.143635  0  -0.318901  -0.559597  0  2.246466  0
O  O105  1  0.33169999  0.68825908  0.15153454  1  0  -0.653623  0  2.004749  0  0  -0.580994  0  2.240529  0  0  -0.611432  0  2.230695  0  -1.143677  0  -0.318886  -0.559579  0  2.24648  0
O  O106  1  0.83169966  0.81173980  0.65153514  1  0  -0.653613  0  2.004733  0  0  -0.581005  0  2.240536  0  0  -0.611443  0  2.230702  0  -1.143733  0  -0.31891  -0.559593  0  2.246492  0
O  O107  1  0.66830204  0.31174157  0.84846669  1  0  -0.653608  0  2.004758  0  0  -0.580956  0  2.240545  0  0  -0.611394  0  2.230711  0  -1.143615  0  -0.318878  -0.559542  0  2.246497  0
O  O108  1  0.18392125  0.10623120  0.47691655  1  0  -0.640851  0  1.988204  0  0  -0.578983  0  2.218268  0  0  -0.607161  0  2.209525  0  -1.188051  0  -0.312347  -0.559172  0  2.223538  0
O  O109  1  0.31607842  0.60623279  0.02308470  1  0  -0.64089  0  1.988119  0  0  -0.579036  0  2.218197  0  0  -0.607215  0  2.209453  0  -1.187994  0  -0.312362  -0.559224  0  2.223465  0
O  O110  1  0.81607809  0.89376609  0.52308530  1  0  -0.640898  0  1.988147  0  0  -0.579003  0  2.218244  0  0  -0.60717  0  2.209477  0  -1.187954  0  -0.312333  -0.559191  0  2.223512  0
O  O111  1  0.68392362  0.39376786  0.97691717  1  0  -0.640828  0  1.988183  0  0  -0.57896  0  2.21827  0  0  -0.607132  0  2.209514  0  -1.188021  0  -0.312356  -0.559149  0  2.223539  0
O  O112  1  0.19385073  0.51719820  0.73177004  1  0  -0.660655  0  1.951198  0  0  -0.605939  0  2.189979  0  0  -0.627646  0  2.174905  0  -1.333132  0  -0.334132  -0.590519  0  2.199757  0
O  O113  1  0.30614893  0.01719829  0.76822865  1  0  -0.660673  0  1.951197  0  0  -0.605959  0  2.189973  0  0  -0.627663  0  2.1749  0  -1.333146  0  -0.33414  -0.590539  0  2.199753  0
O  O114  1  0.80614995  0.48280162  0.26822926  1  0  -0.660674  0  1.95121  0  0  -0.605966  0  2.189992  0  0  -0.627674  0  2.174921  0  -1.333148  0  -0.334138  -0.590547  0  2.199771  0
O  O115  1  0.69385175  0.98280236  0.23177065  1  0  -0.660649  0  1.951206  0  0  -0.605933  0  2.190004  0  0  -0.627643  0  2.174929  0  -1.333131  0  -0.334124  -0.590513  0  2.199783  0
O  O116  1  0.13361322  0.31481326  0.74235707  1  0  -0.648887  0  1.943106  0  0  -0.594206  0  2.176845  0  0  -0.614174  0  2.161175  0  -1.331662  0  -0.330761  -0.580157  0  2.187231  0
O  O117  1  0.36638780  0.81481401  0.75764226  1  0  -0.648893  0  1.943097  0  0  -0.594201  0  2.176829  0  0  -0.614169  0  2.161159  0  -1.331692  0  -0.330778  -0.580157  0  2.187219  0
O  O118  1  0.86638612  0.68518571  0.25764286  1  0  -0.6489  0  1.943128  0  0  -0.594213  0  2.176862  0  0  -0.61418  0  2.161193  0  -1.331723  0  -0.33077  -0.580166  0  2.187251  0
O  O119  1  0.63361289  0.18518664  0.24235704  1  0  -0.648871  0  1.943125  0  0  -0.594184  0  2.176862  0  0  -0.614153  0  2.161193  0  -1.331658  0  -0.330755  -0.580137  0  2.18725  0
O  O120  1  0.88191467  0.44898612  0.72875292  1  0  -0.71033  0  2.089609  0  0  -0.642689  0  2.375318  0  0  -0.668412  0  2.358284  0  -1.324475  0  -0.355035  -0.624376  0  2.386378  0
O  O121  1  0.61808569  0.94898687  0.77124634  1  0  -0.710334  0  2.089575  0  0  -0.64269  0  2.375278  0  0  -0.668412  0  2.358245  0  -1.324496  0  -0.355062  -0.624376  0  2.386339  0
O  O122  1  0.11808737  0.55101369  0.27124702  1  0  -0.710378  0  2.089477  0  0  -0.642737  0  2.375177  0  0  -0.668459  0  2.358145  0  -1.324209  0  -0.355086  -0.624423  0  2.386236  0
O  O123  1  0.38191365  0.05101294  0.22875359  1  0  -0.710325  0  2.089579  0  0  -0.642695  0  2.375316  0  0  -0.668417  0  2.358281  0  -1.324488  0  -0.355065  -0.62438  0  2.386375  0
O  O124  1  0.60728931  0.64283195  0.72581075  1  0  -0.839525  0  1.84078  0  0  -0.781397  0  2.032795  0  0  -0.803397  0  2.000412  0  -1.219938  0  -0.585562  -0.765631  0  2.055349  0
O  O125  1  0.89271104  0.14283288  0.77419171  1  0  -0.839559  0  1.840767  0  0  -0.781432  0  2.032733  0  0  -0.803431  0  2.000354  0  -1.219952  0  -0.585587  -0.765686  0  2.055333  0
O  O126  1  0.39271137  0.35716786  0.27419175  1  0  -0.839578  0  1.840736  0  0  -0.781451  0  2.032713  0  0  -0.803449  0  2.000332  0  -1.219953  0  -0.585574  -0.765701  0  2.055308  0
O  O127  1  0.10728964  0.85716777  0.22580759  1  0  -0.839573  0  1.84075  0  0  -0.781445  0  2.032741  0  0  -0.803444  0  2.000361  0  -1.219965  0  -0.585572  -0.765695  0  2.055333  0
O  O128  1  0.40061586  0.52131198  0.87166998  1  0  -0.868222  0  1.866683  0  0  -0.798569  0  2.064506  0  0  -0.822341  0  2.028869  0  -1.289165  0  -0.593855  -0.781741  0  2.089274  0
O  O129  1  0.09938516  0.02131123  0.62833064  1  0  -0.868288  0  1.866629  0  0  -0.798614  0  2.064532  0  0  -0.822383  0  2.028895  0  -1.289175  0  -0.593904  -0.781785  0  2.089303  0
O  O130  1  0.59938482  0.47868867  0.12833060  1  0  -0.86828  0  1.866628  0  0  -0.798603  0  2.064525  0  0  -0.822373  0  2.028888  0  -1.289171  0  -0.5939  -0.781774  0  2.089294  0
O  O131  1  0.90061553  0.97868270  0.37167058  1  0  -0.868377  0  1.866393  0  0  -0.798639  0  2.064309  0  0  -0.822412  0  2.02867  0  -1.28902  0  -0.593903  -0.781811  0  2.089075  0
