# generated using pymatgen
data_MnH7C8NO6
_symmetry_space_group_name_H-M   'P 1'
_cell_length_a   7.98787214
_cell_length_b   10.23267120
_cell_length_c   10.57579388
_cell_angle_alpha   89.99412883
_cell_angle_beta   93.96580994
_cell_angle_gamma   89.99959859
_symmetry_Int_Tables_number   1
_chemical_formula_structural   MnH7C8NO6
_chemical_formula_sum   'Mn4 H28 C32 N4 O24'
_cell_volume   862.36661300
_cell_formula_units_Z   4
loop_
 _symmetry_equiv_pos_site_id
 _symmetry_equiv_pos_as_xyz
  1  'x, y, z'
loop_
 _atom_site_type_symbol
 _atom_site_label
 _atom_site_symmetry_multiplicity
 _atom_site_fract_x
 _atom_site_fract_y
 _atom_site_fract_z
 _atom_site_occupancy
 _atom_site_pbe_cm5_charge
 _atom_site_pbe_ddec_charge
 _atom_site_pbe_ddec_spin_density
 _atom_site_pbe_ddec_sum_bond_order
 _atom_site_pbe_magmom
Mn  Mn0  1  0.91150990  0.17459554  0.14041237  1  0.601378  1.088875  -4.644935  2.310288  -4.48
Mn  Mn1  1  0.08867678  0.67463754  0.35945154  1  0.60161  1.08923  4.644973  2.31012  4.479
Mn  Mn2  1  0.08842366  0.82547607  0.85949538  1  0.60144  1.088986  4.645291  2.309134  4.48
Mn  Mn3  1  0.91125301  0.32531093  0.64043617  1  0.601427  1.089053  -4.644946  2.311487  -4.479
H  H4  1  0.48805417  0.97343575  0.87050421  1  0.122977  0.139345  -0.000826  1.017062  0.0
H  H5  1  0.51140395  0.47323099  0.62918746  1  0.123126  0.139483  0.000818  1.017085  0.0
H  H6  1  0.51176017  0.02665344  0.12944365  1  0.123078  0.139557  0.000816  1.017098  0.0
H  H7  1  0.48837651  0.52671650  0.37075864  1  0.123114  0.139567  -0.000826  1.017052  0.0
H  H8  1  0.57692647  0.12811730  0.83930050  1  0.12211  0.125485  0.000261  1.020768  0.0
H  H9  1  0.42263327  0.62796828  0.66022388  1  0.122446  0.125744  -0.000251  1.021037  0.0
H  H10  1  0.42298575  0.87191814  0.16057304  1  0.122198  0.1255  -0.000256  1.020591  0.0
H  H11  1  0.57719612  0.37201440  0.33965952  1  0.122391  0.125711  0.000254  1.020759  0.0
H  H12  1  0.52914070  0.80013968  0.74147392  1  0.13086  0.109626  -0.000385  1.000181  0.0
H  H13  1  0.47048874  0.30011604  0.75845769  1  0.130981  0.109572  0.000386  1.000294  0.0
H  H14  1  0.47066737  0.19985374  0.25855588  1  0.131037  0.109791  0.000385  0.999813  0.0
H  H15  1  0.52926412  0.69991256  0.24154370  1  0.130815  0.109389  -0.000386  1.000246  0.0
H  H16  1  0.59200906  0.71596948  0.52609805  1  0.111187  0.121501  -0.000257  1.018697  0.0
H  H17  1  0.40795069  0.21611020  0.97399157  1  0.111302  0.121767  0.000253  1.019006  0.0
H  H18  1  0.40788560  0.28389396  0.47397410  1  0.111297  0.121826  0.000257  1.019044  0.0
H  H19  1  0.59193644  0.78400342  0.02605464  1  0.111103  0.121498  -0.000254  1.01888  0.0
H  H20  1  0.74048708  0.86460349  0.38268705  1  0.117387  0.121075  -8.4e-05  1.013386  0.0
H  H21  1  0.25973131  0.36487047  0.11739402  1  0.117678  0.121085  8.6e-05  1.013161  0.0
H  H22  1  0.25960837  0.13516027  0.61742111  1  0.117583  0.120893  8.5e-05  1.013414  0.0
H  H23  1  0.74037920  0.63535651  0.88270450  1  0.117474  0.121088  -8.6e-05  1.01333  0.0
H  H24  1  0.02821963  0.29458314  0.34733679  1  0.299048  0.386715  -0.000629  0.949471  -0.001
H  H25  1  0.97250825  0.79478665  0.15264455  1  0.299543  0.387686  0.000628  0.948271  0.001
H  H26  1  0.97231252  0.70505847  0.65264856  1  0.299405  0.387637  0.000624  0.948349  0.001
H  H27  1  0.02805024  0.20558302  0.84733836  1  0.299328  0.387375  -0.000633  0.948646  -0.001
H  H28  1  0.08193125  0.40397411  0.24810947  1  0.301  0.390946  -0.001561  0.942796  -0.002
H  H29  1  0.91820611  0.90391731  0.25187268  1  0.300877  0.390415  0.001568  0.943635  0.002
H  H30  1  0.91787933  0.59591475  0.75183253  1  0.300812  0.390646  0.001569  0.94337  0.002
H  H31  1  0.08161451  0.09619632  0.74806983  1  0.300515  0.389809  -0.00156  0.944407  -0.002
C  C32  1  0.75267860  0.99522090  0.93044934  1  0.229354  0.640457  -0.007343  4.156474  -0.005
C  C33  1  0.24677915  0.49510110  0.56944343  1  0.229909  0.640945  0.007358  4.157075  0.005
C  C34  1  0.24707426  0.00476470  0.06953598  1  0.229362  0.640467  0.007237  4.156775  0.005
C  C35  1  0.75295990  0.50491285  0.43053265  1  0.229684  0.641178  -0.007454  4.155362  -0.005
C  C36  1  0.59964601  0.02300496  0.83818826  1  -0.062483  -0.24801  1.2e-05  3.858555  0.001
C  C37  1  0.39992945  0.52286962  0.66154033  1  -0.062939  -0.248167  -2.7e-05  3.859946  -0.001
C  C38  1  0.40021727  0.97702853  0.16174040  1  -0.062633  -0.248069  -2.5e-05  3.858174  -0.001
C  C39  1  0.59988489  0.47711208  0.33839146  1  -0.06306  -0.248352  1.8e-05  3.859696  0.001
C  C40  1  0.58984218  0.85941311  0.67223158  1  0.066106  0.074694  -0.001291  3.87749  0.0
C  C41  1  0.40992799  0.35945680  0.82770334  1  0.066116  0.07518  0.001311  3.877168  0.0
C  C42  1  0.41004244  0.14051288  0.32779465  1  0.066107  0.075051  0.001307  3.877118  0.0
C  C43  1  0.58992903  0.64061774  0.17230537  1  0.06628  0.075376  -0.001296  3.877065  0.0
C  C44  1  0.62492366  0.81505737  0.55449283  1  -0.098775  -0.157702  -0.003859  4.020449  -0.003
C  C45  1  0.37505187  0.31518171  0.94552721  1  -0.098842  -0.158345  0.003799  4.021076  0.003
C  C46  1  0.37503878  0.18480705  0.44557340  1  -0.098727  -0.158291  0.003842  4.021448  0.003
C  C47  1  0.62488421  0.68494071  0.05451683  1  -0.098716  -0.158144  -0.003815  4.020762  -0.003
C  C48  1  0.70739792  0.89908630  0.47504473  1  -0.056606  -0.008197  -0.002341  3.942641  -0.002
C  C49  1  0.29275584  0.39930222  0.02497563  1  -0.057188  -0.008131  0.002326  3.942361  0.002
C  C50  1  0.29266992  0.10071557  0.52502984  1  -0.056934  -0.007925  0.002331  3.942616  0.002
C  C51  1  0.70731325  0.60088665  0.97508953  1  -0.056904  -0.008175  -0.002334  3.942435  -0.002
C  C52  1  0.75008748  0.02601509  0.51114100  1  -0.028666  -0.223608  -0.003306  3.948871  -0.002
C  C53  1  0.25018692  0.52623904  0.98879490  1  -0.028425  -0.223511  0.003307  3.948641  0.002
C  C54  1  0.25009330  0.97375942  0.48891394  1  -0.028673  -0.223521  0.003338  3.948798  0.002
C  C55  1  0.74997629  0.47396644  0.01126761  1  -0.028541  -0.223625  -0.003278  3.948393  -0.002
C  C56  1  0.69972266  0.07485154  0.63027926  1  0.232608  0.428033  -0.011416  4.065793  -0.01
C  C57  1  0.30031241  0.57498611  0.86954472  1  0.232113  0.427699  0.011323  4.065902  0.01
C  C58  1  0.30036400  0.92501777  0.36971403  1  0.232362  0.427514  0.011445  4.065698  0.011
C  C59  1  0.69973534  0.42514413  0.13045220  1  0.23203  0.427476  -0.011302  4.06625  -0.01
C  C60  1  0.84742932  0.10847289  0.42502845  1  0.228722  0.619004  -0.014553  4.146485  -0.014
C  C61  1  0.15315762  0.60880832  0.07495844  1  0.229258  0.618981  0.014583  4.146064  0.014
C  C62  1  0.15292213  0.89119314  0.57502973  1  0.229155  0.618677  0.014632  4.146457  0.014
C  C63  1  0.84721265  0.39151150  0.92513095  1  0.228828  0.619108  -0.014512  4.146061  -0.014
N  N64  1  0.62596212  0.98363672  0.70860081  1  -0.226364  -0.000207  -0.005309  3.68208  -0.005
N  N65  1  0.37378822  0.48364828  0.79121004  1  -0.226423  -0.000842  0.005225  3.681487  0.005
N  N66  1  0.37396517  0.01630002  0.29136998  1  -0.226567  -0.000524  0.005257  3.681742  0.005
N  N67  1  0.62609138  0.51641355  0.20875730  1  -0.226507  -0.000874  -0.005274  3.68277  -0.005
O  O68  1  0.87205730  0.93032173  0.89052459  1  -0.30982  -0.573565  0.0373  2.376095  0.016
O  O69  1  0.12710172  0.43085802  0.60976184  1  -0.309591  -0.573325  -0.037242  2.378261  -0.016
O  O70  1  0.12744083  0.06916643  0.10972167  1  -0.309661  -0.573391  -0.037342  2.377433  -0.016
O  O71  1  0.87239138  0.56959471  0.39040373  1  -0.309658  -0.573308  0.037169  2.375791  0.016
O  O72  1  0.74243542  0.04045832  0.04150328  1  -0.31336  -0.580331  -0.029834  2.323189  -0.01
O  O73  1  0.25716890  0.53970915  0.45812808  1  -0.313933  -0.581135  0.029763  2.321943  0.01
O  O74  1  0.25741656  0.95997097  0.95832550  1  -0.313308  -0.580535  0.029748  2.322809  0.01
O  O75  1  0.74266175  0.45992855  0.54171948  1  -0.313573  -0.581122  -0.029872  2.322242  -0.01
O  O76  1  0.06958867  0.30929921  0.26207595  1  -0.571971  -0.784231  -0.040888  2.155461  -0.024
O  O77  1  0.93062318  0.80927215  0.23778717  1  -0.572496  -0.785042  0.04098  2.154907  0.024
O  O78  1  0.93045532  0.69056522  0.73779692  1  -0.572377  -0.785295  0.040867  2.154273  0.024
O  O79  1  0.06942080  0.19087373  0.76207339  1  -0.571632  -0.783675  -0.040982  2.156753  -0.024
O  O80  1  0.71123686  0.19144166  0.66989468  1  -0.301207  -0.539747  -0.037471  2.378193  -0.021
O  O81  1  0.28874841  0.69152867  0.82980254  1  -0.300639  -0.538734  0.037322  2.375887  0.021
O  O82  1  0.28884352  0.80845795  0.33001790  1  -0.300937  -0.539252  0.037443  2.377866  0.021
O  O83  1  0.71131691  0.30857323  0.17014329  1  -0.30062  -0.538824  -0.037355  2.376045  -0.021
O  O84  1  0.91626616  0.21464520  0.46544844  1  -0.290847  -0.560487  -0.044817  2.333272  -0.03
O  O85  1  0.08489989  0.71527843  0.03470462  1  -0.291132  -0.560649  0.044792  2.335165  0.029
O  O86  1  0.08493990  0.78462014  0.53482079  1  -0.291233  -0.560598  0.044839  2.334513  0.03
O  O87  1  0.91628984  0.28542251  0.96559961  1  -0.291125  -0.560946  -0.044796  2.333782  -0.029
O  O88  1  0.86107497  0.06617897  0.31241705  1  -0.302718  -0.569772  -0.043221  2.306697  -0.027
O  O89  1  0.13911869  0.56635996  0.18746939  1  -0.303194  -0.569716  0.043245  2.305728  0.027
O  O90  1  0.13853356  0.93374898  0.68745861  1  -0.302986  -0.569569  0.043258  2.306019  0.027
O  O91  1  0.86053628  0.43368624  0.81244935  1  -0.302528  -0.569245  -0.0432  2.30623  -0.027
