# generated using pymatgen
data_MnH5C4(NO2)3
_symmetry_space_group_name_H-M   'P 1'
_cell_length_a   7.04812495
_cell_length_b   10.25111548
_cell_length_c   10.38539699
_cell_angle_alpha   90.00000050
_cell_angle_beta   94.34273490
_cell_angle_gamma   90.00003378
_symmetry_Int_Tables_number   1
_chemical_formula_structural   MnH5C4(NO2)3
_chemical_formula_sum   'Mn4 H20 C16 N12 O24'
_cell_volume   748.20247630
_cell_formula_units_Z   4
loop_
 _symmetry_equiv_pos_site_id
 _symmetry_equiv_pos_as_xyz
  1  'x, y, z'
loop_
 _atom_site_type_symbol
 _atom_site_label
 _atom_site_symmetry_multiplicity
 _atom_site_fract_x
 _atom_site_fract_y
 _atom_site_fract_z
 _atom_site_occupancy
 _atom_site_hle17_ddec_charge
 _atom_site_hle17_ddec_spin_density
 _atom_site_hle17_ddec_sum_bond_order
 _atom_site_hle17_magmom
 _atom_site_hse06_10hf_ddec_charge
 _atom_site_hse06_10hf_ddec_spin_density
 _atom_site_hse06_10hf_ddec_sum_bond_order
 _atom_site_hse06_10hf_magmom
 _atom_site_hse06_ddec_charge
 _atom_site_hse06_ddec_spin_density
 _atom_site_hse06_ddec_sum_bond_order
 _atom_site_hse06_magmom
 _atom_site_pbe_cm5_charge
 _atom_site_pbe_ddec_charge
 _atom_site_pbe_ddec_spin_density
 _atom_site_pbe_ddec_sum_bond_order
 _atom_site_pbe_magmom
Mn  Mn0  1  0.18519104  0.11567135  0.82787369  1  1.241849  4.785535  1.762747  4.68  1.092443  4.700492  2.263607  4.53  1.141232  4.748692  2.194101  4.598  0.620564  1.056764  4.645896  2.31509  4.458
Mn  Mn1  1  0.81480332  0.61567365  0.67212838  1  1.241808  4.785553  1.762796  4.68  1.09241  4.700513  2.263654  4.53  1.141193  4.74871  2.194163  4.598  0.620553  1.056738  4.645923  2.315127  4.458
Mn  Mn2  1  0.81480975  0.88432832  0.17212673  1  1.241832  4.785535  1.762793  4.68  1.092425  4.700494  2.263667  4.53  1.141237  4.748695  2.194116  4.598  0.620558  1.056751  4.645902  2.315138  4.458
Mn  Mn3  1  0.18519322  0.38432797  0.32787084  1  1.241841  4.78555  1.762733  4.68  1.09245  4.700521  2.263564  4.531  1.141235  4.748714  2.194075  4.598  0.620567  1.05676  4.64594  2.315083  4.458
H  H4  1  0.39601208  0.81549572  0.43225816  1  0.32072  0.000149  0.919401  0.0  0.291024  0.000329  0.994406  0.0  0.301443  0.000193  0.985369  0.0  0.323288  0.283504  0.000552  1.0011  0.001
H  H5  1  0.60399076  0.31549652  0.06774518  1  0.320755  0.000148  0.919355  0.0  0.291064  0.000329  0.994372  0.0  0.301481  0.000193  0.985338  0.0  0.323282  0.283546  0.000552  1.001063  0.001
H  H6  1  0.60398729  0.18450395  0.56774218  1  0.320758  0.000152  0.919354  0.0  0.291065  0.000329  0.994371  0.0  0.301482  0.000193  0.985337  0.0  0.323293  0.283547  0.000552  1.001063  0.001
H  H7  1  0.39601427  0.68450315  0.93225837  1  0.320754  0.000152  0.919355  0.0  0.291068  0.000329  0.994366  0.0  0.301485  0.000193  0.985333  0.0  0.323295  0.283547  0.000552  1.001053  0.001
H  H8  1  0.84382360  0.00083033  0.72027015  1  0.393617  -0.000304  0.916083  0.0  0.350443  0.000262  1.003662  0.001  0.360963  3.7e-05  0.988666  0.001  0.292044  0.343197  0.000487  1.013945  0.001
H  H9  1  0.15617495  0.50082846  0.77973023  1  0.393538  -0.000306  0.916138  0.0  0.350391  0.000261  1.003708  0.001  0.360912  3.7e-05  0.988712  0.001  0.292016  0.343144  0.000487  1.013993  0.001
H  H10  1  0.15617577  0.99917130  0.27973019  1  0.393552  -0.000305  0.916109  0.0  0.350408  0.000262  1.003682  0.001  0.360928  3.7e-05  0.988687  0.001  0.292021  0.343163  0.000487  1.013966  0.001
H  H11  1  0.84382442  0.49917024  0.22027011  1  0.393543  -0.000307  0.916125  0.0  0.350399  0.000261  1.003695  0.001  0.360921  3.7e-05  0.988699  0.001  0.292016  0.343154  0.000487  1.013978  0.001
H  H12  1  0.93433046  0.90178595  0.82483191  1  0.429078  -0.000841  0.863966  0.0  0.397346  -0.000251  0.932524  0.001  0.408615  -0.000502  0.916167  0.001  0.30219  0.389369  -1.8e-05  0.944088  0.001
H  H13  1  0.06566561  0.40178556  0.67516737  1  0.429058  -0.000842  0.863992  0.0  0.397325  -0.000251  0.932553  0.001  0.408595  -0.000502  0.916193  0.001  0.302169  0.389349  -1.9e-05  0.944116  0.001
H  H14  1  0.06566751  0.09821469  0.17516643  1  0.429066  -0.000841  0.863966  0.0  0.397322  -0.000251  0.932552  0.001  0.408591  -0.000502  0.916195  0.001  0.302176  0.389347  -1.8e-05  0.944114  0.001
H  H15  1  0.93432948  0.59821411  0.32483369  1  0.429092  -0.000842  0.863947  0.0  0.397356  -0.000251  0.932509  0.001  0.408627  -0.000502  0.916149  0.001  0.302188  0.389382  -1.9e-05  0.94407  0.001
H  H16  1  0.35395510  0.91303925  0.94998346  1  0.443986  0.000234  0.845829  0.001  0.411273  0.001136  0.912317  0.002  0.421472  0.000792  0.897269  0.002  0.307842  0.404162  0.001474  0.922841  0.003
H  H17  1  0.64604383  0.41303811  0.55001598  1  0.443971  0.000228  0.845829  0.001  0.411261  0.001136  0.912317  0.002  0.42146  0.000792  0.897269  0.002  0.307843  0.404149  0.001474  0.922834  0.003
H  H18  1  0.64604713  0.08696140  0.05001608  1  0.444015  0.000235  0.845789  0.001  0.411313  0.001136  0.912258  0.002  0.421511  0.000792  0.897212  0.002  0.307862  0.404204  0.001473  0.922777  0.003
H  H19  1  0.35395412  0.58696156  0.44998428  1  0.444083  0.000227  0.845682  0.001  0.41138  0.001136  0.912157  0.002  0.421578  0.000793  0.897109  0.002  0.307897  0.404269  0.001473  0.922677  0.003
H  H20  1  0.22338392  0.97259859  0.06091131  1  0.442297  0.00032  0.849303  0.002  0.411748  0.001244  0.91085  0.003  0.422298  0.000783  0.895556  0.003  0.301547  0.404251  0.001658  0.921687  0.004
H  H21  1  0.77661482  0.47259848  0.43908891  1  0.442354  0.000316  0.849239  0.002  0.411815  0.001243  0.910766  0.003  0.422366  0.000783  0.895468  0.003  0.301572  0.404319  0.001657  0.921602  0.004
H  H22  1  0.77661830  0.02740108  0.93908919  1  0.442383  0.000319  0.849214  0.002  0.411885  0.001243  0.910663  0.003  0.422434  0.000783  0.895368  0.003  0.301599  0.404391  0.001657  0.921495  0.004
H  H23  1  0.22338313  0.52739924  0.56091039  1  0.442357  0.000317  0.849229  0.002  0.411827  0.001243  0.910741  0.003  0.422377  0.000783  0.895445  0.003  0.301573  0.404331  0.001657  0.921576  0.004
C  C24  1  0.20874147  0.06090951  0.54591527  1  0.166841  -0.00054  3.766455  0.0  0.14277  0.002912  4.056125  0.002  0.147034  0.001569  4.06956  0.002  0.215618  0.139523  0.004794  4.048154  0.003
C  C25  1  0.79125856  0.56090888  0.95408519  1  0.166918  -0.000574  3.766377  0.0  0.142823  0.002913  4.056078  0.002  0.147086  0.001571  4.069511  0.002  0.215641  0.13958  0.004795  4.048097  0.003
C  C26  1  0.79125649  0.93909113  0.45408403  1  0.166928  -0.000549  3.766426  0.0  0.14278  0.002912  4.056183  0.002  0.147043  0.001569  4.069619  0.002  0.215656  0.139535  0.004794  4.048207  0.003
C  C27  1  0.20874224  0.43909177  0.04591523  1  0.166945  -0.000547  3.766479  0.0  0.142853  0.002913  4.056189  0.002  0.147117  0.00157  4.069623  0.002  0.215672  0.139607  0.004794  4.048212  0.003
C  C28  1  0.35505797  0.89279657  0.62436094  1  0.246484  0.002787  3.648494  0.004  0.211018  0.005518  3.927288  0.006  0.2215  0.003963  3.936121  0.005  0.24055  0.203716  0.007319  3.922071  0.007
C  C29  1  0.64493805  0.39279348  0.87564122  1  0.246674  0.002734  3.648411  0.004  0.211119  0.00552  3.927286  0.006  0.221601  0.003964  3.936116  0.005  0.240558  0.203811  0.007319  3.922077  0.007
C  C30  1  0.64494140  0.10720603  0.37563940  1  0.246531  0.00279  3.648473  0.004  0.210958  0.005519  3.927405  0.006  0.221437  0.003962  3.936237  0.005  0.240509  0.203654  0.007319  3.922196  0.007
C  C31  1  0.35506131  0.60720521  0.12436008  1  0.246576  0.002817  3.648455  0.004  0.211039  0.005518  3.92735  0.006  0.221521  0.003962  3.93618  0.005  0.240553  0.203734  0.007319  3.922136  0.007
C  C32  1  0.10970718  0.18931796  0.54439915  1  0.63851  0.01575  3.902268  0.015  0.576462  0.026194  4.213394  0.023  0.613671  0.018632  4.201887  0.017  0.230704  0.549485  0.035255  4.221597  0.03
C  C33  1  0.89029445  0.68931736  0.95559563  1  0.638427  0.015721  3.902383  0.015  0.576375  0.026201  4.213514  0.023  0.613582  0.018635  4.202015  0.017  0.230677  0.54939  0.035262  4.221712  0.03
C  C34  1  0.89029080  0.81068171  0.45559822  1  0.638257  0.015749  3.902539  0.015  0.576226  0.0262  4.213672  0.023  0.613435  0.018634  4.20217  0.017  0.230593  0.549245  0.035265  4.221876  0.03
C  C35  1  0.10970209  0.31068426  0.04440262  1  0.638433  0.015741  3.902337  0.015  0.576345  0.026201  4.213528  0.023  0.613551  0.018634  4.202027  0.017  0.230646  0.549363  0.035265  4.221727  0.03
C  C36  1  0.45334949  0.79073648  0.70880693  1  0.628524  0.006735  3.927984  0.007  0.575863  0.011779  4.232001  0.011  0.610553  0.008424  4.220463  0.008  0.232173  0.551458  0.016017  4.240095  0.014
C  C37  1  0.54664791  0.29073042  0.79119146  1  0.628413  0.006738  3.927966  0.007  0.575829  0.011782  4.231833  0.011  0.610519  0.008425  4.220295  0.008  0.232178  0.551426  0.016022  4.239932  0.014
C  C38  1  0.54664989  0.20926514  0.29119245  1  0.628543  0.006717  3.928024  0.007  0.575925  0.011778  4.232027  0.011  0.610616  0.008422  4.220486  0.008  0.232185  0.551524  0.016016  4.240121  0.014
C  C39  1  0.45335002  0.70926632  0.20880976  1  0.628461  0.006706  3.928022  0.007  0.575808  0.011783  4.232035  0.011  0.610495  0.008424  4.220503  0.008  0.232107  0.551404  0.016021  4.240136  0.014
N  N40  1  0.26916382  0.00227493  0.65931054  1  -0.43296  0.030367  3.162062  0.016  -0.387964  0.036431  3.457383  0.017  -0.404654  0.03238  3.466161  0.014  -0.319636  -0.376268  0.040938  3.451892  0.021
N  N41  1  0.73083189  0.50227134  0.84068871  1  -0.433072  0.030417  3.162068  0.016  -0.388045  0.03643  3.45741  0.017  -0.404736  0.03238  3.466186  0.014  -0.319633  -0.376349  0.04094  3.451918  0.021
N  N42  1  0.73083556  0.99772767  0.34068884  1  -0.432981  0.030368  3.162024  0.016  -0.387935  0.03643  3.457408  0.017  -0.404627  0.032379  3.466186  0.014  -0.319602  -0.376239  0.040938  3.451916  0.021
N  N43  1  0.26916464  0.49772833  0.15931050  1  -0.43302  0.030366  3.162072  0.016  -0.387999  0.036432  3.457433  0.017  -0.40469  0.032379  3.466207  0.014  -0.319617  -0.376302  0.040941  3.451944  0.021
N  N44  1  0.25202369  0.99201307  0.44264345  1  -0.208967  0.002201  2.961915  0.003  -0.185736  0.004838  3.226425  0.005  -0.191536  0.002698  3.23968  0.003  -0.189664  -0.18232  0.008068  3.218412  0.008
N  N45  1  0.74798075  0.49201295  0.05735710  1  -0.208951  0.002221  2.961902  0.003  -0.185715  0.004838  3.226412  0.005  -0.191517  0.002699  3.239666  0.003  -0.189691  -0.182301  0.00807  3.218397  0.008
N  N46  1  0.74797712  0.00798660  0.55735505  1  -0.20897  0.002207  2.962014  0.003  -0.185683  0.004839  3.226509  0.005  -0.191484  0.0027  3.239764  0.003  -0.189679  -0.182265  0.00807  3.218491  0.008
N  N47  1  0.25202287  0.50798575  0.94264445  1  -0.208956  0.002212  2.961985  0.003  -0.185705  0.004838  3.226484  0.005  -0.191506  0.002699  3.239738  0.003  -0.189669  -0.18229  0.008071  3.218466  0.008
N  N48  1  0.34441970  0.88727327  0.49390511  1  -0.170589  0.002251  3.404227  0.003  -0.113716  0.004829  3.64341  0.005  -0.126531  0.003243  3.658888  0.004  -0.239156  -0.105456  0.00676  3.633885  0.007
N  N49  1  0.65558177  0.38727213  0.00609815  1  -0.170713  0.00226  3.404252  0.003  -0.113824  0.004831  3.643443  0.005  -0.126637  0.003241  3.658922  0.004  -0.23916  -0.105566  0.006762  3.63392  0.007
N  N50  1  0.65558108  0.11272933  0.50609627  1  -0.170681  0.00224  3.404252  0.003  -0.113783  0.00483  3.643424  0.005  -0.126593  0.003242  3.658902  0.004  -0.239167  -0.105525  0.006761  3.633902  0.007
N  N51  1  0.34442186  0.61272754  0.99390244  1  -0.170716  0.002227  3.404257  0.003  -0.113835  0.004831  3.643447  0.005  -0.126648  0.003243  3.658925  0.004  -0.239206  -0.105572  0.006763  3.633912  0.007
O  O52  1  0.08051845  0.23526515  0.65565086  1  -0.61874  0.0341  2.02933  0.025  -0.554122  0.046396  2.278446  0.035  -0.581322  0.040119  2.263653  0.03  -0.285255  -0.5348  0.053142  2.288873  0.042
O  O53  1  0.91948031  0.73526554  0.84434857  1  -0.618715  0.034121  2.029467  0.025  -0.554095  0.046396  2.278584  0.035  -0.581289  0.040121  2.26379  0.03  -0.285261  -0.534798  0.053146  2.28905  0.042
O  O54  1  0.91948089  0.76473550  0.34435141  1  -0.618612  0.034106  2.029567  0.025  -0.553984  0.046395  2.278671  0.035  -0.581187  0.040118  2.263882  0.03  -0.28517  -0.53467  0.053143  2.289104  0.042
O  O55  1  0.08051483  0.26473608  0.15564767  1  -0.618712  0.034122  2.029492  0.025  -0.554033  0.046395  2.278586  0.035  -0.581226  0.040121  2.26379  0.03  -0.28521  -0.534732  0.053146  2.289055  0.042
O  O56  1  0.06080941  0.24222926  0.43706881  1  -0.617674  0.025988  2.051044  0.011  -0.554554  0.033642  2.320868  0.014  -0.582137  0.029403  2.304831  0.011  -0.309062  -0.534073  0.037965  2.332335  0.017
O  O57  1  0.93919484  0.74223161  0.06292979  1  -0.617659  0.025996  2.051045  0.011  -0.554496  0.033642  2.320826  0.014  -0.582082  0.029401  2.304791  0.011  -0.309054  -0.534018  0.037964  2.332288  0.017
O  O58  1  0.93919560  0.75777138  0.56293570  1  -0.61761  0.025983  2.051037  0.011  -0.5545  0.03364  2.320887  0.014  -0.582079  0.029402  2.304849  0.011  -0.309063  -0.534018  0.037962  2.332349  0.017
O  O59  1  0.06080033  0.25777294  0.93706453  1  -0.617704  0.025975  2.050898  0.011  -0.554602  0.033642  2.320817  0.014  -0.582179  0.029401  2.304777  0.011  -0.309111  -0.53412  0.037963  2.33228  0.017
O  O60  1  0.54008336  0.70550382  0.64679015  1  -0.630742  0.027894  2.055005  0.015  -0.575634  0.034904  2.327879  0.018  -0.603507  0.031076  2.313608  0.015  -0.305072  -0.555729  0.03968  2.33806  0.022
O  O61  1  0.45991102  0.20549676  0.85321673  1  -0.630802  0.027891  2.05479  0.015  -0.575688  0.034905  2.327622  0.018  -0.603565  0.031077  2.313358  0.015  -0.305129  -0.555778  0.039681  2.337802  0.022
O  O62  1  0.45991461  0.29449878  0.35320818  1  -0.630768  0.027895  2.055018  0.015  -0.575656  0.034904  2.32786  0.018  -0.603529  0.031078  2.313589  0.015  -0.305074  -0.555746  0.03968  2.338044  0.022
O  O63  1  0.54008974  0.79450291  0.14678657  1  -0.630756  0.02789  2.054699  0.015  -0.575654  0.034905  2.327583  0.018  -0.603535  0.031077  2.313318  0.015  -0.3051  -0.555744  0.039682  2.337761  0.022
O  O64  1  0.44154901  0.79832102  0.82931105  1  -0.586678  0.003442  2.007418  0.005  -0.53598  0.007097  2.233352  0.009  -0.558597  0.005135  2.221271  0.007  -0.292602  -0.520821  0.00931  2.242021  0.011
O  O65  1  0.55844547  0.29831106  0.67069391  1  -0.586599  0.003452  2.007647  0.005  -0.535916  0.007097  2.233541  0.009  -0.558531  0.005134  2.221457  0.007  -0.292557  -0.520759  0.00931  2.242215  0.011
O  O66  1  0.55844892  0.20167963  0.17069017  1  -0.58668  0.003459  2.007462  0.005  -0.535986  0.007096  2.233376  0.009  -0.558602  0.005134  2.221294  0.007  -0.292596  -0.520823  0.009309  2.242045  0.011
O  O67  1  0.44155393  0.70168373  0.32930354  1  -0.586635  0.003468  2.007822  0.005  -0.535904  0.007096  2.233731  0.009  -0.558518  0.005136  2.221647  0.007  -0.292536  -0.520748  0.00931  2.242409  0.011
O  O68  1  0.91166027  0.99710241  0.80839236  1  -0.829502  0.027221  1.956057  0.017  -0.762236  0.036536  2.167821  0.023  -0.786101  0.032742  2.13244  0.02  -0.548306  -0.744327  0.040254  2.192297  0.027
O  O69  1  0.08834015  0.49710104  0.69160716  1  -0.829432  0.027223  1.956148  0.017  -0.762162  0.036534  2.167913  0.023  -0.786027  0.03274  2.132527  0.02  -0.54827  -0.744249  0.040251  2.19238  0.027
O  O70  1  0.08833911  0.00289922  0.19160702  1  -0.829446  0.027221  1.956114  0.017  -0.76217  0.036536  2.167903  0.023  -0.786039  0.032741  2.132521  0.02  -0.548274  -0.744256  0.040253  2.19237  0.027
O  O71  1  0.91165779  0.50289765  0.30839406  1  -0.829483  0.027224  1.956099  0.017  -0.762216  0.036535  2.167862  0.023  -0.786081  0.03274  2.132475  0.02  -0.548279  -0.744298  0.040252  2.19233  0.027
O  O72  1  0.27597092  0.98652099  0.97597408  1  -0.85598  0.036699  1.917847  0.023  -0.790415  0.045689  2.134764  0.027  -0.814366  0.040605  2.097962  0.023  -0.577733  -0.771602  0.050415  2.160272  0.032
O  O73  1  0.72403375  0.48651988  0.52402665  1  -0.856014  0.036713  1.917809  0.023  -0.790477  0.04569  2.134747  0.027  -0.814428  0.040606  2.097934  0.023  -0.577754  -0.771651  0.050414  2.160265  0.032
O  O74  1  0.72402846  0.01347770  0.02402530  1  -0.856126  0.0367  1.917777  0.023  -0.790608  0.045694  2.134719  0.027  -0.814557  0.040609  2.097916  0.023  -0.577823  -0.771795  0.05042  2.160231  0.032
O  O75  1  0.27597273  0.51347686  0.47597506  1  -0.856127  0.036714  1.91767  0.023  -0.790607  0.045691  2.134605  0.027  -0.814554  0.040606  2.097796  0.023  -0.577804  -0.771783  0.050416  2.160119  0.032
