# generated using pymatgen
data_Hf3H17C60Br15N9O16
_symmetry_space_group_name_H-M   'P 1'
_cell_length_a   19.69367471
_cell_length_b   19.71097160
_cell_length_c   19.75918182
_cell_angle_alpha   91.92761592
_cell_angle_beta   92.73890425
_cell_angle_gamma   91.60508607
_symmetry_Int_Tables_number   1
_chemical_formula_structural   Hf3H17C60Br15N9O16
_chemical_formula_sum   'Hf6 H34 C120 Br30 N18 O32'
_cell_volume   7653.68009344
_cell_formula_units_Z   2
loop_
 _symmetry_equiv_pos_site_id
 _symmetry_equiv_pos_as_xyz
  1  'x, y, z'
loop_
 _atom_site_type_symbol
 _atom_site_label
 _atom_site_symmetry_multiplicity
 _atom_site_fract_x
 _atom_site_fract_y
 _atom_site_fract_z
 _atom_site_occupancy
 _atom_site_pbe_bader_charge
 _atom_site_pbe_bader_spin_density
 _atom_site_pbe_cm5_charge
 _atom_site_pbe_ddec_charge
 _atom_site_pbe_ddec_spin_density
 _atom_site_pbe_ddec_sum_bond_order
 _atom_site_pbe_magmom
Hf  Hf0  1  0.80992834  0.95866324  0.86567555  1  2.620864  0  1.512044  2.141721  0  3.351477  0
Hf  Hf1  1  0.77588508  0.85928738  0.00420709  1  2.619332  0  1.510485  2.144576  0  3.342003  0
Hf  Hf2  1  0.97666626  0.98768141  0.93068043  1  2.622426  0  1.503154  2.147258  0  3.318665  0
Hf  Hf3  1  0.91135172  0.82086348  0.90284711  1  2.618951  0  1.499862  2.151926  0  3.297218  0
Hf  Hf4  1  0.83981616  0.02476478  0.03151968  1  2.622993  0  1.50491  2.149219  0  3.314852  0
Hf  Hf5  1  0.94346495  0.88718441  0.06833804  1  2.619983  0  1.501797  2.149489  0  3.30742  0
H  H6  1  0.77277066  0.81883591  0.86498890  1  0.598274  0  0.321219  0.398343  0  0.897836  0
H  H7  1  0.87615147  0.08378176  0.90985119  1  0.621575  0  0.33462  0.415984  0  0.860132  0
H  H8  1  0.03706392  0.86497432  0.96756988  1  0.622046  0  0.332674  0.414275  0  0.862675  0
H  H9  1  0.82218539  0.92368670  0.12767565  1  0.621204  0  0.339728  0.422282  0  0.848471  0
H  H10  1  0.26513564  0.79965283  0.79214793  1  0.140084  0  0.113062  0.129525  0  0.992021  0
H  H11  1  0.08028101  0.95618695  0.73563075  1  0.086619  0  0.112829  0.13194  0  0.980236  0
H  H12  1  0.42381618  0.89974254  0.84684118  1  0.11649  0  0.110934  0.124509  0  1.007011  0
H  H13  1  0.64881213  0.85839113  0.75558740  1  0.117911  0  0.100465  0.114274  0  1.034901  0
H  H14  1  0.32453821  0.96017883  0.09238636  1  0.137714  0  0.111755  0.126992  0  1.005055  0
H  H15  1  0.09943468  0.00610630  0.18232116  1  0.105928  0  0.112596  0.132498  0  0.986202  0
H  H16  1  0.53265880  0.08596862  0.21158306  1  0.095764  0  0.111995  0.130379  0  0.977665  0
H  H17  1  0.61944697  0.86813359  0.12488672  1  0.136082  0  0.115181  0.136754  0  0.99655  0
H  H18  1  0.46869568  0.00189960  0.42354748  1  0.118438  0  0.110653  0.127555  0  0.99682  0
H  H19  1  0.28412073  0.86026472  0.51211764  1  0.133544  0  0.111264  0.128511  0  1.000241  0
H  H20  1  0.55809036  0.23493220  0.95713118  1  0.087282  0  0.113875  0.129652  0  0.995838  0
H  H21  1  0.77975526  0.20266804  0.85335307  1  0.094583  0  0.104778  0.122243  0  0.995828  0
H  H22  1  0.72538027  0.48795880  0.86209572  1  0.12522  0  0.101507  0.118303  0  1.029889  0
H  H23  1  0.71523671  0.67377339  0.03505633  1  0.128401  0  0.115237  0.138178  0  0.995158  0
H  H24  1  0.08716683  0.14657351  0.06960209  1  0.128629  0  0.111158  0.131152  0  0.982076  0
H  H25  1  0.00711609  0.36558883  0.98496473  1  0.116816  0  0.112196  0.128024  0  0.996309  0
H  H26  1  0.01607864  0.50607381  0.01254197  1  0.133827  0  0.110901  0.123978  0  1.016429  0
H  H27  1  0.13466459  0.73024856  0.04132723  1  0.092058  0  0.106743  0.126272  0  0.990227  0
H  H28  1  0.43536105  0.31676137  0.93588381  1  0.110587  0  0.108037  0.120724  0  1.026732  0
H  H29  1  0.32019571  0.52611783  0.99972398  1  0.153006  0  0.096567  0.10923  0  1.071967  0
H  H30  1  0.73623069  0.78847647  0.22029097  1  0.128596  0  0.110921  0.129672  0  0.98674  0
H  H31  1  0.91376319  0.63502992  0.30466651  1  0.111878  0  0.110942  0.125708  0  0.993952  0
H  H32  1  0.74802207  0.65960295  0.61668941  1  0.124259  0  0.113351  0.130835  0  0.985154  0
H  H33  1  0.90732328  0.86001228  0.64189310  1  0.087781  0  0.112151  0.129539  0  0.977887  0
H  H34  1  0.92626171  0.05427371  0.41341999  1  0.126538  0  0.100684  0.112627  0  1.059169  0
H  H35  1  0.93587053  0.14475995  0.18416518  1  0.124335  0  0.111054  0.130907  0  0.997348  0
H  H36  1  0.86222679  0.00808623  0.67124312  1  0.123799  0  0.113383  0.132452  0  0.993669  0
H  H37  1  0.98018966  0.23127799  0.65446672  1  0.124023  0  0.113056  0.128927  0  0.989297  0
H  H38  1  0.81569824  0.34589759  0.54266250  1  0.11185  0  0.112453  0.128911  0  0.987527  0
H  H39  1  0.94590076  0.50841732  0.40929609  1  0.088306  0  0.111756  0.127607  0  0.98763  0
C  C40  1  0.92479930  0.18764670  0.53535470  1  1.124648  0  0.259906  0.395674  0  4.00912  0
C  C41  1  0.91382331  0.28487980  0.47893158  1  1.096709  0  0.259862  0.39555  0  3.997638  0
C  C42  1  0.93187291  0.18607141  0.42067980  1  1.108811  0  0.261157  0.401425  0  3.96235  0
C  C43  1  0.82405181  0.65535630  0.39559915  1  1.118127  0  0.260137  0.397809  0  3.999511  0
C  C44  1  0.82374579  0.67209756  0.50924548  1  1.110237  0  0.260017  0.399571  0  3.997458  0
C  C45  1  0.84340077  0.56776017  0.46464891  1  1.098566  0  0.26035  0.397562  0  3.992954  0
C  C46  1  0.14570516  0.49062169  0.02013965  1  1.118855  0  0.260054  0.396078  0  3.996081  0
C  C47  1  0.23522842  0.42384331  0.99914075  1  1.092376  0  0.261286  0.39989  0  3.971453  0
C  C48  1  0.13495001  0.37596773  0.02722843  1  1.113164  0  0.260985  0.398071  0  4.004777  0
C  C49  1  0.61183001  0.35105986  0.92103055  1  1.133207  0  0.260026  0.395618  0  4.015017  0
C  C50  1  0.52333887  0.41724509  0.94799942  1  1.09925  0  0.260978  0.397034  0  3.976261  0
C  C51  1  0.63024675  0.46286284  0.94671936  1  1.103152  0  0.261251  0.397132  0  4.006831  0
C  C52  1  0.44845654  0.97786190  0.23574379  1  1.101717  0  0.258137  0.390828  0  4.03082  0
C  C53  1  0.38455447  0.95663326  0.32499697  1  1.095664  0  0.261042  0.398909  0  3.98827  0
C  C54  1  0.33383801  0.98207618  0.22373879  1  1.098952  0  0.260892  0.400475  0  3.983824  0
C  C55  1  0.30037594  0.88308254  0.69783633  1  1.161676  0  0.25866  0.394471  0  4.003464  0
C  C56  1  0.41525674  0.88310894  0.71362525  1  1.164366  0  0.25979  0.396341  0  3.99568  0
C  C57  1  0.36702816  0.90636946  0.61073939  1  1.110828  0  0.260768  0.396029  0  3.992388  0
C  C58  1  0.91750563  0.04725655  0.78834733  1  1.562968  0  0.24242  0.640023  0  4.082835  0
C  C59  1  0.66311971  0.89211855  0.88310705  1  1.600177  0  0.243681  0.645143  0  4.080015  0
C  C60  1  0.84047775  0.83761499  0.75633392  1  1.619772  0  0.242759  0.640712  0  4.113168  0
C  C61  1  0.74278154  0.09515128  0.92265268  1  1.611994  0  0.245191  0.648946  0  4.103044  0
C  C62  1  0.84117006  0.79019676  0.14176371  1  1.587048  0  0.243907  0.64565  0  4.082468  0
C  C63  1  0.08641342  0.96306474  0.05548249  1  1.587142  0  0.244953  0.645251  0  4.083375  0
C  C64  1  0.79146758  0.71167826  0.93976105  1  1.556781  0  0.237598  0.634117  0  4.08634  0
C  C65  1  0.69941180  0.96723483  0.09327309  1  1.5704  0  0.242165  0.641686  0  4.07356  0
C  C66  1  0.96501040  0.13180711  0.00676028  1  1.598008  0  0.242905  0.642075  0  4.095859  0
C  C67  1  0.04872333  0.87989543  0.83692754  1  1.596004  0  0.243827  0.644351  0  4.089018  0
C  C68  1  0.00081283  0.74286141  0.01115365  1  1.606514  0  0.241723  0.639538  0  4.100355  0
C  C69  1  0.91677371  0.01397634  0.17578232  1  1.572673  0  0.243131  0.642254  0  4.078325  0
C  C70  1  0.22310961  0.83188048  0.77801461  1  -0.025456  0  -0.081976  -0.144853  0  3.94891  0
C  C71  1  0.23257735  0.87889719  0.72712295  1  0.021518  0  -0.002854  -0.015599  0  3.933605  0
C  C72  1  0.17890793  0.92199357  0.71008297  1  -0.100461  0  -0.005503  0.091011  0  3.922877  0
C  C73  1  0.11950621  0.91936786  0.74543626  1  0.046053  0  -0.084793  -0.13754  0  3.952533  0
C  C74  1  0.11030150  0.87220652  0.79584007  1  0.057477  0  -0.009374  -0.05157  0  3.945674  0
C  C75  1  0.16233476  0.82726256  0.81090228  1  -0.060128  0  -0.014001  0.083686  0  3.961268  0
C  C76  1  0.47344793  0.88905253  0.82760298  1  0.007299  0  -0.0807  -0.142764  0  3.934202  0
C  C77  1  0.47738120  0.87560386  0.75752539  1  0.044659  0  -0.001724  -0.013041  0  3.919924  0
C  C78  1  0.54145301  0.86055153  0.73264382  1  -0.106131  0  -0.00536  0.098302  0  3.909552  0
C  C79  1  0.59911865  0.86624814  0.77585453  1  0.021012  0  -0.08936  -0.140654  0  3.973942  0
C  C80  1  0.59542675  0.88210720  0.84527803  1  0.061251  0  -0.009863  -0.054861  0  3.928879  0
C  C81  1  0.53116544  0.89083200  0.87136857  1  -0.09916  0  -0.010042  0.089228  0  3.949679  0
C  C82  1  0.27494608  0.97187856  0.11111954  1  0.044987  0  -0.079285  -0.137397  0  3.930015  0
C  C83  1  0.27115824  0.98895646  0.18050931  1  0.054925  0  -0.001784  -0.016099  0  3.920709  0
C  C84  1  0.20720900  0.00512263  0.20503726  1  -0.079654  0  -0.003966  0.094832  0  3.92406  0
C  C85  1  0.14919386  0.99763825  0.16224278  1  0.010832  0  -0.084805  -0.13862  0  3.955177  0
C  C86  1  0.15298110  0.97766388  0.09382197  1  0.080727  0  -0.010824  -0.056517  0  3.944604  0
C  C87  1  0.21700505  0.96709303  0.06789261  1  -0.147749  0  -0.010367  0.089693  0  3.954672  0
C  C88  1  0.55205917  0.03779358  0.19346238  1  0.040727  0  -0.086399  -0.156394  0  3.941166  0
C  C89  1  0.51538609  0.97764035  0.20341771  1  0.02843  0  0.003341  0.007117  0  3.951041  0
C  C90  1  0.54124956  0.91614716  0.17984873  1  -0.052902  0  -0.013758  0.073264  0  3.958305  0
C  C91  1  0.60061739  0.91562966  0.14511793  1  0.023541  0  -0.086969  -0.130792  0  3.971855  0
C  C92  1  0.63774880  0.97598725  0.13400125  1  0.036831  0  -0.020689  -0.087517  0  3.938323  0
C  C93  1  0.61334146  0.03750880  0.16032185  1  -0.114414  0  -0.005575  0.105601  0  3.936534  0
C  C94  1  0.42831410  0.97058225  0.44338724  1  0.079029  0  -0.082657  -0.142948  0  3.943073  0
C  C95  1  0.37903751  0.94065836  0.39719975  1  0.036608  0  2.3e-05  -0.009405  0  3.928708  0
C  C96  1  0.32675551  0.90001991  0.42274835  1  -0.15076  0  -0.006524  0.092289  0  3.924084  0
C  C97  1  0.32441747  0.89158560  0.49215837  1  0.095133  0  -0.08262  -0.146127  0  3.945975  0
C  C98  1  0.37352285  0.92178625  0.53845337  1  0.025046  0  0.000219  -0.007213  0  3.923537  0
C  C99  1  0.42588270  0.96230738  0.51287970  1  -0.114717  0  -0.005924  0.091155  0  3.922656  0
C  C100  1  0.60696044  0.22725898  0.93491760  1  0.04142  0  -0.078646  -0.136698  0  3.938007  0
C  C101  1  0.64016098  0.28352044  0.90766391  1  0.003718  0  -0.00474  -0.024864  0  3.940225  0
C  C102  1  0.70128707  0.27290138  0.87501403  1  -0.103925  0  -0.005774  0.095727  0  3.918915  0
C  C103  1  0.73153985  0.20997272  0.87708283  1  0.091282  0  -0.092515  -0.150009  0  3.972774  0
C  C104  1  0.70133111  0.15646035  0.91037944  1  0.032915  0  -0.006951  -0.039959  0  3.947977  0
C  C105  1  0.63681198  0.16427931  0.93574492  1  -0.091698  0  -0.012456  0.086731  0  3.962075  0
C  C106  1  0.72306681  0.52950639  0.89960302  1  0.053476  0  -0.084281  -0.14509  0  3.929632  0
C  C107  1  0.67723525  0.52298668  0.95131011  1  0.030558  0  0.003226  0.002953  0  3.925747  0
C  C108  1  0.67708087  0.57445871  0.00224725  1  -0.07972  0  -0.009903  0.085953  0  3.943026  0
C  C109  1  0.71670577  0.63297189  0.99675064  1  0.033461  0  -0.084984  -0.127981  0  3.941205  0
C  C110  1  0.75914566  0.64207115  0.94213343  1  0.020893  0  -0.02123  -0.076464  0  3.935847  0
C  C111  1  0.76439231  0.58765436  0.89485459  1  -0.107408  0  -0.012826  0.093389  0  3.950566  0
C  C112  1  0.06903356  0.19497656  0.05198857  1  0.043907  0  -0.084424  -0.138025  0  3.948666  0
C  C113  1  0.00367007  0.19786796  0.02119272  1  -0.003069  0  -0.009875  -0.051513  0  3.946647  0
C  C114  1  0.98066519  0.26042622  0.99937596  1  -0.101304  0  -0.014504  0.082915  0  3.96392  0
C  C115  1  0.02389015  0.31758414  0.00461535  1  0.073901  0  -0.081554  -0.141052  0  3.943472  0
C  C116  1  0.09057870  0.31450793  0.03284482  1  0.026464  0  -0.002639  -0.017396  0  3.930492  0
C  C117  1  0.11163863  0.25261342  0.05931351  1  -0.094009  0  -0.004747  0.094747  0  3.929345  0
C  C118  1  0.04181306  0.55565497  0.01736719  1  0.017817  0  -0.082018  -0.137622  0  3.952817  0
C  C119  1  0.11324262  0.55761169  0.02452137  1  0.130083  0  -0.003954  -0.020338  0  3.92174  0
C  C120  1  0.14620818  0.62192124  0.03420454  1  -0.117633  0  -0.00721  0.09136  0  3.912167  0
C  C121  1  0.10845243  0.68095702  0.03359627  1  0.037332  0  -0.093157  -0.150285  0  3.959103  0
C  C122  1  0.03774978  0.67816177  0.02227959  1  -0.007061  0  -0.010737  -0.045436  0  3.938613  0
C  C123  1  0.00456976  0.61414859  0.01579476  1  -0.135621  0  -0.014812  0.082867  0  3.967362  0
C  C124  1  0.40969198  0.36270423  0.95075820  1  0.091786  0  -0.086057  -0.14688  0  3.952002  0
C  C125  1  0.44948151  0.42322163  0.95807809  1  0.047318  0  -0.000129  -0.01166  0  3.904577  0
C  C126  1  0.41530073  0.48339060  0.97437042  1  -0.128474  0  -0.006385  0.095047  0  3.901132  0
C  C127  1  0.34626017  0.47996034  0.98620025  1  0.058865  0  -0.085185  -0.140744  0  3.942208  0
C  C128  1  0.30723904  0.41906555  0.98134500  1  0.018426  0  -0.000264  -0.008786  0  3.907498  0
C  C129  1  0.34037163  0.35965067  0.96091382  1  -0.146275  0  -0.006597  0.093433  0  3.918594  0
C  C130  1  0.77599550  0.75601909  0.23983312  1  0.026875  0  -0.085256  -0.140505  0  3.963685  0
C  C131  1  0.83372682  0.74680747  0.20202680  1  0.031945  0  -0.012261  -0.063164  0  3.938288  0
C  C132  1  0.88354820  0.70249226  0.22600809  1  -0.119321  0  -0.009749  0.093695  0  3.949289  0
C  C133  1  0.87567711  0.67005054  0.28664854  1  0.081352  0  -0.082607  -0.14529  0  3.94947  0
C  C134  1  0.82082222  0.68359955  0.32706809  1  -0.005434  0  -0.000547  -0.007451  0  3.941874  0
C  C135  1  0.77010452  0.72632489  0.30232753  1  -0.087506  0  -0.008914  0.086793  0  3.938224  0
C  C136  1  0.78174260  0.70440711  0.62194819  1  0.04253  0  -0.078879  -0.139712  0  3.945489  0
C  C137  1  0.82438931  0.71941168  0.56923978  1  0.004318  0  -0.001944  -0.011513  0  3.937137  0
C  C138  1  0.86780835  0.77731018  0.57609348  1  -0.101631  0  -0.0046  0.092108  0  3.924402  0
C  C139  1  0.87081358  0.81742360  0.63571631  1  0.039959  0  -0.085724  -0.14159  0  3.957157  0
C  C140  1  0.82909050  0.80157954  0.68842556  1  0.052648  0  -0.008094  -0.047914  0  3.96062  0
C  C141  1  0.78307215  0.74619781  0.68003487  1  -0.079927  0  -0.010712  0.084858  0  3.955794  0
C  C142  1  0.93025734  0.07356709  0.36273720  1  0.0322  0  -0.083768  -0.141273  0  3.933554  0
C  C143  1  0.93589991  0.14466436  0.35682587  1  -0.005441  0  -0.001538  -0.015101  0  3.89223  0
C  C144  1  0.94045840  0.16965061  0.29086808  1  -0.050409  0  -0.005056  0.0963  0  3.916029  0
C  C145  1  0.93571885  0.12474079  0.23487750  1  -0.009411  0  -0.08598  -0.137052  0  3.954794  0
C  C146  1  0.92876987  0.05432751  0.24122056  1  0.084926  0  -0.010695  -0.055541  0  3.937521  0
C  C147  1  0.92739370  0.02889952  0.30660808  1  -0.099434  0  -0.01174  0.089168  0  3.952323  0
C  C148  1  0.89090022  0.05557773  0.66640921  1  -0.024615  0  -0.084844  -0.135525  0  3.959079  0
C  C149  1  0.92519189  0.08507050  0.72445991  1  0.045694  0  -0.013278  -0.062784  0  3.937534  0
C  C150  1  0.95867005  0.14840475  0.71949572  1  -0.076592  0  -0.009911  0.092118  0  3.95124  0
C  C151  1  0.95654412  0.18097988  0.65788739  1  0.001198  0  -0.080201  -0.143188  0  3.936907  0
C  C152  1  0.92405176  0.15048826  0.59934841  1  0.049941  0  0.000913  -0.008502  0  3.938079  0
C  C153  1  0.89114262  0.08664613  0.60441864  1  -0.04528  0  -0.007852  0.082846  0  3.935093  0
C  C154  1  0.84462238  0.38189992  0.51390330  1  0.0776  0  -0.08057  -0.14162  0  3.936443  0
C  C155  1  0.90006914  0.35865698  0.47856971  1  -0.02907  0  0.000168  -0.008953  0  3.934394  0
C  C156  1  0.93763195  0.40582739  0.44252041  1  -0.032446  0  -0.007313  0.089736  0  3.937934  0
C  C157  1  0.91718918  0.47256981  0.43839503  1  -0.009974  0  -0.081764  -0.143231  0  3.9493  0
C  C158  1  0.86075359  0.49547434  0.47232198  1  0.047818  0  -0.000563  -0.009783  0  3.940699  0
C  C159  1  0.82530172  0.44929152  0.51129906  1  -0.064988  0  -0.007219  0.088505  0  3.932286  0
Br  Br160  1  0.15456254  0.76333080  0.88046020  1  -0.040781  0  0.030834  -0.059559  0  1.456065  0
Br  Br161  1  0.18480228  0.99123777  0.64576179  1  -0.032296  0  0.027422  -0.059751  0  1.371816  0
Br  Br162  1  0.52022713  0.91001454  0.96519576  1  -0.036343  0  0.034501  -0.040108  0  1.44835  0
Br  Br163  1  0.55559381  0.82842100  0.64273949  1  -0.026316  0  0.025775  -0.062655  0  1.425347  0
Br  Br164  1  0.22665389  0.93907849  0.97591736  1  -0.039401  0  0.027527  -0.056535  0  1.406185  0
Br  Br165  1  0.19412738  0.04015569  0.29403122  1  -0.025939  0  0.028178  -0.058933  0  1.400752  0
Br  Br166  1  0.65829159  0.12316113  0.15362560  1  -0.010665  0  0.037658  -0.042299  0  1.432631  0
Br  Br167  1  0.49436739  0.83223741  0.19267376  1  -0.049545  0  0.023285  -0.061163  0  1.343295  0
Br  Br168  1  0.49210679  0.01262154  0.56852218  1  -0.025811  0  0.024091  -0.061337  0  1.395885  0
Br  Br169  1  0.26058788  0.84996336  0.36679609  1  -0.02987  0  0.023748  -0.061085  0  1.387517  0
Br  Br170  1  0.58964458  0.08789121  0.96900164  1  -0.037036  0  0.032595  -0.059245  0  1.4988  0
Br  Br171  1  0.74538892  0.33867732  0.82267193  1  -0.034011  0  0.032964  -0.061085  0  1.438635  0
Br  Br172  1  0.82458525  0.58811583  0.82280737  1  -0.023705  0  0.033452  -0.046721  0  1.470571  0
Br  Br173  1  0.62790162  0.56566109  0.08196649  1  -0.035311  0  0.024995  -0.060581  0  1.397581  0
Br  Br174  1  0.19567092  0.24352076  0.10888712  1  -0.030073  0  0.026839  -0.061692  0  1.406067  0
Br  Br175  1  0.89247115  0.26833042  0.95715085  1  -0.053489  0  0.028056  -0.067926  0  1.469834  0
Br  Br176  1  0.90862508  0.60386997  0.00761253  1  -0.026507  0  0.047367  -0.040638  0  1.595633  0
Br  Br177  1  0.24142752  0.63557191  0.05218587  1  -0.035771  0  0.036765  -0.057697  0  1.434652  0
Br  Br178  1  0.29657212  0.27362039  0.94121412  1  -0.026932  0  0.022853  -0.06455  0  1.423269  0
Br  Br179  1  0.45444341  0.57281950  0.98041964  1  -0.020686  0  0.022832  -0.06369  0  1.453527  0
Br  Br180  1  0.69039032  0.74293035  0.34987172  1  -0.036587  0  0.021673  -0.061273  0  1.358528  0
Br  Br181  1  0.96275775  0.68246776  0.17939632  1  -0.02207  0  0.042044  -0.043619  0  1.545761  0
Br  Br182  1  0.72128811  0.72769531  0.74893132  1  -0.056551  0  0.060975  -0.033966  0  1.507382  0
Br  Br183  1  0.92948349  0.80082827  0.50897979  1  -0.031123  0  0.027424  -0.059993  0  1.382888  0
Br  Br184  1  0.91464824  0.93455867  0.32139796  1  -0.038529  0  0.022591  -0.053488  0  1.367317  0
Br  Br185  1  0.95313878  0.26217274  0.26970044  1  -0.018045  0  0.028836  -0.060814  0  1.479699  0
Br  Br186  1  0.83897022  0.04191697  0.53165255  1  -0.034992  0  0.041786  -0.04904  0  1.411002  0
Br  Br187  1  0.00275285  0.19491866  0.79586552  1  -0.032903  0  0.029879  -0.052613  0  1.405026  0
Br  Br188  1  0.74676337  0.47411066  0.55755456  1  -0.046629  0  0.020118  -0.067131  0  1.353988  0
Br  Br189  1  0.02062777  0.38338822  0.40345349  1  -0.037493  0  0.025304  -0.059956  0  1.424105  0
N  N190  1  0.91400404  0.25486815  0.53899761  1  -1.1624  0  -0.307129  -0.402848  0  3.155106  0
N  N191  1  0.92080848  0.25289753  0.41864805  1  -1.18561  0  -0.305601  -0.395612  0  3.2478  0
N  N192  1  0.93612292  0.15182474  0.47866843  1  -1.180184  0  -0.305773  -0.397427  0  3.244513  0
N  N193  1  0.81446571  0.69849626  0.44800265  1  -1.150261  0  -0.308592  -0.407992  0  3.262564  0
N  N194  1  0.83420265  0.60627179  0.52070816  1  -1.166113  0  -0.306976  -0.402776  0  3.189635  0
N  N195  1  0.84209315  0.59043828  0.40117115  1  -1.1677  0  -0.305386  -0.398336  0  3.158795  0
N  N196  1  0.20988378  0.48682942  0.00159270  1  -1.173146  0  -0.305374  -0.392967  0  3.234116  0
N  N197  1  0.20014295  0.36713669  0.01273216  1  -1.179447  0  -0.306976  -0.396301  0  3.275727  0
N  N198  1  0.10553501  0.43619908  0.03242641  1  -1.188866  0  -0.305906  -0.400611  0  3.200986  0
N  N199  1  0.54497192  0.35513526  0.92967497  1  -1.20015  0  -0.303074  -0.394843  0  3.193952  0
N  N200  1  0.56452428  0.47238021  0.95803083  1  -1.169031  0  -0.307154  -0.395472  0  3.272294  0
N  N201  1  0.65673227  0.40375387  0.92813163  1  -1.17822  0  -0.309046  -0.399078  0  3.240329  0
N  N202  1  0.44751985  0.96396496  0.30162679  1  -1.170482  0  -0.308099  -0.405605  0  3.172066  0
N  N203  1  0.32679623  0.96431346  0.28791417  1  -1.176039  0  -0.305097  -0.393635  0  3.296862  0
N  N204  1  0.39413636  0.98903187  0.19467129  1  -1.171366  0  -0.30752  -0.403737  0  3.171166  0
N  N205  1  0.35439356  0.87436455  0.74073193  1  -1.225675  0  -0.304159  -0.398658  0  3.173902  0
N  N206  1  0.42388527  0.90212335  0.64996937  1  -1.210034  0  -0.307393  -0.394666  0  3.305731  0
N  N207  1  0.30373276  0.89548795  0.63176385  1  -1.194096  0  -0.30689  -0.39981  0  3.236015  0
O  O208  1  0.96703552  0.04308739  0.83128566  1  -1.157838  0  -0.319593  -0.564102  0  2.301704  0
O  O209  1  0.67584293  0.86464944  0.93911773  1  -1.167817  0  -0.315329  -0.561922  0  2.274589  0
O  O210  1  0.81275784  0.89375719  0.76798214  1  -1.17459  0  -0.316814  -0.555835  0  2.253327  0
O  O211  1  0.75077558  0.05362555  0.87354857  1  -1.172248  0  -0.323108  -0.556257  0  2.27727  0
O  O212  1  0.76977767  0.09344416  0.98259137  1  -1.166432  0  -0.339195  -0.575666  0  2.307679  0
O  O213  1  0.87899578  0.80543466  0.79710948  1  -1.175269  0  -0.341286  -0.567907  0  2.310945  0
O  O214  1  0.70499747  0.92790577  0.85039803  1  -1.173424  0  -0.352804  -0.578726  0  2.332824  0
O  O215  1  0.85789833  0.02057606  0.79292198  1  -1.172211  0  -0.350576  -0.578469  0  2.330299  0
O  O216  1  0.79199611  0.95353559  0.96696698  1  -1.198665  0  -0.768683  -1.057682  0  2.248859  0
O  O217  1  0.90556117  0.92232773  0.88291648  1  -1.198934  0  -0.765558  -1.064337  0  2.238524  0
O  O218  1  0.80188654  0.84960704  0.89375930  1  -1.227026  0  -0.662003  -0.988719  0  2.431795  0
O  O219  1  0.87547151  0.03782915  0.92600400  1  -1.250015  0  -0.659058  -0.992206  0  2.413742  0
O  O220  1  0.78975721  0.79789280  0.10168213  1  -1.177028  0  -0.316858  -0.561792  0  2.236231  0
O  O221  1  0.07345928  0.98932621  0.99885366  1  -1.167934  0  -0.318272  -0.565036  0  2.296707  0
O  O222  1  0.84405250  0.72392608  0.90731552  1  -1.166441  0  -0.316689  -0.57061  0  2.357617  0
O  O223  1  0.74164741  0.01600741  0.08663390  1  -1.16025  0  -0.320445  -0.56412  0  2.34565  0
O  O224  1  0.90866262  0.12036967  0.03335279  1  -1.177597  0  -0.318016  -0.565099  0  2.277717  0
O  O225  1  0.00734104  0.83043180  0.84320001  1  -1.173042  0  -0.317542  -0.559708  0  2.280136  0
O  O226  1  0.00126141  0.78811864  0.05825339  1  -1.159307  0  -0.316803  -0.561582  0  2.288453  0
O  O227  1  0.94550466  0.95824020  0.16478321  1  -1.168364  0  -0.313352  -0.563627  0  2.276004  0
O  O228  1  0.97337465  0.74653994  0.95146760  1  -1.167272  0  -0.34721  -0.579763  0  2.335794  0
O  O229  1  0.87584798  0.04317985  0.13434139  1  -1.173818  0  -0.35496  -0.580391  0  2.342066  0
O  O230  1  0.75924564  0.75630462  0.97361095  1  -1.166728  0  -0.366626  -0.590454  0  2.37468  0
O  O231  1  0.04482397  0.93992872  0.86299213  1  -1.171791  0  -0.347105  -0.575197  0  2.31931  0
O  O232  1  0.99552799  0.09159617  0.96707647  1  -1.167127  0  -0.344189  -0.57386  0  2.319286  0
O  O233  1  0.70513204  0.90695868  0.06759956  1  -1.181984  0  -0.359459  -0.592931  0  2.363498  0
O  O234  1  0.89967496  0.81944469  0.13831710  1  -1.170809  0  -0.352665  -0.589314  0  2.360632  0
O  O235  1  0.04678264  0.92355785  0.08672515  1  -1.178391  0  -0.348969  -0.573435  0  2.31125  0
O  O236  1  0.93110348  0.97766815  0.02130772  1  -1.198037  0  -0.761974  -1.062854  0  2.229469  0
O  O237  1  0.87738976  0.83849303  0.99801155  1  -1.19946  0  -0.762787  -1.053743  0  2.225218  0
O  O238  1  0.99116823  0.88176203  0.96709822  1  -1.248993  0  -0.658589  -0.990325  0  2.415147  0
O  O239  1  0.83781586  0.92338610  0.08186557  1  -1.244215  0  -0.661311  -0.992992  0  2.422183  0
