# generated using pymatgen
data_Zr3H20(C9O4)4
_symmetry_space_group_name_H-M   'P 1'
_cell_length_a   17.00089919
_cell_length_b   17.14158199
_cell_length_c   16.91863416
_cell_angle_alpha   59.88337362
_cell_angle_beta   60.70904375
_cell_angle_gamma   59.40092203
_symmetry_Int_Tables_number   1
_chemical_formula_structural   Zr3H20(C9O4)4
_chemical_formula_sum   'Zr6 H40 C72 O32'
_cell_volume   3485.25872368
_cell_formula_units_Z   2
loop_
 _symmetry_equiv_pos_site_id
 _symmetry_equiv_pos_as_xyz
  1  'x, y, z'
loop_
 _atom_site_type_symbol
 _atom_site_label
 _atom_site_symmetry_multiplicity
 _atom_site_fract_x
 _atom_site_fract_y
 _atom_site_fract_z
 _atom_site_occupancy
 _atom_site_pbe_bader_charge
 _atom_site_pbe_bader_spin_density
 _atom_site_pbe_cm5_charge
 _atom_site_pbe_ddec_charge
 _atom_site_pbe_ddec_spin_density
 _atom_site_pbe_ddec_sum_bond_order
 _atom_site_pbe_magmom
Zr  Zr0  1  0.89578473  0.39577545  0.60422606  1  2.635268  0  1.601736  2.377854  0  2.656007  0
Zr  Zr1  1  0.10424848  0.60415671  0.39575742  1  2.633915  0  1.601836  2.377622  0  2.657108  0
Zr  Zr2  1  0.10332605  0.39665138  0.60331557  1  2.634341  0  1.649017  2.364906  0  2.860225  0
Zr  Zr3  1  0.89666285  0.60327575  0.39667698  1  2.633633  0  1.648902  2.365499  0  2.858813  0
Zr  Zr4  1  0.89599834  0.60403318  0.60399734  1  2.638801  0  1.623563  2.373507  0  2.750483  0
Zr  Zr5  1  0.10405935  0.39593805  0.39592993  1  2.634615  0  1.623628  2.373785  0  2.749405  0
H  H6  1  0.92013758  0.41761575  0.74546401  1  0.610235  0  0.331554  0.423272  0  0.856697  0
H  H7  1  0.91680445  0.74537677  0.41767196  1  0.617617  0  0.331276  0.422661  0  0.858139  0
H  H8  1  0.24553546  0.41675026  0.42001771  1  0.636097  0  0.3311  0.422431  0  0.857459  0
H  H9  1  0.91764247  0.42007508  0.41678166  1  0.60572  0  0.331422  0.423088  0  0.85573  0
H  H10  1  0.62170221  0.39491679  0.87360254  1  0.092821  0  0.107917  0.114311  0  0.996315  0
H  H11  1  0.65232031  0.64324683  0.84271722  1  0.113182  0  0.106523  0.113457  0  1.00316  0
H  H12  1  0.50938684  0.66367752  0.98731099  1  0.051511  0  0.102255  0.101686  0  0.995199  0
H  H13  1  0.37378570  0.60988923  0.12156789  1  0.099775  0  0.107611  0.113667  0  0.99674  0
H  H14  1  0.34300635  0.36164370  0.15236022  1  0.112159  0  0.106182  0.112912  0  1.003098  0
H  H15  1  0.48756392  0.33953267  0.00941376  1  0.042599  0  0.102212  0.101895  0  0.99471  0
H  H16  1  0.89476608  0.12151154  0.61004564  1  0.097049  0  0.107641  0.114003  0  0.996709  0
H  H17  1  0.14303504  0.15232779  0.36187908  1  0.103972  0  0.106478  0.113164  0  1.003535  0
H  H18  1  0.16348343  0.00947200  0.33962951  1  0.100547  0  0.102012  0.101909  0  0.99467  0
H  H19  1  0.10992443  0.87370354  0.39483566  1  0.101002  0  0.107842  0.114032  0  0.99652  0
H  H20  1  0.86172523  0.84278760  0.64303965  1  0.060961  0  0.106558  0.113346  0  1.004341  0
H  H21  1  0.83950117  0.98732974  0.66362522  1  0.066474  0  0.102141  0.101924  0  0.994278  0
H  H22  1  0.62437117  0.87170761  0.61051520  1  0.081643  0  0.109365  0.115747  0  0.995298  0
H  H23  1  0.65321976  0.84273300  0.35902923  1  0.090428  0  0.107477  0.113721  0  1.002395  0
H  H24  1  0.50743351  0.98996294  0.33684367  1  0.048549  0  0.103603  0.103197  0  0.993459  0
H  H25  1  0.37151996  0.12430408  0.39347561  1  0.130024  0  0.10945  0.115649  0  0.995354  0
H  H26  1  0.34259430  0.15315310  0.64506565  1  0.099725  0  0.107451  0.113502  0  1.002399  0
H  H27  1  0.48997867  0.00751781  0.66564758  1  0.053246  0  0.10363  0.103162  0  0.993466  0
H  H28  1  0.11065626  0.39346446  0.12426938  1  0.080047  0  0.109535  0.115982  0  0.994951  0
H  H29  1  0.85913286  0.64507115  0.15314185  1  0.121747  0  0.10743  0.113457  0  1.002507  0
H  H30  1  0.83686236  0.66577344  0.00741786  1  0.019143  0  0.103619  0.103317  0  0.994007  0
H  H31  1  0.89343122  0.61068416  0.87155808  1  0.051996  0  0.109473  0.115956  0  0.995114  0
H  H32  1  0.14520525  0.35929539  0.84249748  1  0.119974  0  0.107507  0.113492  0  1.002674  0
H  H33  1  0.16581081  0.33699022  0.98982383  1  0.050896  0  0.103493  0.102909  0  0.992907  0
H  H34  1  0.89296608  0.12362630  0.87184695  1  0.081639  0  0.108948  0.114769  0  0.995137  0
H  H35  1  0.14325766  0.15206434  0.84293895  1  0.110792  0  0.107002  0.113039  0  1.005285  0
H  H36  1  0.16495227  0.00751170  0.98939529  1  0.063683  0  0.103068  0.10278  0  0.993997  0
H  H37  1  0.11156080  0.87186002  0.12360698  1  0.090127  0  0.109039  0.115027  0  0.995228  0
H  H38  1  0.86150164  0.84326765  0.15220181  1  0.099638  0  0.1069  0.112862  0  1.005671  0
H  H39  1  0.83798242  0.98961369  0.00758463  1  0.052888  0  0.10298  0.102715  0  0.994245  0
H  H40  1  0.62346461  0.39296542  0.61173861  1  0.04773  0  0.108961  0.115516  0  0.994938  0
H  H41  1  0.65203255  0.64304959  0.36174798  1  0.074665  0  0.106685  0.112802  0  1.00478  0
H  H42  1  0.50744825  0.66481943  0.33818261  1  0.037537  0  0.103104  0.10268  0  0.993659  0
H  H43  1  0.37175364  0.61146045  0.39310522  1  0.109989  0  0.109024  0.114996  0  0.994742  0
H  H44  1  0.34299622  0.36154027  0.64332278  1  0.058305  0  0.106937  0.112955  0  1.00531  0
H  H45  1  0.48934342  0.33807122  0.66511329  1  0.065343  0  0.10306  0.103086  0  0.993703  0
C  C46  1  0.73224455  0.50865196  0.76192726  1  1.550196  0  0.235174  0.640772  0  4.084623  0
C  C47  1  0.99728760  0.76191347  0.50858314  1  1.56036  0  0.235361  0.640301  0  4.085062  0
C  C48  1  0.26202680  0.49716737  0.23214163  1  1.545789  0  0.234366  0.638734  0  4.085872  0
C  C49  1  0.00859827  0.23214174  0.49734507  1  1.567318  0  0.234786  0.639189  0  4.08624  0
C  C50  1  0.00720089  0.23285302  0.76159724  1  1.534554  0  0.235536  0.640535  0  4.095299  0
C  C51  1  0.73278948  0.50719665  0.49835457  1  1.56334  0  0.235602  0.640914  0  4.097216  0
C  C52  1  0.99826529  0.76165950  0.23289470  1  1.538597  0  0.236072  0.641267  0  4.095762  0
C  C53  1  0.26162579  0.49808907  0.50734718  1  1.556085  0  0.235876  0.640753  0  4.099225  0
C  C54  1  0.00835224  0.49620218  0.76217234  1  1.557292  0  0.234203  0.637477  0  4.110275  0
C  C55  1  0.26217612  0.23324800  0.50837349  1  1.532979  0  0.234188  0.636762  0  4.11157  0
C  C56  1  0.99622649  0.50829952  0.23322290  1  1.557446  0  0.234233  0.637034  0  4.110036  0
C  C57  1  0.73330723  0.76225431  0.49614285  1  1.540771  0  0.234408  0.636111  0  4.113167  0
C  C58  1  0.59653026  0.45346335  0.89899922  1  -0.020456  0  -0.074167  -0.131539  0  3.916772  0
C  C59  1  0.61278823  0.59392440  0.88255401  1  -0.039314  0  -0.08835  -0.098454  0  3.997781  0
C  C60  1  0.53363233  0.60493343  0.96251042  1  -0.112945  0  -0.089457  -0.133745  0  4.006873  0
C  C61  1  0.48174305  0.54072937  0.01442326  1  0.057973  0  -0.00134  0.0804  0  3.988318  0
C  C62  1  0.39912762  0.55112144  0.09640122  1  -0.038137  0  -0.074364  -0.131566  0  3.914898  0
C  C63  1  0.38279066  0.41072272  0.11274609  1  -0.004459  0  -0.088433  -0.098434  0  3.997518  0
C  C64  1  0.46276015  0.39888590  0.03359491  1  -0.076904  0  -0.088909  -0.13354  0  4.007078  0
C  C65  1  0.51454686  0.46318587  0.98162353  1  -0.006254  0  -0.002591  0.079293  0  3.989698  0
C  C66  1  0.64526310  0.51756054  0.84951171  1  -0.035736  0  -0.017596  -0.037581  0  3.966285  0
C  C67  1  0.34967446  0.48773016  0.14516685  1  -0.047993  0  -0.016828  -0.036258  0  3.963243  0
C  C68  1  0.95330419  0.09640274  0.55121750  1  -0.093266  0  -0.073762  -0.131374  0  3.916491  0
C  C69  1  0.09370302  0.11278389  0.41084929  1  -0.041308  0  -0.088386  -0.09824  0  3.995201  0
C  C70  1  0.10471091  0.03368224  0.39893617  1  -0.059184  0  -0.08885  -0.133972  0  4.004198  0
C  C71  1  0.04060520  0.98170467  0.46318269  1  0.000701  0  -0.002407  0.080094  0  3.988811  0
C  C72  1  0.05110182  0.89905982  0.45340284  1  -0.051096  0  -0.074399  -0.131805  0  3.916244  0
C  C73  1  0.91077692  0.88260437  0.59379810  1  -0.00843  0  -0.088516  -0.099071  0  3.996367  0
C  C74  1  0.89885559  0.96258410  0.60486126  1  -0.024737  0  -0.088757  -0.132661  0  4.004237  0
C  C75  1  0.96306995  0.01445275  0.54075782  1  -0.038156  0  -0.002737  0.078023  0  3.990805  0
C  C76  1  0.01739558  0.14515427  0.48789224  1  -5.7e-05  0  -0.016974  -0.035804  0  3.962208  0
C  C77  1  0.98779484  0.84951985  0.51746051  1  -0.035677  0  -0.016958  -0.036457  0  3.963028  0
C  C78  1  0.59783060  0.89837475  0.55125401  1  0.022194  0  -0.073248  -0.131018  0  3.929733  0
C  C79  1  0.61310283  0.88301823  0.40846981  1  -0.048413  0  -0.086889  -0.096806  0  3.999401  0
C  C80  1  0.53298303  0.96387393  0.39664813  1  -0.036283  0  -0.088398  -0.133194  0  4.012919  0
C  C81  1  0.48158298  0.01505680  0.46227560  1  0.010056  0  -0.001103  0.080981  0  4.00028  0
C  C82  1  0.39817767  0.09774119  0.45261915  1  -0.019925  0  -0.073155  -0.130663  0  3.930691  0
C  C83  1  0.38287234  0.11300405  0.59548228  1  -0.059669  0  -0.086464  -0.095648  0  3.99798  0
C  C84  1  0.46384098  0.03300584  0.60642700  1  -0.01963  0  -0.08804  -0.13294  0  4.012076  0
C  C85  1  0.51507463  0.98169941  0.54092761  1  0.022032  0  -0.001681  0.080568  0  3.999993  0
C  C86  1  0.64581094  0.84973437  0.48659522  1  -0.063796  0  -0.017662  -0.037572  0  3.992642  0
C  C87  1  0.34955460  0.14567823  0.51797114  1  -0.076219  0  -0.018066  -0.038866  0  3.993754  0
C  C88  1  0.05139179  0.45260200  0.09772383  1  -0.090922  0  -0.073552  -0.131352  0  3.932978  0
C  C89  1  0.90858287  0.59548640  0.11297993  1  -0.065121  0  -0.086595  -0.095562  0  3.997936  0
C  C90  1  0.89674615  0.60654634  0.03289250  1  -0.033591  0  -0.088572  -0.133967  0  4.013964  0
C  C91  1  0.96232427  0.54107793  0.98155766  1  0.014094  0  -0.000666  0.081532  0  4.001655  0
C  C92  1  0.95256355  0.55143925  0.89822720  1  -0.006911  0  -0.073635  -0.131426  0  3.932734  0
C  C93  1  0.09556333  0.40874071  0.88279875  1  -0.067046  0  -0.086972  -0.096813  0  3.999159  0
C  C94  1  0.10656898  0.39684869  0.96370869  1  -0.064219  0  -0.088303  -0.132255  0  4.011299  0
C  C95  1  0.04105257  0.46238488  0.01496931  1  0.023448  0  -0.001757  0.080465  0  4.001106  0
C  C96  1  0.98672036  0.51792103  0.14569442  1  0.034377  0  -0.017524  -0.038399  0  3.99481  0
C  C97  1  0.01793478  0.48679520  0.84956738  1  0.03701  0  -0.017289  -0.037948  0  3.994194  0
C  C98  1  0.95213977  0.09748887  0.89815897  1  -0.060865  0  -0.073319  -0.130308  0  3.925184  0
C  C99  1  0.09401919  0.11242413  0.88291865  1  -0.045987  0  -0.087327  -0.096999  0  4.000627  0
C  C100  1  0.10566806  0.03272803  0.96357090  1  -0.078442  0  -0.088328  -0.133399  0  4.011817  0
C  C101  1  0.04109427  0.98141736  0.01491535  1  0.055032  0  -0.002031  0.079803  0  3.995499  0
C  C102  1  0.05219614  0.89825136  0.09745472  1  -0.012781  0  -0.073424  -0.129876  0  3.925414  0
C  C103  1  0.91047665  0.88316324  0.11251982  1  -0.070674  0  -0.087404  -0.096874  0  4.000296  0
C  C104  1  0.89787779  0.96379520  0.03278606  1  -0.067798  0  -0.088046  -0.133053  0  4.011049  0
C  C105  1  0.96255379  0.01499527  0.98137570  1  0.026451  0  -0.001971  0.080511  0  3.995024  0
C  C106  1  0.01664701  0.14547191  0.84931763  1  0.001319  0  -0.017549  -0.037397  0  3.981058  0
C  C107  1  0.98847000  0.84946287  0.14552735  1  -0.018971  0  -0.017338  -0.038361  0  3.980728  0
C  C108  1  0.59731076  0.45212298  0.55239924  1  0.048909  0  -0.073018  -0.130803  0  3.92183  0
C  C109  1  0.61233579  0.59388015  0.41071674  1  -0.00804  0  -0.087151  -0.096864  0  3.99897  0
C  C110  1  0.53266407  0.60552310  0.39805931  1  -0.040945  0  -0.088686  -0.133255  0  4.011264  0
C  C111  1  0.48129785  0.54102580  0.46269158  1  0.009641  0  -0.00182  0.080268  0  3.996694  0
C  C112  1  0.39808639  0.55212026  0.45229061  1  0.041045  0  -0.073123  -0.129829  0  3.92152  0
C  C113  1  0.38288241  0.41051447  0.59417038  1  0.011536  0  -0.087367  -0.096668  0  3.999068  0
C  C114  1  0.46352773  0.39794970  0.60582649  1  -0.068231  0  -0.088716  -0.134153  0  4.01061  0
C  C115  1  0.51480737  0.46254963  0.54125396  1  -0.036396  0  -0.001842  0.080491  0  3.995782  0
C  C116  1  0.64534029  0.51659466  0.48870687  1  -0.035577  0  -0.017384  -0.037704  0  3.978321  0
C  C117  1  0.34927835  0.48844172  0.51679994  1  -0.099192  0  -0.017552  -0.038316  0  3.980209  0
O  O118  1  0.76357500  0.44031201  0.73117698  1  -1.175476  0  -0.343132  -0.616334  0  2.212925  0
O  O119  1  0.06502614  0.73107233  0.44027656  1  -1.182385  0  -0.343237  -0.616225  0  2.212645  0
O  O120  1  0.23119487  0.56490086  0.26355419  1  -1.17565  0  -0.34298  -0.615957  0  2.212556  0
O  O121  1  0.94027699  0.26356142  0.56507334  1  -1.185134  0  -0.342713  -0.61561  0  2.213508  0
O  O122  1  0.07137352  0.26993840  0.72483295  1  -1.179658  0  -0.358634  -0.615256  0  2.33667  0
O  O123  1  0.76990535  0.57133795  0.43376740  1  -1.196323  0  -0.358729  -0.615668  0  2.337204  0
O  O124  1  0.93380087  0.72486292  0.26993758  1  -1.179753  0  -0.358786  -0.615413  0  2.336468  0
O  O125  1  0.22496783  0.43350870  0.57147897  1  -1.182328  0  -0.358738  -0.615368  0  2.339569  0
O  O126  1  0.93891563  0.56486217  0.73101764  1  -1.184708  0  -0.348012  -0.615229  0  2.251078  0
O  O127  1  0.23101822  0.26520237  0.43893742  1  -1.178533  0  -0.348152  -0.615143  0  2.250346  0
O  O128  1  0.06487594  0.43883131  0.26516364  1  -1.183951  0  -0.348053  -0.615283  0  2.250117  0
O  O129  1  0.76522095  0.73113694  0.56480460  1  -1.180961  0  -0.348086  -0.614791  0  2.250175  0
O  O130  1  0.22511376  0.27141779  0.57271974  1  -1.17828  0  -0.367881  -0.620159  0  2.349261  0
O  O131  1  0.93083303  0.57267523  0.27138054  1  -1.1879  0  -0.367724  -0.620627  0  2.347489  0
O  O132  1  0.77148140  0.72505952  0.43080202  1  -1.181517  0  -0.367803  -0.62039  0  2.349972  0
O  O133  1  0.07271852  0.43074900  0.72510625  1  -1.190155  0  -0.367555  -0.620747  0  2.347648  0
O  O134  1  0.93759032  0.26555934  0.72997625  1  -1.177201  0  -0.354729  -0.626393  0  2.23346  0
O  O135  1  0.22993599  0.56662483  0.43778464  1  -1.187337  0  -0.354747  -0.626093  0  2.233804  0
O  O136  1  0.06683201  0.72995378  0.26558019  1  -1.179608  0  -0.354873  -0.626586  0  2.233276  0
O  O137  1  0.76553775  0.43761932  0.56686786  1  -1.182237  0  -0.354563  -0.626572  0  2.232748  0
O  O138  1  0.07276568  0.27000950  0.43279727  1  -1.184652  0  -0.365526  -0.627342  0  2.310136  0
O  O139  1  0.77016915  0.57276477  0.72441236  1  -1.179849  0  -0.365298  -0.627408  0  2.308559  0
O  O140  1  0.93271309  0.72444714  0.57271920  1  -1.180133  0  -0.365919  -0.627753  0  2.309628  0
O  O141  1  0.22454243  0.43262927  0.27000778  1  -1.181475  0  -0.364866  -0.626382  0  2.308454  0
O  O142  1  0.94140400  0.44107117  0.44179165  1  -1.236093  0  -0.694111  -1.066984  0  2.360924  0
O  O143  1  0.17575838  0.44177875  0.44103180  1  -1.26515  0  -0.693753  -1.0657  0  2.361506  0
O  O144  1  0.94184226  0.67560241  0.44138214  1  -1.24805  0  -0.694253  -1.066251  0  2.364774  0
O  O145  1  0.94111134  0.44137504  0.67569877  1  -1.24016  0  -0.694177  -1.067233  0  2.362702  0
O  O146  1  0.04307641  0.54402086  0.54209628  1  -1.196393  0  -0.790824  -1.14747  0  2.131499  0
O  O147  1  0.87075515  0.54211639  0.54405704  1  -1.198258  0  -0.790762  -1.146991  0  2.129414  0
O  O148  1  0.04408972  0.54297818  0.37075670  1  -1.195895  0  -0.790698  -1.147094  0  2.1307  0
O  O149  1  0.04212089  0.37083157  0.54299345  1  -1.197638  0  -0.790886  -1.14729  0  2.13073  0
