# generated using pymatgen
data_DyH14C11NO8
_symmetry_space_group_name_H-M   'P 1'
_cell_length_a   8.34390902
_cell_length_b   11.91524833
_cell_length_c   13.25530000
_cell_angle_alpha   90.00000000
_cell_angle_beta   90.00000000
_cell_angle_gamma   96.43675292
_symmetry_Int_Tables_number   1
_chemical_formula_structural   DyH14C11NO8
_chemical_formula_sum   'Dy4 H56 C44 N4 O32'
_cell_volume   1309.53121145
_cell_formula_units_Z   4
loop_
 _symmetry_equiv_pos_site_id
 _symmetry_equiv_pos_as_xyz
  1  'x, y, z'
loop_
 _atom_site_type_symbol
 _atom_site_label
 _atom_site_symmetry_multiplicity
 _atom_site_fract_x
 _atom_site_fract_y
 _atom_site_fract_z
 _atom_site_occupancy
 _atom_site_hle17_bader_spin_density
 _atom_site_hle17_ddec_charge
 _atom_site_hle17_ddec_spin_density
 _atom_site_hle17_ddec_sum_bond_order
 _atom_site_hle17_magmom
 _atom_site_hse06_10hf_bader_spin_density
 _atom_site_hse06_10hf_ddec_charge
 _atom_site_hse06_10hf_ddec_spin_density
 _atom_site_hse06_10hf_ddec_sum_bond_order
 _atom_site_hse06_10hf_magmom
 _atom_site_hse06_bader_spin_density
 _atom_site_hse06_ddec_charge
 _atom_site_hse06_ddec_spin_density
 _atom_site_hse06_ddec_sum_bond_order
 _atom_site_hse06_magmom
 _atom_site_pbe_bader_charge
 _atom_site_pbe_bader_spin_density
 _atom_site_pbe_cm5_charge
 _atom_site_pbe_ddec_charge
 _atom_site_pbe_ddec_spin_density
 _atom_site_pbe_ddec_sum_bond_order
 _atom_site_pbe_magmom
Dy  Dy0  1  0.00491758  0.33527483  0.59522153  1  0  2.243629  0  1.63143  0  0  2.082482  0  2.110548  0  0  2.211318  0  1.919782  0  2.175266  0  1.512673  2.045434  0  2.142956  0
Dy  Dy1  1  0.49508495  0.66472541  0.09522078  1  0  2.24363  0  1.631436  0  0  2.082512  0  2.110517  0  0  2.211323  0  1.919791  0  2.175283  0  1.512683  2.045461  0  2.142928  0
Dy  Dy2  1  0.99508441  0.66472541  0.40477847  1  0  2.243618  0  1.631448  0  0  2.08246  0  2.110587  0  0  2.211305  0  1.919802  0  2.175299  0  1.512678  2.04541  0  2.142996  0
Dy  Dy3  1  0.50491597  0.33527568  0.90477922  1  0  2.243624  0  1.631461  0  0  2.082487  0  2.110562  0  0  2.211305  0  1.919818  0  2.175261  0  1.512677  2.045438  0  2.142971  0
H  H4  1  0.80286276  0.52152774  0.61420715  1  0  0.446354  0  0.850495  0  0  0.414596  0  0.916003  0  0  0.425906  0  0.899479  0  0.662809  0  0.303279  0.406773  0  0.927607  0
H  H5  1  0.69713854  0.47847165  0.11420639  1  0  0.446328  0  0.850525  0  0  0.414574  0  0.916027  0  0  0.425883  0  0.899504  0  0.662823  0  0.303281  0.406751  0  0.92763  0
H  H6  1  0.19713669  0.47847165  0.38579285  1  0  0.446349  0  0.850497  0  0  0.414595  0  0.915999  0  0  0.425904  0  0.899475  0  0.662805  0  0.303282  0.406772  0  0.927601  0
H  H7  1  0.30285984  0.52152859  0.88579210  1  0  0.446324  0  0.850533  0  0  0.414572  0  0.916032  0  0  0.425881  0  0.899509  0  0.662796  0  0.303267  0.406748  0  0.927637  0
H  H8  1  0.77885192  0.46791519  0.72566370  1  0  0.450157  0  0.845957  0  0  0.420183  0  0.906939  0  0  0.432088  0  0.889797  0  0.658781  0  0.30181  0.412193  0  0.918512  0
H  H9  1  0.72114939  0.53208421  0.22566294  1  0  0.45014  0  0.845977  0  0  0.420166  0  0.906964  0  0  0.432071  0  0.889822  0  0.658789  0  0.301802  0.412175  0  0.918538  0
H  H10  1  0.22114754  0.53208421  0.27433630  1  0  0.450143  0  0.845975  0  0  0.420173  0  0.906953  0  0  0.432077  0  0.889811  0  0.65879  0  0.301811  0.412182  0  0.918527  0
H  H11  1  0.27885139  0.46791603  0.77433630  1  0  0.45012  0  0.84601  0  0  0.420148  0  0.906991  0  0  0.432053  0  0.889849  0  0.65878  0  0.301791  0.412157  0  0.918565  0
H  H12  1  0.93554810  0.26409998  0.80752152  1  0  0.448109  0  0.840296  0  0  0.419834  0  0.898091  0  0  0.431239  0  0.881664  0  0.6362  0  0.305077  0.412116  0  0.909286  0
H  H13  1  0.56445201  0.73589942  0.30752152  1  0  0.44811  0  0.840294  0  0  0.419836  0  0.898085  0  0  0.43124  0  0.881659  0  0.636201  0  0.305078  0.412118  0  0.909282  0
H  H14  1  0.06445361  0.73589857  0.19247773  1  0  0.448092  0  0.840318  0  0  0.419814  0  0.898118  0  0  0.431219  0  0.881691  0  0.636189  0  0.305062  0.412095  0  0.909317  0
H  H15  1  0.43554864  0.26409998  0.69247848  1  0  0.448082  0  0.840336  0  0  0.419828  0  0.898106  0  0  0.431232  0  0.881678  0  0.636214  0  0.30505  0.412108  0  0.909307  0
H  H16  1  0.12541728  0.25447425  0.79795252  1  0  0.449748  0  0.846161  0  0  0.418209  0  0.910233  0  0  0.430389  0  0.892653  0  0.664239  0  0.302393  0.40991  0  0.922322  0
H  H17  1  0.37458404  0.74552599  0.29795176  1  0  0.449755  0  0.846155  0  0  0.418207  0  0.910234  0  0  0.430384  0  0.89266  0  0.664245  0  0.302406  0.409909  0  0.922322  0
H  H18  1  0.87458590  0.74552599  0.20204824  1  0  0.449738  0  0.846182  0  0  0.418188  0  0.910265  0  0  0.430367  0  0.892685  0  0.664252  0  0.302395  0.40989  0  0.922351  0
H  H19  1  0.62541554  0.25447425  0.70204899  1  0  0.449749  0  0.846162  0  0  0.4182  0  0.910243  0  0  0.430379  0  0.892665  0  0.664249  0  0.302402  0.409903  0  0.922328  0
H  H20  1  0.15673958  0.20082031  0.37976734  1  0  0.069179  0  0.966948  0  0  0.079183  0  1.030353  0  0  0.081663  0  1.02815  0  0.090082  0  0.114069  0.077417  0  1.031863  0
H  H21  1  0.34326041  0.79917909  0.87976583  1  0  0.069222  0  0.966905  0  0  0.079216  0  1.030312  0  0  0.081696  0  1.028111  0  0.090119  0  0.114109  0.077449  0  1.031824  0
H  H22  1  0.84325960  0.79917740  0.62023417  1  0  0.069167  0  0.96695  0  0  0.07916  0  1.030363  0  0  0.081638  0  1.028165  0  0.090049  0  0.114092  0.077399  0  1.031858  0
H  H23  1  0.65674037  0.20082115  0.12023266  1  0  0.069217  0  0.966906  0  0  0.079219  0  1.03031  0  0  0.081699  0  1.028107  0  0.09007  0  0.114104  0.077455  0  1.031815  0
H  H24  1  0.06397027  0.05163454  0.25273211  1  0  0.112809  0  0.953514  0  0  0.123582  0  1.011218  0  0  0.126418  0  1.010894  0  0.141437  0  0.109898  0.121599  0  1.011425  0
H  H25  1  0.43602985  0.94836571  0.75273136  1  0  0.112813  0  0.953515  0  0  0.123588  0  1.011213  0  0  0.126423  0  1.01089  0  0.141423  0  0.109881  0.121605  0  1.01142  0
H  H26  1  0.93602891  0.94836317  0.74726939  1  0  0.112778  0  0.953542  0  0  0.123554  0  1.011236  0  0  0.12639  0  1.010912  0  0.141412  0  0.109876  0.12157  0  1.011443  0
H  H27  1  0.56397213  0.05163454  0.24726713  1  0  0.112784  0  0.953542  0  0  0.12356  0  1.011241  0  0  0.126395  0  1.010917  0  0.141451  0  0.109895  0.121577  0  1.011448  0
H  H28  1  0.81015770  0.92613792  0.28545789  1  0  0.110726  0  0.952277  0  0  0.119496  0  1.013371  0  0  0.123232  0  1.010159  0  0.133425  0  0.115398  0.116763  0  1.01576  0
H  H29  1  0.68984255  0.07386232  0.78545714  1  0  0.110792  0  0.952231  0  0  0.119576  0  1.013305  0  0  0.123307  0  1.010091  0  0.133403  0  0.115426  0.116842  0  1.015694  0
H  H30  1  0.18984162  0.07386063  0.71454437  1  0  0.110745  0  0.952306  0  0  0.119521  0  1.013392  0  0  0.123263  0  1.010162  0  0.133327  0  0.115406  0.116788  0  1.01578  0
H  H31  1  0.31015824  0.92613792  0.21454211  1  0  0.11075  0  0.952263  0  0  0.119517  0  1.013357  0  0  0.123254  0  1.010142  0  0.133425  0  0.115408  0.116784  0  1.015745  0
H  H32  1  0.65195322  0.95878281  0.44404729  1  0  0.128345  0  0.963722  0  0  0.132797  0  1.030581  0  0  0.137225  0  1.027337  0  0.151236  0  0.111116  0.129646  0  1.032816  0
H  H33  1  0.84804596  0.04121827  0.94404653  1  0  0.128334  0  0.963732  0  0  0.132789  0  1.030584  0  0  0.137216  0  1.027341  0  0.151236  0  0.111119  0.129639  0  1.032815  0
H  H34  1  0.34804397  0.04121743  0.55595422  1  0  0.12833  0  0.963763  0  0  0.132782  0  1.030615  0  0  0.13721  0  1.027371  0  0.151261  0  0.111114  0.129632  0  1.032847  0
H  H35  1  0.15195376  0.95878281  0.05595347  1  0  0.128328  0  0.963743  0  0  0.13279  0  1.030589  0  0  0.137219  0  1.027344  0  0.151233  0  0.111118  0.12964  0  1.032822  0
H  H36  1  0.52006487  0.22792304  0.50075140  1  0  0.115967  0  0.932191  0  0  0.133172  0  0.986351  0  0  0.135078  0  0.98604  0  0.068927  0  0.109001  0.131884  0  0.986362  0
H  H37  1  0.97993391  0.77207552  0.00075215  1  0  0.115989  0  0.932195  0  0  0.133175  0  0.986358  0  0  0.135082  0  0.986047  0  0.068935  0  0.108995  0.13187  0  0.986392  0
H  H38  1  0.47993565  0.77207552  0.49924709  1  0  0.116006  0  0.932159  0  0  0.133199  0  0.986325  0  0  0.135105  0  0.986014  0  0.068941  0  0.109006  0.131912  0  0.986336  0
H  H39  1  0.02006554  0.22792388  0.99924785  1  0  0.115988  0  0.932191  0  0  0.133178  0  0.986356  0  0  0.135084  0  0.986045  0  0.068934  0  0.108994  0.131873  0  0.986388  0
H  H40  1  0.56942431  0.37192981  0.52568935  1  0  0.123394  0  0.91433  0  0  0.140572  0  0.96776  0  0  0.143351  0  0.966337  0  0.052693  0  0.114028  0.138645  0  0.968625  0
H  H41  1  0.93057447  0.62806874  0.02569010  1  0  0.123407  0  0.914369  0  0  0.140598  0  0.96776  0  0  0.143378  0  0.966339  0  0.052722  0  0.114042  0.138674  0  0.96862  0
H  H42  1  0.43057501  0.62806874  0.47430990  1  0  0.123428  0  0.914349  0  0  0.140626  0  0.967736  0  0  0.143406  0  0.966315  0  0.052728  0  0.114046  0.138699  0  0.968601  0
H  H43  1  0.06942632  0.37193150  0.97430990  1  0  0.123427  0  0.914315  0  0  0.140597  0  0.967741  0  0  0.143375  0  0.966322  0  0.052717  0  0.114034  0.138669  0  0.968605  0
H  H44  1  0.47767563  0.41749685  0.34740896  1  0  0.077359  0  0.924609  0  0  0.096169  0  0.981487  0  0  0.097758  0  0.98101  0  0.07047  0  0.097555  0.094997  0  0.981738  0
H  H45  1  0.02232437  0.58250254  0.84740972  1  0  0.077362  0  0.924609  0  0  0.096166  0  0.981484  0  0  0.097755  0  0.981008  0  0.070461  0  0.097542  0.094993  0  0.981736  0
H  H46  1  0.52232516  0.58250339  0.65259028  1  0  0.077348  0  0.924553  0  0  0.096157  0  0.981434  0  0  0.097746  0  0.980958  0  0.070475  0  0.097542  0.094977  0  0.981696  0
H  H47  1  0.97767642  0.41749770  0.15259028  1  0  0.077374  0  0.924547  0  0  0.096153  0  0.981451  0  0  0.097742  0  0.980974  0  0.070283  0  0.097561  0.094982  0  0.981701  0
H  H48  1  0.42867793  0.27143013  0.32559505  1  0  0.064896  0  0.933639  0  0  0.085319  0  0.992781  0  0  0.085791  0  0.993717  0  0.035733  0  0.09275  0.084966  0  0.992095  0
H  H49  1  0.07132193  0.72856842  0.82559580  1  0  0.064925  0  0.933645  0  0  0.085342  0  0.992783  0  0  0.085816  0  0.993715  0  0.035749  0  0.092773  0.08499  0  0.992098  0
H  H50  1  0.57132272  0.72856926  0.67440345  1  0  0.064919  0  0.933639  0  0  0.08535  0  0.992769  0  0  0.085822  0  0.993703  0  0.035741  0  0.092765  0.084997  0  0.992082  0
H  H51  1  0.92867753  0.27143098  0.17440420  1  0  0.064876  0  0.933657  0  0  0.085311  0  0.992771  0  0  0.085784  0  0.993706  0  0.035746  0  0.092757  0.084959  0  0.992086  0
H  H52  1  0.71899946  0.24029198  0.35524130  1  0  0.103236  0  0.948814  0  0  0.11675  0  1.00953  0  0  0.118011  0  1.011027  0  0.058986  0  0.098801  0.115969  0  1.008255  0
H  H53  1  0.78100185  0.75970742  0.85523979  1  0  0.103236  0  0.948848  0  0  0.116751  0  1.009564  0  0  0.118014  0  1.011065  0  0.058998  0  0.098802  0.115968  0  1.008288  0
H  H54  1  0.28100133  0.75970826  0.64475945  1  0  0.10329  0  0.948773  0  0  0.116785  0  1.009512  0  0  0.118045  0  1.011006  0  0.058982  0  0.098812  0.116006  0  1.008236  0
H  H55  1  0.21899760  0.24029198  0.14475945  1  0  0.103257  0  0.948805  0  0  0.116771  0  1.009517  0  0  0.118033  0  1.011018  0  0.058959  0  0.098808  0.11599  0  1.008242  0
H  H56  1  0.68817087  0.32933318  0.25045529  1  0  0.101225  0  0.951136  0  0  0.113584  0  1.017228  0  0  0.116127  0  1.015396  0  0.009011  0  0.1017  0.111919  0  1.018227  0
H  H57  1  0.81183150  0.67066537  0.75045378  1  0  0.1012  0  0.95115  0  0  0.113567  0  1.017236  0  0  0.116112  0  1.015409  0  0.008983  0  0.101674  0.1119  0  1.018235  0
H  H58  1  0.31183098  0.67066622  0.74954546  1  0  0.101206  0  0.951142  0  0  0.113574  0  1.017237  0  0  0.116117  0  1.015402  0  0.009  0  0.101691  0.111912  0  1.018235  0
H  H59  1  0.18816901  0.32933318  0.24954471  1  0  0.101222  0  0.951146  0  0  0.113581  0  1.017238  0  0  0.116128  0  1.015403  0  0.008992  0  0.101692  0.111916  0  1.018237  0
C  C60  1  0.04568031  0.14519089  0.39137326  1  0  0.139152  0  3.720521  0  0  0.110435  0  3.979123  0  0  0.115977  0  4.000123  0  0.465834  0  0.04665  0.106826  0  3.9669  0
C  C61  1  0.45431981  0.85480936  0.89137251  1  0  0.1391  0  3.720521  0  0  0.110394  0  3.979124  0  0  0.115935  0  4.000125  0  0.465714  0  0.046623  0.106784  0  3.966902  0
C  C62  1  0.95431887  0.85480682  0.60862749  1  0  0.139105  0  3.720431  0  0  0.110397  0  3.979031  0  0  0.115938  0  4.000031  0  0.465779  0  0.046593  0.106789  0  3.96681  0
C  C63  1  0.54568097  0.14519089  0.10862674  1  0  0.139123  0  3.720389  0  0  0.110406  0  3.978996  0  0  0.115947  0  3.999996  0  0.465836  0  0.046643  0.106797  0  3.966776  0
C  C64  1  0.99441020  0.06200013  0.32092220  1  0  -0.1077  0  3.693977  0  0  -0.12157  0  3.945135  0  0  -0.126848  0  3.964561  0  -0.046922  0  -0.077402  -0.117985  0  3.931442  0
C  C65  1  0.50559005  0.93800012  0.82091993  1  0  -0.107761  0  3.693821  0  0  -0.121628  0  3.944991  0  0  -0.126906  0  3.964417  0  -0.04691  0  -0.077446  -0.118043  0  3.9313  0
C  C66  1  0.00558898  0.93799758  0.67908082  1  0  -0.107559  0  3.693863  0  0  -0.121403  0  3.945009  0  0  -0.126682  0  3.964436  0  -0.046947  0  -0.077295  -0.117818  0  3.931317  0
C  C67  1  0.49441194  0.06200013  0.17907856  1  0  -0.107599  0  3.693878  0  0  -0.121477  0  3.94504  0  0  -0.126754  0  3.964464  0  -0.046949  0  -0.077371  -0.117895  0  3.93135  0
C  C68  1  0.85191805  0.99208057  0.33907267  1  0  0.006352  0  3.681875  0  0  -0.015758  0  3.938754  0  0  -0.012556  0  3.954474  0  -0.076036  0  -0.058933  -0.017799  0  3.928147  0
C  C69  1  0.64808340  0.00791967  0.83907116  1  0  0.006342  0  3.681696  0  0  -0.015799  0  3.938598  0  0  -0.01259  0  3.954324  0  -0.075915  0  -0.058906  -0.01784  0  3.927994  0
C  C70  1  0.14808007  0.00791798  0.66092884  1  0  0.006287  0  3.682003  0  0  -0.015873  0  3.938943  0  0  -0.012671  0  3.95467  0  -0.075438  0  -0.058957  -0.017914  0  3.928338  0
C  C71  1  0.35191979  0.99208057  0.16092657  1  0  0.006296  0  3.681824  0  0  -0.01581  0  3.938705  0  0  -0.012608  0  3.954426  0  -0.076023  0  -0.05894  -0.017851  0  3.928099  0
C  C72  1  0.76576646  0.00869585  0.42667386  1  0  -0.105514  0  3.678178  0  0  -0.127866  0  3.928742  0  0  -0.131642  0  3.946172  0  -0.00614  0  -0.073145  -0.125157  0  3.916404  0
C  C73  1  0.73423272  0.99130524  0.92667310  1  0  -0.105514  0  3.678206  0  0  -0.127842  0  3.928747  0  0  -0.131621  0  3.946175  0  -0.006237  0  -0.07315  -0.125134  0  3.916408  0
C  C74  1  0.23423086  0.99130524  0.57332765  1  0  -0.105528  0  3.678345  0  0  -0.12784  0  3.928884  0  0  -0.131619  0  3.946313  0  -0.006605  0  -0.073162  -0.125133  0  3.916547  0
C  C75  1  0.26576834  0.00869669  0.07332690  1  0  -0.105521  0  3.678244  0  0  -0.127879  0  3.928786  0  0  -0.131658  0  3.946215  0  -0.006143  0  -0.073159  -0.12517  0  3.916447  0
C  C76  1  0.82429653  0.09501241  0.49246188  1  0  0.086151  0  3.786015  0  0  0.09254  0  4.028768  0  0  0.092256  0  4.053003  0  0.439428  0  0.107577  0.09235  0  4.015287  0
C  C77  1  0.67570385  0.90498867  0.99246037  1  0  0.086125  0  3.786011  0  0  0.0925  0  4.028766  0  0  0.092223  0  4.052986  0  0.439494  0  0.107515  0.092311  0  4.015286  0
C  C78  1  0.17570319  0.90498867  0.50753963  1  0  0.086116  0  3.786008  0  0  0.092485  0  4.028776  0  0  0.092207  0  4.053001  0  0.439507  0  0.107512  0.092296  0  4.015296  0
C  C79  1  0.32429587  0.09501241  0.00753887  1  0  0.086217  0  3.785933  0  0  0.092621  0  4.028655  0  0  0.092346  0  4.052874  0  0.439421  0  0.107571  0.092432  0  4.015175  0
C  C80  1  0.72813947  0.11892683  0.58472988  1  0  0.615869  0  3.948533  0  0  0.564652  0  4.253613  0  0  0.597287  0  4.247869  0  1.58016  0  0.21026  0.542553  0  4.258773  0
C  C81  1  0.77185584  0.88107257  0.08472762  1  0  0.61587  0  3.948571  0  0  0.564646  0  4.253659  0  0  0.59728  0  4.247912  0  1.579948  0  0.210281  0.542547  0  4.258816  0
C  C82  1  0.27185652  0.88107341  0.41527238  1  0  0.615854  0  3.948443  0  0  0.564611  0  4.253568  0  0  0.597246  0  4.247824  0  1.580019  0  0.210288  0.54251  0  4.258727  0
C  C83  1  0.22814268  0.11892852  0.91527163  1  0  0.615866  0  3.94844  0  0  0.564643  0  4.253517  0  0  0.597276  0  4.247773  0  1.580051  0  0.210313  0.542544  0  4.258673  0
C  C84  1  0.31955968  0.31864411  0.52027189  1  0  0.709301  0  3.828999  0  0  0.659228  0  4.132076  0  0  0.692031  0  4.131122  0  1.513853  0  0.208193  0.636357  0  4.136966  0
C  C85  1  0.18044044  0.68135613  0.02027189  1  0  0.7093  0  3.828867  0  0  0.65921  0  4.131954  0  0  0.692014  0  4.130996  0  1.513879  0  0.208186  0.636341  0  4.13684  0
C  C86  1  0.68044217  0.68135528  0.47972811  1  0  0.709296  0  3.829042  0  0  0.659274  0  4.132021  0  0  0.692079  0  4.131064  0  1.513867  0  0.208215  0.636402  0  4.136912  0
C  C87  1  0.81955914  0.31864411  0.97972886  1  0  0.709368  0  3.828936  0  0  0.659239  0  4.132084  0  0  0.692043  0  4.131128  0  1.513881  0  0.208191  0.636369  0  4.136968  0
C  C88  1  0.48760780  0.31200990  0.48093593  1  0  -0.271658  0  3.647929  0  0  -0.304483  0  3.891578  0  0  -0.309793  0  3.89768  0  -0.021001  0  -0.161173  -0.300289  0  3.886096  0
C  C89  1  0.01239100  0.68798950  0.98093668  1  0  -0.271775  0  3.648039  0  0  -0.304566  0  3.891626  0  0  -0.30988  0  3.897731  0  -0.021057  0  -0.161193  -0.300364  0  3.886148  0
C  C90  1  0.51239285  0.68798950  0.51906332  1  0  -0.271902  0  3.647962  0  0  -0.304732  0  3.891582  0  0  -0.310045  0  3.897685  0  -0.021047  0  -0.161271  -0.300537  0  3.886098  0
C  C91  1  0.98760859  0.31201074  0.01906332  1  0  -0.271812  0  3.647911  0  0  -0.304599  0  3.891529  0  0  -0.30991  0  3.897631  0  -0.02105  0  -0.161197  -0.300394  0  3.886051  0
C  C92  1  0.50990561  0.33350374  0.36802034  1  0  -0.043761  0  3.653079  0  0  -0.086237  0  3.911146  0  0  -0.085383  0  3.922595  0  -0.033701  0  -0.156971  -0.086342  0  3.902385  0
C  C93  1  0.99009570  0.66649566  0.86802109  1  0  -0.043763  0  3.653044  0  0  -0.086228  0  3.911082  0  0  -0.085368  0  3.922535  0  -0.033709  0  -0.156973  -0.086335  0  3.902319  0
C  C94  1  0.49009517  0.66649650  0.63197891  1  0  -0.043685  0  3.652932  0  0  -0.086173  0  3.911009  0  0  -0.085318  0  3.922456  0  -0.033717  0  -0.156953  -0.086271  0  3.902252  0
C  C95  1  0.00990509  0.33350458  0.13197891  1  0  -0.043717  0  3.652949  0  0  -0.08616  0  3.910956  0  0  -0.085302  0  3.922406  0  -0.033532  0  -0.156979  -0.086267  0  3.902192  0
C  C96  1  0.68339997  0.32272430  0.33301623  1  0  -0.275445  0  3.643284  0  0  -0.314209  0  3.891207  0  0  -0.319498  0  3.896847  0  0.00941  0  -0.162595  -0.310194  0  3.885933  0
C  C97  1  0.81660148  0.67727594  0.83301547  1  0  -0.275409  0  3.643196  0  0  -0.314194  0  3.891131  0  0  -0.319499  0  3.896788  0  0.009433  0  -0.162566  -0.310169  0  3.885853  0
C  C98  1  0.31660215  0.67727678  0.66698377  1  0  -0.275481  0  3.643179  0  0  -0.314262  0  3.891146  0  0  -0.319546  0  3.89678  0  0.009427  0  -0.162613  -0.310258  0  3.885885  0
C  C99  1  0.18339811  0.32272430  0.16698453  1  0  -0.275492  0  3.643198  0  0  -0.314265  0  3.891097  0  0  -0.319565  0  3.896749  0  0.009459  0  -0.162617  -0.310249  0  3.885828  0
C  C100  1  0.80063181  0.41586258  0.37742639  1  0  0.77034  0  3.779483  0  0  0.730887  0  4.063802  0  0  0.766064  0  4.057854  0  1.564408  0  0.237208  0.707407  0  4.070338  0
C  C101  1  0.69936498  0.58413850  0.87742488  1  0  0.770398  0  3.779478  0  0  0.730949  0  4.063801  0  0  0.766131  0  4.05785  0  1.564416  0  0.237191  0.707458  0  4.07035  0
C  C102  1  0.19936672  0.58413850  0.62257437  1  0  0.770313  0  3.779481  0  0  0.730886  0  4.063766  0  0  0.76606  0  4.05782  0  1.564416  0  0.237202  0.707407  0  4.070305  0
C  C103  1  0.30063461  0.41586174  0.12257437  1  0  0.770383  0  3.779448  0  0  0.730948  0  4.063739  0  0  0.766126  0  4.057789  0  1.56442  0  0.237253  0.707459  0  4.070288  0
N  N104  1  0.96257725  0.16307159  0.47575460  1  0  -0.447905  0  3.279075  0  0  -0.396913  0  3.542364  0  0  -0.420963  0  3.566132  0  -1.23871  0  -0.375361  -0.387152  0  3.528264  0
N  N105  1  0.53742313  0.83692950  0.97575385  1  0  -0.447887  0  3.279053  0  0  -0.396882  0  3.542315  0  0  -0.420931  0  3.56608  0  -1.238665  0  -0.375331  -0.387122  0  3.528215  0
N  N106  1  0.03742234  0.83692865  0.52424540  1  0  -0.44789  0  3.279024  0  0  -0.39688  0  3.542287  0  0  -0.420932  0  3.566054  0  -1.238683  0  -0.375339  -0.387119  0  3.528187  0
N  N107  1  0.46257779  0.16307159  0.02424540  1  0  -0.44799  0  3.278955  0  0  -0.396996  0  3.542226  0  0  -0.421046  0  3.56599  0  -1.238709  0  -0.375391  -0.387235  0  3.528127  0
O  O108  1  0.60908098  0.05261088  0.60929213  1  0  -0.564281  0  1.920671  0  0  -0.52383  0  2.145188  0  0  -0.544378  0  2.137044  0  -1.163352  0  -0.303449  -0.509158  0  2.1499  0
O  O109  1  0.89091261  0.94739274  0.10929062  1  0  -0.564264  0  1.920725  0  0  -0.5238  0  2.145233  0  0  -0.54435  0  2.137091  0  -1.163245  0  -0.303432  -0.509126  0  2.149942  0
O  O110  1  0.39091835  0.94739528  0.39070938  1  0  -0.564308  0  1.92059  0  0  -0.52381  0  2.145077  0  0  -0.544362  0  2.136937  0  -1.163319  0  -0.303474  -0.509136  0  2.149786  0
O  O111  1  0.10908019  0.05261003  0.89070787  1  0  -0.564282  0  1.920574  0  0  -0.523828  0  2.145085  0  0  -0.54438  0  2.136945  0  -1.163302  0  -0.303466  -0.509154  0  2.149792  0
O  O112  1  0.77698240  0.21295530  0.63137537  1  0  -0.766796  0  2.104544  0  0  -0.702092  0  2.35725  0  0  -0.740501  0  2.344488  0  -1.19402  0  -0.411766  -0.682531  0  2.364003  0
O  O113  1  0.72301891  0.78704409  0.13137537  1  0  -0.766801  0  2.104546  0  0  -0.702107  0  2.357275  0  0  -0.740512  0  2.344515  0  -1.193941  0  -0.411793  -0.682545  0  2.364025  0
O  O114  1  0.22301959  0.78704494  0.36862538  1  0  -0.766748  0  2.104542  0  0  -0.70204  0  2.357268  0  0  -0.740449  0  2.344507  0  -1.193987  0  -0.411741  -0.682479  0  2.364021  0
O  O115  1  0.27698214  0.21295784  0.86862613  1  0  -0.766815  0  2.104578  0  0  -0.702128  0  2.357313  0  0  -0.740535  0  2.344553  0  -1.193962  0  -0.411819  -0.682567  0  2.364064  0
O  O116  1  0.21816886  0.37065449  0.47100028  1  0  -0.725201  0  2.060624  0  0  -0.665643  0  2.306454  0  0  -0.699857  0  2.296936  0  -1.201755  0  -0.368058  -0.647269  0  2.312116  0
O  O117  1  0.28183113  0.62934491  0.97099952  1  0  -0.725197  0  2.060544  0  0  -0.665649  0  2.306394  0  0  -0.699858  0  2.296874  0  -1.201758  0  -0.36805  -0.647274  0  2.312054  0
O  O118  1  0.78183152  0.62934322  0.52899972  1  0  -0.725117  0  2.060582  0  0  -0.665589  0  2.306422  0  0  -0.699805  0  2.296905  0  -1.201787  0  -0.368034  -0.647211  0  2.312078  0
O  O119  1  0.71816965  0.37065534  0.02900048  1  0  -0.725176  0  2.060613  0  0  -0.665602  0  2.306472  0  0  -0.699812  0  2.296953  0  -1.201775  0  -0.368046  -0.647227  0  2.31213  0
O  O120  1  0.27604562  0.27087609  0.60389278  1  0  -0.698758  0  1.982581  0  0  -0.640352  0  2.219847  0  0  -0.675081  0  2.211516  0  -1.186984  0  -0.354263  -0.621901  0  2.224836  0
O  O121  1  0.22395303  0.72912247  0.10389354  1  0  -0.6987  0  1.982517  0  0  -0.640305  0  2.219826  0  0  -0.67503  0  2.211495  0  -1.187  0  -0.354252  -0.621854  0  2.224811  0
O  O122  1  0.72395396  0.72912416  0.39610722  1  0  -0.698729  0  1.982675  0  0  -0.64034  0  2.219923  0  0  -0.675069  0  2.21159  0  -1.186981  0  -0.354243  -0.621897  0  2.224927  0
O  O123  1  0.77604628  0.27087609  0.89610722  1  0  -0.698777  0  1.982554  0  0  -0.640349  0  2.219835  0  0  -0.675074  0  2.211501  0  -1.186994  0  -0.354251  -0.621907  0  2.224837  0
O  O124  1  0.87865304  0.39836870  0.45675013  1  0  -0.768893  0  2.099995  0  0  -0.719766  0  2.371723  0  0  -0.760738  0  2.360529  0  -1.219247  0  -0.405549  -0.701538  0  2.378709  0
O  O125  1  0.62134720  0.60163155  0.95675013  1  0  -0.768918  0  2.100052  0  0  -0.71981  0  2.371796  0  0  -0.760778  0  2.3606  0  -1.219207  0  -0.405539  -0.701567  0  2.378761  0
O  O126  1  0.12134894  0.60163155  0.54324912  1  0  -0.768887  0  2.099994  0  0  -0.719772  0  2.371725  0  0  -0.760744  0  2.360531  0  -1.219225  0  -0.405549  -0.701541  0  2.378708  0
O  O127  1  0.37865238  0.39836870  0.04324912  1  0  -0.768898  0  2.09998  0  0  -0.719806  0  2.37175  0  0  -0.760774  0  2.360552  0  -1.21922  0  -0.405576  -0.701563  0  2.378716  0
O  O128  1  0.81305658  0.51260133  0.33435305  1  0  -0.73226  0  2.060434  0  0  -0.67029  0  2.295527  0  0  -0.706774  0  2.283131  0  -1.195936  0  -0.366681  -0.651194  0  2.301607  0
O  O129  1  0.68694246  0.48739892  0.83435305  1  0  -0.732318  0  2.060454  0  0  -0.670339  0  2.295534  0  0  -0.706818  0  2.283135  0  -1.195927  0  -0.366688  -0.651241  0  2.301618  0
O  O130  1  0.18694420  0.48739892  0.66564619  1  0  -0.732258  0  2.060462  0  0  -0.670296  0  2.295545  0  0  -0.706779  0  2.283148  0  -1.195885  0  -0.366679  -0.6512  0  2.301624  0
O  O131  1  0.31305699  0.51260048  0.16564695  1  0  -0.732267  0  2.06045  0  0  -0.67031  0  2.295536  0  0  -0.70679  0  2.283139  0  -1.195921  0  -0.366687  -0.651214  0  2.30162  0
O  O132  1  0.82985802  0.45902171  0.65807866  1  0  -0.933551  0  1.844999  0  0  -0.884456  0  2.050635  0  0  -0.914046  0  2.009909  0  -1.31066  0  -0.6603  -0.871007  0  2.074046  0
O  O133  1  0.67014582  0.54097853  0.15807639  1  0  -0.933529  0  1.845074  0  0  -0.884405  0  2.050642  0  0  -0.913997  0  2.009933  0  -1.310679  0  -0.660293  -0.870962  0  2.074063  0
O  O134  1  0.17014263  0.54097769  0.34192210  1  0  -0.933534  0  1.845029  0  0  -0.884436  0  2.050653  0  0  -0.914027  0  2.009924  0  -1.310658  0  -0.660305  -0.870985  0  2.074061  0
O  O135  1  0.32985497  0.45902171  0.84192210  1  0  -0.933494  0  1.845072  0  0  -0.884376  0  2.050649  0  0  -0.913967  0  2.009935  0  -1.310647  0  -0.660276  -0.870931  0  2.074069  0
O  O136  1  0.02946463  0.27838529  0.76148559  1  0  -0.930542  0  1.847036  0  0  -0.880187  0  2.051562  0  0  -0.911133  0  2.010083  0  -1.28796  0  -0.663784  -0.866186  0  2.075241  0
O  O137  1  0.47053536  0.72161411  0.26148559  1  0  -0.930556  0  1.847034  0  0  -0.880207  0  2.051613  0  0  -0.911147  0  2.010136  0  -1.287963  0  -0.663797  -0.866206  0  2.075291  0
O  O138  1  0.97053602  0.72161411  0.23851441  1  0  -0.930529  0  1.847051  0  0  -0.880159  0  2.051616  0  0  -0.911107  0  2.010136  0  -1.287962  0  -0.663771  -0.866157  0  2.075295  0
O  O139  1  0.52946409  0.27838529  0.73851441  1  0  -0.93053  0  1.847092  0  0  -0.880188  0  2.051602  0  0  -0.91113  0  2.010128  0  -1.287983  0  -0.663761  -0.866187  0  2.075282  0
