# generated using pymatgen
data_Al6H65C96N27O28
_symmetry_space_group_name_H-M   'P 1'
_cell_length_a   13.22577927
_cell_length_b   13.20537064
_cell_length_c   33.70660916
_cell_angle_alpha   83.59998568
_cell_angle_beta   83.46939731
_cell_angle_gamma   63.55351458
_symmetry_Int_Tables_number   1
_chemical_formula_structural   Al6H65C96N27O28
_chemical_formula_sum   'Al6 H65 C96 N27 O28'
_cell_volume   5224.38931120
_cell_formula_units_Z   1
loop_
 _symmetry_equiv_pos_site_id
 _symmetry_equiv_pos_as_xyz
  1  'x, y, z'
loop_
 _atom_site_type_symbol
 _atom_site_label
 _atom_site_symmetry_multiplicity
 _atom_site_fract_x
 _atom_site_fract_y
 _atom_site_fract_z
 _atom_site_occupancy
 _atom_site_pbe_bader_charge
 _atom_site_pbe_bader_spin_density
 _atom_site_pbe_cm5_charge
 _atom_site_pbe_ddec_charge
 _atom_site_pbe_ddec_spin_density
 _atom_site_pbe_ddec_sum_bond_order
 _atom_site_pbe_magmom
Al  Al0  1  0.39931144  0.42042516  0.50891084  1  2.498569  0  0.394176  1.693117  0  2.553179  0
Al  Al1  1  0.64080083  0.42544372  0.49727419  1  2.484053  0  0.502899  1.66614  0  2.507475  0
Al  Al2  1  0.43114160  0.64662283  0.49777009  1  2.481432  0  0.501635  1.65852  0  2.50826  0
Al  Al3  1  0.91390202  0.93905477  0.98373894  1  2.496157  0  0.397188  1.688754  0  2.551036  0
Al  Al4  1  0.91072700  0.69728547  0.99639474  1  2.478867  0  0.500287  1.663985  0  2.514303  0
Al  Al5  1  0.68818491  0.90486279  0.99531354  1  2.479618  0  0.50257  1.658535  0  2.510868  0
H  H6  1  0.11878578  0.54793498  0.08843795  1  0.083192  0  0.107918  0.121155  0  1.001905  0
H  H7  1  0.10626810  0.86113406  0.16063562  1  0.111102  0  0.101315  0.097808  0  1.030992  0
H  H8  1  0.76638024  0.28208419  0.39413646  1  0.090155  0  0.109592  0.111859  0  0.998442  0
H  H9  1  0.44995568  0.26088581  0.40904057  1  0.090738  0  0.112322  0.115107  0  0.992434  0
H  H10  1  0.85556510  0.07622054  0.08505410  1  0.102054  0  0.107715  0.125659  0  1.01863  0
H  H11  1  0.77795695  0.26088283  0.32055242  1  0.082675  0  0.10474  0.101541  0  1.019049  0
H  H12  1  0.46176740  0.23771044  0.33520367  1  0.078058  0  0.101891  0.094962  0  1.030857  0
H  H13  1  0.80007908  0.46775593  0.58671080  1  0.076404  0  0.104473  0.122392  0  1.011295  0
H  H14  1  0.48086729  0.76319877  0.59270048  1  0.075825  0  0.105204  0.121958  0  1.019404  0
H  H15  1  0.89768380  0.56586460  0.90038708  1  0.139182  0  0.107348  0.120718  0  1.030925  0
H  H16  1  0.48498633  0.78450328  0.31063485  1  0.0867  0  0.107877  0.111912  0  0.985971  0
H  H17  1  0.56467195  0.82546484  0.82614293  1  0.087544  0  0.099739  0.093081  0  1.040721  0
H  H18  1  0.00384305  0.89827556  0.87099236  1  0.075444  0  0.110651  0.129988  0  1.006709  0
H  H19  1  0.55530760  0.04420847  0.88957238  1  0.065966  0  0.104859  0.121989  0  1.016188  0
H  H20  1  0.85176850  0.10300262  0.87988149  1  0.105404  0  0.115949  0.139732  0  0.993484  0
H  H21  1  0.78723475  0.47646598  0.38747204  1  0.078125  0  0.111152  0.113139  0  0.993054  0
H  H22  1  0.85422791  0.53974210  0.18105317  1  0.069937  0  0.108051  0.111125  0  0.988303  0
H  H23  1  0.87788460  0.56701662  0.10660258  1  0.133246  0  0.111257  0.114559  0  0.995328  0
H  H24  1  0.81358087  0.49724473  0.31290747  1  0.098468  0  0.108179  0.111048  0  0.986384  0
H  H25  1  0.55024424  0.85227661  0.10626035  1  0.090617  0  0.106842  0.104929  0  1.009826  0
H  H26  1  0.25270963  0.82368730  0.42464681  1  0.478984  0  0.302833  0.30603  0  0.980907  0
H  H27  1  0.20991714  0.90100455  0.37987884  1  0.425691  0  0.309378  0.301547  0  0.939923  0
H  H28  1  0.27488250  0.37682270  0.35227730  1  0.416956  0  0.30507  0.300768  0  0.94103  0
H  H29  1  0.26874084  0.43679553  0.30346558  1  0.493334  0  0.289559  0.273411  0  1.052654  0
H  H30  1  0.22879271  0.80690232  0.31951003  1  0.083997  0  0.101607  0.108329  0  1.033324  0
H  H31  1  0.23097092  0.46488401  0.18638700  1  0.5089  0  0.291831  0.277393  0  1.055674  0
H  H32  1  0.20681272  0.42108239  0.14204452  1  0.435148  0  0.309714  0.304092  0  0.941263  0
H  H33  1  0.04128952  0.89904312  0.09114023  1  0.095723  0  0.10437  0.111693  0  1.01252  0
H  H34  1  0.52498160  0.82643592  0.18076483  1  0.060168  0  0.108147  0.111627  0  0.988055  0
H  H35  1  0.84429445  0.17446172  0.18105334  1  0.507785  0  0.291014  0.272894  0  1.061085  0
H  H36  1  0.92549164  0.11641815  0.13727115  1  0.432906  0  0.310403  0.306645  0  0.931043  0
H  H37  1  0.51567612  0.06753300  0.06783295  1  0.474965  0  0.293522  0.300107  0  0.995665  0
H  H38  1  0.45763479  0.06459271  0.11495909  1  0.407935  0  0.292506  0.27587  0  0.969822  0
H  H39  1  0.40029629  0.20402214  0.14758632  1  0.42368  0  0.296489  0.283969  0  0.976241  0
H  H40  1  0.44675930  0.22048175  0.19225410  1  0.500283  0  0.289078  0.270694  0  1.059064  0
H  H41  1  0.91620059  0.41907221  0.63810189  1  0.416983  0  0.310451  0.305471  0  0.934288  0
H  H42  1  0.88198445  0.49245847  0.68212076  1  0.50857  0  0.288558  0.270173  0  1.075567  0
H  H43  1  0.50488163  0.82898273  0.69128443  1  0.527977  0  0.293968  0.276258  0  1.062495  0
H  H44  1  0.42192355  0.86175552  0.64950556  1  0.433993  0  0.314636  0.310556  0  0.930191  0
H  H45  1  0.98676622  0.48517995  0.84150879  1  0.458317  0  0.303283  0.300695  0  0.959088  0
H  H46  1  0.92306667  0.52218449  0.79561308  1  0.490335  0  0.289144  0.271232  0  1.051592  0
H  H47  1  0.56602489  0.84617152  0.89885879  1  0.104002  0  0.104285  0.111053  0  1.006755  0
H  H48  1  0.98414979  0.97583617  0.79818886  1  0.476495  0  0.27848  0.275995  0  1.037461  0
H  H49  1  0.04497593  0.88290124  0.76166415  1  0.435618  0  0.289007  0.281107  0  0.982327  0
H  H50  1  0.21275963  0.81894442  0.67450466  1  0.055754  0  0.094695  0.10079  0  1.011383  0
H  H51  1  0.27642807  0.78732762  0.60204712  1  0.081332  0  0.100645  0.105879  0  1.01511  0
H  H52  1  0.15091283  0.44696077  0.62434415  1  0.430709  0  0.301444  0.289378  0  0.961026  0
H  H53  1  0.23371909  0.45637893  0.58161268  1  0.531575  0  0.307677  0.330067  0  0.96629  0
H  H54  1  0.16312609  0.51671184  0.81931244  1  0.027964  0  0.096931  0.104464  0  1.007773  0
H  H55  1  0.18368314  0.44234029  0.88913525  1  0.42172  0  0.30215  0.292093  0  0.949958  0
H  H56  1  0.10384995  0.52697797  0.92657346  1  0.482954  0  0.298934  0.30507  0  0.986009  0
H  H57  1  0.45994622  0.76360735  0.38482641  1  0.15154  0  0.103051  0.105675  0  1.047796  0
H  H58  1  0.19232320  0.42254747  0.68437188  1  0.428468  0  0.296809  0.27886  0  0.966016  0
H  H59  1  0.12626778  0.51959212  0.71877160  1  0.429457  0  0.292055  0.288348  0  0.969652  0
H  H60  1  0.45684363  0.07609375  0.82794918  1  0.464444  0  0.318665  0.315298  0  0.926165  0
H  H61  1  0.51425916  0.10491648  0.78172153  1  0.461499  0  0.304165  0.300141  0  0.96684  0
H  H62  1  0.48086075  0.21090607  0.69241527  1  0.061988  0  0.098693  0.097361  0  1.002469  0
H  H63  1  0.44839058  0.27220055  0.62014472  1  0.114154  0  0.108368  0.113563  0  1.01233  0
H  H64  1  0.78466036  0.24725013  0.59916979  1  0.09793  0  0.109095  0.111467  0  0.994429  0
H  H65  1  0.89510310  0.18356472  0.81379546  1  0.437922  0  0.316284  0.307772  0  0.922021  0
H  H66  1  0.83450705  0.18220195  0.77228743  1  0.4508  0  0.300501  0.28991  0  0.960843  0
H  H67  1  0.81847891  0.18728777  0.67132989  1  0.088413  0  0.101482  0.102949  0  0.997574  0
H  H68  1  0.28201432  0.46417894  0.40721566  1  0.093492  0  0.113309  0.12775  0  1.007193  0
H  H69  1  0.34422711  0.27188596  0.51807564  1  0.570191  0  0.288659  0.376418  0  0.932102  0
H  H70  1  0.04442820  0.00645527  0.99363874  1  0.575116  0  0.286347  0.373764  0  0.93844  0
C  C71  1  0.59255283  0.30181298  0.44810185  1  1.539133  0  0.271489  0.638116  0  4.091786  0
C  C72  1  0.65146568  0.64304316  0.30678403  1  0.051175  0  0.00822  0.147314  0  4.103138  0
C  C73  1  0.55181793  0.71838823  0.32760592  1  -0.107849  0  -0.077768  -0.119896  0  3.925286  0
C  C74  1  0.53836452  0.70730484  0.36904326  1  0.036198  0  -0.077345  -0.074487  0  3.964044  0
C  C75  1  0.60158729  0.76923000  0.16434834  1  -0.050298  0  -0.078086  -0.124277  0  3.932441  0
C  C76  1  0.61532087  0.78335211  0.12300215  1  0.01105  0  -0.077203  -0.076808  0  3.982579  0
C  C77  1  0.80036144  0.62185720  0.12315329  1  -0.077624  0  -0.073991  -0.075465  0  3.973593  0
C  C78  1  0.78738066  0.60721455  0.16449537  1  -0.018044  0  -0.078474  -0.12399  0  3.935984  0
C  C79  1  0.68770104  0.68080315  0.18585102  1  0.076058  0  0.010421  0.151973  0  4.096102  0
C  C80  1  0.67505170  0.66689305  0.22805497  1  -0.470645  0  -0.038685  -0.102527  0  4.100989  0
C  C81  1  0.66476387  0.65484740  0.26453570  1  0.149697  0  -0.036291  -0.09757  0  4.10112  0
C  C82  1  0.60306321  0.60170782  0.43455873  1  1.540634  0  0.274815  0.64717  0  4.078404  0
C  C83  1  0.71456346  0.71000186  0.10197483  1  0.017197  0  -0.013946  -0.053203  0  3.972517  0
C  C84  1  0.27053223  0.63050799  0.40420079  1  0.076059  0  -0.020092  -0.132166  0  3.955936  0
C  C85  1  0.26855403  0.53946812  0.38740962  1  -0.020334  0  -0.095196  -0.199427  0  3.96087  0
C  C86  1  0.25360750  0.53974427  0.34698455  1  0.448905  0  0.099063  0.270607  0  4.072755  0
C  C87  1  0.24097208  0.63914238  0.32197818  1  0.042711  0  -0.014382  -0.070288  0  3.981034  0
C  C88  1  0.23850825  0.73247304  0.33928982  1  0.001926  0  -0.10461  -0.235502  0  3.976267  0
C  C89  1  0.25226335  0.73190066  0.37984375  1  0.350554  0  0.092747  0.273198  0  4.095746  0
C  C90  1  0.19213759  0.66588798  0.20354016  1  0.910589  0  0.229836  0.250673  0  3.98934  0
C  C91  1  0.23343712  0.64566103  0.27894381  1  0.902111  0  0.232372  0.252509  0  3.974193  0
C  C92  1  0.15664643  0.59143020  0.14316007  1  0.477926  0  0.113257  0.296493  0  4.060684  0
C  C93  1  0.30204225  0.60918938  0.44622647  1  1.519887  0  0.267748  0.641108  0  4.071325  0
C  C94  1  0.11813624  0.61577794  0.10433729  1  0.036593  0  -0.096284  -0.220662  0  3.941547  0
C  C95  1  0.07454832  0.81422211  0.10592323  1  0.017304  0  -0.10095  -0.132488  0  4.012172  0
C  C96  1  0.11021455  0.79276660  0.14423580  1  -0.07715  0  -0.086109  -0.09194  0  4.017355  0
C  C97  1  0.15288196  0.68267298  0.16367403  1  0.008426  0  -0.017851  -0.099366  0  3.94259  0
C  C98  1  0.07884943  0.72421833  0.08579231  1  -0.075643  0  -0.011253  -0.010218  0  4.010816  0
C  C99  1  0.60742989  0.27276405  0.40572846  1  0.026482  0  -0.010938  -0.040899  0  3.959261  0
C  C100  1  0.70085168  0.27103864  0.38093913  1  -0.058985  0  -0.075905  -0.078786  0  3.965761  0
C  C101  1  0.70716163  0.25951047  0.34015986  1  0.022526  0  -0.081482  -0.110904  0  3.963721  0
C  C102  1  0.61967452  0.24938065  0.32341401  1  -0.033084  0  -2.5e-05  0.034986  0  3.984302  0
C  C103  1  0.52810526  0.24700660  0.34854081  1  0.008197  0  -0.084153  -0.113874  0  3.975544  0
C  C104  1  0.59106597  0.30491508  0.56332236  1  1.558607  0  0.267135  0.636478  0  4.100093  0
C  C105  1  0.52177788  0.25921374  0.38926502  1  -0.066461  0  -0.075375  -0.080919  0  3.967877  0
C  C106  1  0.64017321  0.20227952  0.20458501  1  0.858367  0  0.231604  0.27143  0  3.949397  0
C  C107  1  0.62262619  0.24341217  0.28010036  1  0.955448  0  0.232116  0.228981  0  4.015933  0
C  C108  1  0.76515719  0.12989405  0.14190328  1  0.461627  0  0.099077  0.289856  0  4.104613  0
C  C109  1  0.77616361  0.09720831  0.10317908  1  -0.055347  0  -0.120847  -0.260662  0  4.021174  0
C  C110  1  0.58560904  0.11113009  0.10873073  1  0.434794  0  0.07436  0.146799  0  4.039179  0
C  C111  1  0.56878461  0.15201072  0.14738557  1  0.456467  0  0.100988  0.201371  0  4.02097  0
C  C112  1  0.65790065  0.16095570  0.16519618  1  0.003791  0  -0.024723  -0.201184  0  3.903253  0
C  C113  1  0.68956055  0.08625615  0.08644735  1  0.04476  0  -0.021756  -0.108759  0  4.011924  0
C  C114  1  0.63980521  0.61568614  0.58582805  1  -0.037982  0  -0.015923  0.003549  0  4.081103  0
C  C115  1  0.61566333  0.59579057  0.54616934  1  1.550503  0  0.281012  0.655258  0  4.051265  0
C  C116  1  0.73885329  0.53917249  0.60313587  1  0.042703  0  -0.120761  -0.273007  0  3.98495  0
C  C117  1  0.75983089  0.55287666  0.64159771  1  0.407882  0  0.111109  0.31435  0  4.073319  0
C  C118  1  0.67791531  0.64601080  0.66404151  1  0.039217  0  -0.027221  -0.218636  0  3.852306  0
C  C119  1  0.57506065  0.72236599  0.64535147  1  0.485169  0  0.115028  0.318516  0  4.075451  0
C  C120  1  0.55874077  0.70608035  0.60650464  1  0.014373  0  -0.117617  -0.266613  0  3.974589  0
C  C121  1  0.72295070  0.67974239  0.77923203  1  0.903607  0  0.230014  0.250241  0  3.990195  0
C  C122  1  0.69826443  0.66247136  0.70368101  1  0.872745  0  0.22747  0.266019  0  3.958245  0
C  C123  1  0.82411719  0.60670760  0.84336331  1  0.479318  0  0.115537  0.298144  0  4.035281  0
C  C124  1  0.82316752  0.62074506  0.88431548  1  -0.062749  0  -0.087957  -0.196015  0  3.898184  0
C  C125  1  0.63641125  0.77947727  0.88320992  1  -0.027049  0  -0.099286  -0.12679  0  4.017159  0
C  C126  1  0.29411856  0.62035334  0.56099711  1  1.50656  0  0.264581  0.643784  0  4.089733  0
C  C127  1  0.63606368  0.76752968  0.84306229  1  -0.048722  0  -0.087576  -0.09157  0  4.014264  0
C  C128  1  0.72840564  0.68317734  0.82197194  1  0.025741  0  -0.014432  -0.097164  0  3.934693  0
C  C129  1  0.73191190  0.70543705  0.90397922  1  0.003574  0  -0.013385  -0.0262  0  4.014384  0
C  C130  1  0.24913186  0.63878353  0.60266416  1  0.014394  0  -0.033159  -0.168039  0  3.984874  0
C  C131  1  0.21211507  0.56260870  0.62549660  1  0.459298  0  0.109529  0.213877  0  4.026881  0
C  C132  1  0.17727518  0.58047250  0.66674128  1  0.411638  0  0.088268  0.141297  0  4.004127  0
C  C133  1  0.17837380  0.67202555  0.68415481  1  0.097523  0  -0.014271  0.050391  0  4.134642  0
C  C134  1  0.21180367  0.74917160  0.66036083  1  -0.034426  0  -0.11023  -0.163229  0  4.058283  0
C  C135  1  0.24728354  0.73137692  0.62068322  1  -0.006479  0  -0.102201  -0.106995  0  4.087629  0
C  C136  1  0.06119360  0.80578075  0.81761740  1  0.413043  0  0.093375  0.249136  0  4.074758  0
C  C137  1  0.62347892  0.62022758  0.39077442  1  -0.000461  0  -0.014661  -0.054048  0  3.972824  0
C  C138  1  0.03833319  0.81543018  0.85881154  1  0.068863  0  -0.09443  -0.191193  0  3.941375  0
C  C139  1  0.10114310  0.61084186  0.87212745  1  0.391861  0  0.085485  0.262241  0  4.100082  0
C  C140  1  0.12742801  0.60056091  0.83093971  1  0.018676  0  -0.108548  -0.252728  0  3.990308  0
C  C141  1  0.10822820  0.69438848  0.80364269  1  0.07111  0  -0.013027  0.053807  0  4.121383  0
C  C142  1  0.13253960  0.68209591  0.76215882  1  -0.080699  0  -0.046451  -0.103599  0  4.139435  0
C  C143  1  0.15133712  0.68168829  0.72571427  1  -0.351207  0  -0.047396  -0.10696  0  4.138233  0
C  C144  1  0.05689443  0.72141491  0.88621798  1  -0.00528  0  -0.027227  -0.148658  0  3.971073  0
C  C145  1  0.61531688  0.26140415  0.60542171  1  0.01716  0  -0.015981  -0.048508  0  3.970814  0
C  C146  1  0.71943272  0.23786131  0.61989143  1  -0.017154  0  -0.076525  -0.077339  0  3.985942  0
C  C147  1  0.73792817  0.20487227  0.65999903  1  -0.088121  0  -0.085939  -0.132781  0  3.95322  0
C  C148  1  0.72262586  0.54459665  0.37031429  1  -0.016209  0  -0.076623  -0.081532  0  3.987471  0
C  C149  1  0.65199954  0.19474180  0.68676935  1  0.105194  0  0.001835  0.147718  0  4.120723  0
C  C150  1  0.54755725  0.21798864  0.67181953  1  -0.040699  0  -0.087651  -0.132695  0  3.960857  0
C  C151  1  0.52953430  0.25118080  0.63176345  1  -0.05252  0  -0.077212  -0.078119  0  3.975424  0
C  C152  1  0.60609757  0.08933281  0.82930483  1  0.404705  0  0.108525  0.293518  0  4.105196  0
C  C153  1  0.61470668  0.06829591  0.87075798  1  0.008191  0  -0.111577  -0.258274  0  3.982825  0
C  C154  1  0.78339159  0.10143655  0.86510940  1  0.023038  0  -0.110154  -0.260605  0  3.985562  0
C  C155  1  0.77604730  0.12336157  0.82387438  1  0.359616  0  0.098855  0.266892  0  4.09249  0
C  C156  1  0.68754176  0.11740020  0.80538563  1  0.134915  0  -0.025308  -0.090342  0  4.062782  0
C  C157  1  0.67846610  0.14138708  0.76390662  1  -0.510486  0  -0.048374  -0.083929  0  4.195693  0
C  C158  1  0.66803112  0.16453625  0.72790220  1  0.074113  0  -0.047542  -0.130592  0  4.113477  0
C  C159  1  0.73697558  0.55587330  0.32890223  1  -0.062317  0  -0.079272  -0.124581  0  3.939545  0
C  C160  1  0.70288551  0.07387996  0.88809507  1  0.025149  0  -0.014442  0.001076  0  4.05369  0
C  C161  1  0.03443079  0.74634035  0.04545803  1  1.555594  0  0.271218  0.640265  0  4.078167  0
C  C162  1  0.73399783  0.73155056  0.05832548  1  1.562626  0  0.275827  0.646611  0  4.081456  0
C  C163  1  0.71798532  0.04090413  0.04612080  1  1.531335  0  0.269999  0.645802  0  4.051882  0
C  C164  1  0.02574328  0.74517548  0.92887886  1  1.499992  0  0.262886  0.637879  0  4.079952  0
C  C165  1  0.74276955  0.72476798  0.94551372  1  1.534477  0  0.280128  0.652658  0  4.060857  0
C  C166  1  0.72000705  0.03880466  0.93123296  1  1.534422  0  0.276246  0.637127  0  4.074669  0
N  N167  1  0.23302871  0.56142256  0.22289476  1  -0.618085  0  -0.161123  -0.156626  0  3.29733  0
N  N168  1  0.79847475  0.59385779  0.71995241  1  -0.603737  0  -0.156581  -0.145817  0  3.295905  0
N  N169  1  0.62060943  0.75424633  0.72383124  1  -0.573766  0  -0.146984  -0.137412  0  3.299144  0
N  N170  1  0.63260874  0.76295774  0.76090774  1  -0.526354  0  -0.151874  -0.144291  0  3.240999  0
N  N171  1  0.25296597  0.55155220  0.26085806  1  -0.609162  0  -0.157631  -0.144928  0  3.289551  0
N  N172  1  0.21968688  0.74399024  0.25668795  1  -0.507005  0  -0.152584  -0.145446  0  3.231738  0
N  N173  1  0.19854678  0.75417553  0.21928691  1  -0.541176  0  -0.151978  -0.146607  0  3.236358  0
N  N174  1  0.72182591  0.22288747  0.21905190  1  -0.551529  0  -0.15092  -0.139082  0  3.279069  0
N  N175  1  0.71325744  0.24260733  0.25674516  1  -0.559479  0  -0.156953  -0.152309  0  3.249007  0
N  N176  1  0.52944229  0.25228066  0.26410545  1  -0.557719  0  -0.158467  -0.153484  0  3.244716  0
N  N177  1  0.53801961  0.23248260  0.22633372  1  -0.570854  0  -0.153823  -0.142297  0  3.284311  0
N  N178  1  0.81042940  0.60207184  0.75745157  1  -0.588355  0  -0.159939  -0.157368  0  3.289945  0
N  N179  1  0.25438730  0.82493353  0.39440780  1  -1.232395  0  -0.595267  -0.620021  0  3.346157  0
N  N180  1  0.24939973  0.44734961  0.33336482  1  -1.240243  0  -0.598224  -0.615913  0  3.357788  0
N  N181  1  0.19392490  0.48310678  0.15984709  1  -1.287618  0  -0.586962  -0.607579  0  3.388017  0
N  N182  1  0.85804634  0.12848387  0.15694863  1  -1.267437  0  -0.593358  -0.607772  0  3.366544  0
N  N183  1  0.49325264  0.10446647  0.09450517  1  -1.222096  0  -0.617215  -0.631262  0  3.3083  0
N  N184  1  0.46310512  0.18007870  0.16639118  1  -1.256464  0  -0.596743  -0.596626  0  3.381909  0
N  N185  1  0.85816997  0.47446089  0.65700159  1  -1.244048  0  -0.590311  -0.610173  0  3.389502  0
N  N186  1  0.49138965  0.81098213  0.66421616  1  -1.291086  0  -0.582811  -0.599825  0  3.391695  0
N  N187  1  0.91612803  0.52060312  0.82611823  1  -1.262352  0  -0.589652  -0.604007  0  3.374354  0
N  N188  1  0.04405395  0.89767494  0.79067217  1  -1.267149  0  -0.609189  -0.621209  0  3.352683  0
N  N189  1  0.21184926  0.46919318  0.61136519  1  -1.264588  0  -0.582699  -0.601918  0  3.33604  0
N  N190  1  0.11471227  0.51415856  0.89684065  1  -1.232808  0  -0.603553  -0.633174  0  3.318264  0
N  N191  1  0.14099867  0.50555344  0.68907645  1  -1.213686  0  -0.601193  -0.608626  0  3.322  0
N  N192  1  0.52325939  0.08029841  0.81115256  1  -1.276747  0  -0.586288  -0.613495  0  3.368933  0
N  N193  1  0.85828150  0.14537083  0.79998473  1  -1.214692  0  -0.581036  -0.598637  0  3.322464  0
O  O194  1  0.31885956  0.51380847  0.46361398  1  -1.252163  0  -0.21684  -0.561931  0  2.374727  0
O  O195  1  0.68314928  0.50211077  0.53085709  1  -1.271338  0  -0.236749  -0.601127  0  2.300935  0
O  O196  1  0.52629863  0.66975999  0.53035508  1  -1.267215  0  -0.234736  -0.598383  0  2.31186  0
O  O197  1  0.32682820  0.69232810  0.54140935  1  -1.286295  0  -0.2571  -0.623233  0  2.275846  0
O  O198  1  0.49214571  0.49754397  0.50079045  1  -1.61126  0  -0.391177  -1.262447  0  2.294212  0
O  O199  1  0.81386875  0.02238902  0.02913269  1  -1.245868  0  -0.213175  -0.556496  0  2.369701  0
O  O200  1  0.01350628  0.84078148  0.02653568  1  -1.24468  0  -0.21842  -0.574762  0  2.34232  0
O  O201  1  0.01649897  0.66684519  0.03309089  1  -1.279688  0  -0.250491  -0.618814  0  2.295541  0
O  O202  1  0.82709551  0.66320166  0.04095469  1  -1.276126  0  -0.235709  -0.599596  0  2.312588  0
O  O203  1  0.65940435  0.82069304  0.04085017  1  -1.278234  0  -0.241033  -0.608122  0  2.297983  0
O  O204  1  0.64416192  0.01899525  0.03073077  1  -1.270004  0  -0.250503  -0.618492  0  2.294292  0
O  O205  1  0.50155696  0.31474455  0.46838082  1  -1.243699  0  -0.223777  -0.583155  0  2.330912  0
O  O206  1  0.80783515  0.03298571  0.94469896  1  -1.244572  0  -0.210185  -0.54485  0  2.344789  0
O  O207  1  0.00049548  0.84314840  0.93913507  1  -1.242772  0  -0.217625  -0.56395  0  2.356308  0
O  O208  1  0.02258605  0.66394248  0.95435539  1  -1.283336  0  -0.257199  -0.631424  0  2.293574  0
O  O209  1  0.83349595  0.65674544  0.96222090  1  -1.274885  0  -0.239154  -0.605353  0  2.306874  0
O  O210  1  0.66492123  0.81232163  0.96157870  1  -1.270151  0  -0.237659  -0.600349  0  2.29176  0
O  O211  1  0.64645650  0.01087220  0.95189906  1  -1.280292  0  -0.252049  -0.617919  0  2.284962  0
O  O212  1  0.83674130  0.84590061  0.99218534  1  -1.605658  0  -0.390365  -1.261855  0  2.299474  0
O  O213  1  0.67236300  0.31851688  0.46065851  1  -1.270596  0  -0.248351  -0.612524  0  2.285363  0
O  O214  1  0.67303058  0.51020362  0.45225168  1  -1.279534  0  -0.237912  -0.604281  0  2.303289  0
O  O215  1  0.51284227  0.67563637  0.45186335  1  -1.273278  0  -0.238545  -0.603346  0  2.302897  0
O  O216  1  0.31621458  0.68633492  0.46262609  1  -1.274943  0  -0.250399  -0.618539  0  2.281748  0
O  O217  1  0.30269360  0.53266436  0.54577576  1  -1.256393  0  -0.220049  -0.573843  0  2.393008  0
O  O218  1  0.49273362  0.33146384  0.55313121  1  -1.250184  0  -0.223808  -0.584125  0  2.367032  0
O  O219  1  0.67067143  0.31641208  0.54012776  1  -1.280608  0  -0.251905  -0.61988  0  2.285952  0
O  O220  1  0.30855007  0.35326807  0.51941875  1  -1.370769  0  -0.578296  -0.997536  0  1.810376  0
O  O221  1  0.98640297  0.02406482  0.97548099  1  -1.370024  0  -0.582643  -0.998302  0  1.798159  0
