# generated using pymatgen
data_CdH2C2N3Cl
_symmetry_space_group_name_H-M   'P 1'
_cell_length_a   8.16061055
_cell_length_b   8.16060237
_cell_length_c   11.83496446
_cell_angle_alpha   91.85098406
_cell_angle_beta   91.85093143
_cell_angle_gamma   114.98071409
_symmetry_Int_Tables_number   1
_chemical_formula_structural   CdH2C2N3Cl
_chemical_formula_sum   'Cd6 H12 C12 N18 Cl6'
_cell_volume   713.13203412
_cell_formula_units_Z   6
loop_
 _symmetry_equiv_pos_site_id
 _symmetry_equiv_pos_as_xyz
  1  'x, y, z'
loop_
 _atom_site_type_symbol
 _atom_site_label
 _atom_site_symmetry_multiplicity
 _atom_site_fract_x
 _atom_site_fract_y
 _atom_site_fract_z
 _atom_site_occupancy
 _atom_site_hle17_bader_spin_density
 _atom_site_hle17_ddec_charge
 _atom_site_hle17_ddec_spin_density
 _atom_site_hle17_ddec_sum_bond_order
 _atom_site_hle17_magmom
 _atom_site_hse06_10hf_bader_spin_density
 _atom_site_hse06_10hf_ddec_charge
 _atom_site_hse06_10hf_ddec_spin_density
 _atom_site_hse06_10hf_ddec_sum_bond_order
 _atom_site_hse06_10hf_magmom
 _atom_site_hse06_bader_spin_density
 _atom_site_hse06_ddec_charge
 _atom_site_hse06_ddec_spin_density
 _atom_site_hse06_ddec_sum_bond_order
 _atom_site_hse06_magmom
 _atom_site_pbe_bader_spin_density
 _atom_site_pbe_cm5_charge
 _atom_site_pbe_ddec_charge
 _atom_site_pbe_ddec_spin_density
 _atom_site_pbe_ddec_sum_bond_order
 _atom_site_pbe_magmom
Cd  Cd0  1  0.37333037  0.62666847  0.74999948  1  0  0.969356  0  1.889356  0  0  0.777038  0  2.357314  0  0  0.824771  0  2.315514  0  0  0.684308  0.743288  0  2.385818  0
Cd  Cd1  1  0.62667002  0.37333060  0.24999941  1  0  0.969352  0  1.889372  0  0  0.777043  0  2.357327  0  0  0.824776  0  2.315524  0  0  0.684295  0.743293  0  2.385834  0
Cd  Cd2  1  0.87087403  0.44135146  0.64430626  1  0  0.949826  0  1.90271  0  0  0.759058  0  2.366484  0  0  0.806654  0  2.325649  0  0  0.680526  0.725432  0  2.394256  0
Cd  Cd3  1  0.55864675  0.12912398  0.85569331  1  0  0.949822  0  1.90272  0  0  0.759047  0  2.366503  0  0  0.806645  0  2.325665  0  0  0.680513  0.725422  0  2.394277  0
Cd  Cd4  1  0.12912571  0.55864897  0.35569350  1  0  0.949827  0  1.90272  0  0  0.759061  0  2.366493  0  0  0.806656  0  2.325659  0  0  0.680526  0.725435  0  2.394268  0
Cd  Cd5  1  0.44135242  0.87087510  0.14430725  1  0  0.949813  0  1.902719  0  0  0.759038  0  2.366496  0  0  0.80663  0  2.325666  0  0  0.680523  0.725411  0  2.394274  0
H  H6  1  0.59607051  0.72666117  0.48884720  1  0  0.108984  0  0.972829  0  0  0.117752  0  1.039509  0  0  0.119758  0  1.038324  0  0  0.106062  0.116162  0  1.040667  0
H  H7  1  0.27333832  0.40393020  0.01115172  1  0  0.108942  0  0.972776  0  0  0.117703  0  1.039476  0  0  0.11971  0  1.03829  0  0  0.10602  0.116114  0  1.040636  0
H  H8  1  0.40393038  0.27334197  0.51115348  1  0  0.109005  0  0.972892  0  0  0.117765  0  1.03959  0  0  0.119771  0  1.038406  0  0  0.106067  0.116175  0  1.040747  0
H  H9  1  0.72666264  0.59607022  0.98884721  1  0  0.108951  0  0.972765  0  0  0.117706  0  1.039473  0  0  0.119713  0  1.038285  0  0  0.106032  0.116117  0  1.040633  0
H  H10  1  0.80744319  0.08795886  0.44148883  1  0  0.108512  0  0.992207  0  0  0.114155  0  1.059803  0  0  0.115648  0  1.060531  0  0  0.117177  0.113087  0  1.059359  0
H  H11  1  0.91204196  0.19256003  0.05851160  1  0  0.108463  0  0.99227  0  0  0.11414  0  1.059805  0  0  0.115629  0  1.060536  0  0  0.117178  0.113072  0  1.059362  0
H  H12  1  0.19255770  0.91204428  0.55851185  1  0  0.108458  0  0.992287  0  0  0.114144  0  1.059808  0  0  0.115636  0  1.060536  0  0  0.11717  0.113075  0  1.059364  0
H  H13  1  0.08796015  0.80744311  0.94148827  1  0  0.108518  0  0.9922  0  0  0.11416  0  1.059798  0  0  0.115651  0  1.060529  0  0  0.117176  0.113091  0  1.059356  0
H  H14  1  0.84108645  0.85795361  0.70193836  1  0  0.108231  0  0.997389  0  0  0.114497  0  1.063249  0  0  0.116208  0  1.063708  0  0  0.115314  0.113195  0  1.063137  0
H  H15  1  0.14204513  0.15891187  0.79806220  1  0  0.108261  0  0.997332  0  0  0.114483  0  1.063264  0  0  0.116194  0  1.063722  0  0  0.115311  0.113185  0  1.063139  0
H  H16  1  0.15891092  0.14204412  0.29806213  1  0  0.108276  0  0.997322  0  0  0.114505  0  1.063237  0  0  0.116216  0  1.063696  0  0  0.11532  0.113204  0  1.063121  0
H  H17  1  0.85795289  0.84108451  0.20193912  1  0  0.108214  0  0.997401  0  0  0.114479  0  1.063267  0  0  0.11619  0  1.063727  0  0  0.115306  0.113179  0  1.063153  0
C  C18  1  0.62674428  0.85115639  0.53808854  1  0  -0.003289  0  3.7183  0  0  -0.041015  0  3.98829  0  0  -0.038855  0  4.005488  0  0  0.005271  -0.042494  0  3.976799  0
C  C19  1  0.14884323  0.37325997  0.96191139  1  0  -0.003289  0  3.718266  0  0  -0.041015  0  3.988256  0  0  -0.038854  0  4.005452  0  0  0.005276  -0.042494  0  3.976769  0
C  C20  1  0.37325604  0.14884540  0.46191210  1  0  -0.003323  0  3.718358  0  0  -0.041054  0  3.988338  0  0  -0.038894  0  4.005535  0  0  0.005268  -0.042532  0  3.976846  0
C  C21  1  0.85115767  0.62674317  0.03808929  1  0  -0.003165  0  3.718214  0  0  -0.040883  0  3.988191  0  0  -0.038723  0  4.005388  0  0  0.005336  -0.042362  0  3.976704  0
C  C22  1  0.73107771  0.02963060  0.51420204  1  0  0.012384  0  3.690179  0  0  -0.025676  0  3.959355  0  0  -0.022925  0  3.976961  0  0  0.00839  -0.027582  0  3.947457  0
C  C23  1  0.97036985  0.26892611  0.98579846  1  0  0.012451  0  3.690246  0  0  -0.025619  0  3.959395  0  0  -0.022867  0  3.977  0  0  0.008392  -0.027525  0  3.947502  0
C  C24  1  0.26892261  0.97037118  0.48579776  1  0  0.012409  0  3.69022  0  0  -0.025667  0  3.959378  0  0  -0.022916  0  3.976986  0  0  0.008391  -0.02757  0  3.94748  0
C  C25  1  0.02963104  0.73107703  0.01420222  1  0  0.012368  0  3.6902  0  0  -0.025697  0  3.959374  0  0  -0.022946  0  3.976982  0  0  0.008397  -0.0276  0  3.947479  0
C  C26  1  0.97641882  0.87521598  0.72623978  1  0  -0.001505  0  3.70518  0  0  -0.035287  0  3.967207  0  0  -0.032846  0  3.983826  0  0  0.006852  -0.037003  0  3.956105  0
C  C27  1  0.12478305  0.02357920  0.77376076  1  0  -0.001495  0  3.70512  0  0  -0.03525  0  3.967153  0  0  -0.032808  0  3.983773  0  0  0.006855  -0.036964  0  3.956054  0
C  C28  1  0.02357855  0.12478175  0.27376072  1  0  -0.001501  0  3.705242  0  0  -0.035253  0  3.967272  0  0  -0.032811  0  3.983893  0  0  0.006845  -0.036967  0  3.956171  0
C  C29  1  0.87521676  0.97641852  0.22623979  1  0  -0.001512  0  3.705206  0  0  -0.035296  0  3.967232  0  0  -0.032856  0  3.983854  0  0  0.006853  -0.037012  0  3.956133  0
N  N30  1  0.20048142  0.79951793  0.74999955  1  0  -0.136473  0  3.220212  0  0  -0.093243  0  3.502148  0  0  -0.100751  0  3.523243  0  0  -0.146414  -0.088036  0  3.487683  0
N  N31  1  0.79951897  0.20048114  0.25000019  1  0  -0.136478  0  3.220288  0  0  -0.093277  0  3.502258  0  0  -0.100783  0  3.523351  0  0  -0.146421  -0.088069  0  3.487795  0
N  N32  1  0.02808655  0.73891817  0.71229335  1  0  -0.256763  0  3.272118  0  0  -0.189152  0  3.546342  0  0  -0.204053  0  3.567071  0  0  -0.248524  -0.178727  0  3.532017  0
N  N33  1  0.26108130  0.97191218  0.78770661  1  0  -0.256771  0  3.272141  0  0  -0.189153  0  3.546345  0  0  -0.204053  0  3.567074  0  0  -0.24851  -0.178729  0  3.532022  0
N  N34  1  0.97191203  0.26107955  0.28770548  1  0  -0.2568  0  3.272286  0  0  -0.189175  0  3.546491  0  0  -0.204077  0  3.56722  0  0  -0.248511  -0.17875  0  3.532168  0
N  N35  1  0.73891909  0.02808689  0.21229313  1  0  -0.256707  0  3.272089  0  0  -0.189081  0  3.546297  0  0  -0.20398  0  3.567026  0  0  -0.248501  -0.178655  0  3.531976  0
N  N36  1  0.72731546  0.13379192  0.60443816  1  0  -0.248839  0  3.265218  0  0  -0.179989  0  3.542205  0  0  -0.195252  0  3.563806  0  0  -0.244781  -0.169315  0  3.527205  0
N  N37  1  0.86620950  0.27268773  0.89556322  1  0  -0.24889  0  3.265299  0  0  -0.180042  0  3.542294  0  0  -0.195304  0  3.563894  0  0  -0.244775  -0.169368  0  3.527297  0
N  N38  1  0.27268428  0.86620851  0.39556244  1  0  -0.248825  0  3.265239  0  0  -0.179988  0  3.542237  0  0  -0.195252  0  3.563841  0  0  -0.244789  -0.169314  0  3.527239  0
N  N39  1  0.13379262  0.72731541  0.10443833  1  0  -0.248845  0  3.265201  0  0  -0.179983  0  3.542174  0  0  -0.195247  0  3.563777  0  0  -0.244772  -0.16931  0  3.527178  0
N  N40  1  0.56497586  0.85330565  0.64270468  1  0  -0.262938  0  3.27455  0  0  -0.193659  0  3.550135  0  0  -0.209203  0  3.571835  0  0  -0.24976  -0.182774  0  3.535023  0
N  N41  1  0.14669496  0.43502291  0.85729349  1  0  -0.262898  0  3.274573  0  0  -0.193604  0  3.550125  0  0  -0.209147  0  3.571827  0  0  -0.249721  -0.182718  0  3.535015  0
N  N42  1  0.43502331  0.14669343  0.35729504  1  0  -0.262945  0  3.274542  0  0  -0.193662  0  3.550115  0  0  -0.209205  0  3.571814  0  0  -0.249763  -0.182776  0  3.535005  0
N  N43  1  0.85330607  0.56497480  0.14270539  1  0  -0.262984  0  3.274612  0  0  -0.193699  0  3.550187  0  0  -0.209243  0  3.571889  0  0  -0.249777  -0.182813  0  3.53508  0
N  N44  1  0.62684914  0.02549993  0.68151165  1  0  -0.126924  0  3.20103  0  0  -0.083367  0  3.48007  0  0  -0.091133  0  3.502193  0  0  -0.143807  -0.077833  0  3.46468  0
N  N45  1  0.97450080  0.37315121  0.81848712  1  0  -0.126927  0  3.201132  0  0  -0.083372  0  3.480158  0  0  -0.091139  0  3.502284  0  0  -0.143815  -0.077836  0  3.464769  0
N  N46  1  0.37315002  0.97449914  0.31848806  1  0  -0.126925  0  3.201073  0  0  -0.083359  0  3.480095  0  0  -0.091124  0  3.502221  0  0  -0.143794  -0.077826  0  3.464709  0
N  N47  1  0.02550017  0.62684922  0.18151266  1  0  -0.126952  0  3.2011  0  0  -0.083402  0  3.480138  0  0  -0.091167  0  3.502264  0  0  -0.14383  -0.077867  0  3.464752  0
Cl  Cl48  1  0.18279425  0.44735363  0.55747022  1  0  -0.532187  0  1.041254  0  0  -0.461975  0  1.348688  0  0  -0.480174  0  1.324384  0  0  -0.276743  -0.448763  0  1.365224  0
Cl  Cl49  1  0.55264496  0.81720466  0.94252959  1  0  -0.532197  0  1.041259  0  0  -0.46198  0  1.348684  0  0  -0.480183  0  1.324382  0  0  -0.276747  -0.448768  0  1.365222  0
Cl  Cl50  1  0.81720614  0.55264544  0.44252867  1  0  -0.532185  0  1.041238  0  0  -0.461977  0  1.348674  0  0  -0.480176  0  1.324369  0  0  -0.276747  -0.448764  0  1.36521  0
Cl  Cl51  1  0.44735420  0.18279442  0.05747013  1  0  -0.532188  0  1.041261  0  0  -0.461977  0  1.348695  0  0  -0.480177  0  1.324392  0  0  -0.276742  -0.448763  0  1.365233  0
Cl  Cl52  1  0.57093449  0.42906423  0.75000026  1  0  -0.543856  0  0.97834  0  0  -0.474476  0  1.285517  0  0  -0.49167  0  1.25968  0  0  -0.289855  -0.462031  0  1.303312  0
Cl  Cl53  1  0.42906468  0.57093484  0.25000030  1  0  -0.543846  0  0.978329  0  0  -0.474472  0  1.285508  0  0  -0.491663  0  1.259666  0  0  -0.289851  -0.462026  0  1.303304  0
