# generated using pymatgen
data_Zn4H20C40O21
_symmetry_space_group_name_H-M   'P 1'
_cell_length_a   23.76506188
_cell_length_b   23.76635236
_cell_length_c   23.76487017
_cell_angle_alpha   66.37531187
_cell_angle_beta   72.56996644
_cell_angle_gamma   107.43856574
_symmetry_Int_Tables_number   1
_chemical_formula_structural   Zn4H20C40O21
_chemical_formula_sum   'Zn8 H40 C80 O42'
_cell_volume   10291.93130870
_cell_formula_units_Z   2
loop_
 _symmetry_equiv_pos_site_id
 _symmetry_equiv_pos_as_xyz
  1  'x, y, z'
loop_
 _atom_site_type_symbol
 _atom_site_label
 _atom_site_symmetry_multiplicity
 _atom_site_fract_x
 _atom_site_fract_y
 _atom_site_fract_z
 _atom_site_occupancy
 _atom_site_pbe_bader_charge
 _atom_site_pbe_bader_spin_density
 _atom_site_pbe_cm5_charge
 _atom_site_pbe_ddec_charge
 _atom_site_pbe_ddec_spin_density
 _atom_site_pbe_ddec_sum_bond_order
 _atom_site_pbe_magmom
Zn  Zn0  1  0.05713464  0.95659721  0.48627815  1  1.315955  0  0.672077  0.962128  0  2.378111  0
Zn  Zn1  1  0.05713307  0.10053819  0.45659891  1  1.315189  0  0.672033  0.961944  0  2.378382  0
Zn  Zn2  1  0.94286001  0.98627487  0.45659146  1  1.315638  0  0.672029  0.961932  0  2.378221  0
Zn  Zn3  1  0.94287661  0.95659375  0.60054146  1  1.315277  0  0.672085  0.962037  0  2.378189  0
Zn  Zn4  1  0.94286569  0.54340272  0.01372148  1  1.315948  0  0.672083  0.962117  0  2.378068  0
Zn  Zn5  1  0.05714145  0.51372566  0.04340801  1  1.315809  0  0.672038  0.961899  0  2.378259  0
Zn  Zn6  1  0.94286604  0.39946039  0.04340651  1  1.315191  0  0.671995  0.961799  0  2.37849  0
Zn  Zn7  1  0.05712115  0.54340047  0.89945997  1  1.315415  0  0.672084  0.96209  0  2.37811  0
H  H8  1  0.92363380  0.79833642  0.77802719  1  0.115715  0  0.109576  0.115312  0  0.991349  0
H  H9  1  0.07636832  0.70166321  0.72197203  1  0.115887  0  0.109575  0.115325  0  0.991357  0
H  H10  1  0.92362951  0.70166054  0.87470360  1  0.114155  0  0.109586  0.115347  0  0.991357  0
H  H11  1  0.07637238  0.79833938  0.62529559  1  0.114106  0  0.109654  0.115464  0  0.991466  0
H  H12  1  0.92362906  0.12530012  0.29832340  1  0.114019  0  0.109622  0.115358  0  0.991649  0
H  H13  1  0.07637202  0.37470097  0.20167791  1  0.113969  0  0.109593  0.115343  0  0.991754  0
H  H14  1  0.92363511  0.22197775  0.20165039  1  0.116278  0  0.109667  0.115413  0  0.991373  0
H  H15  1  0.07636688  0.27802321  0.29835026  1  0.116232  0  0.109657  0.115419  0  0.991369  0
H  H16  1  0.92289010  0.65209738  0.11218555  1  0.122706  0  0.11756  0.148725  0  0.978507  0
H  H17  1  0.07710857  0.61217718  0.15213513  1  0.123106  0  0.117481  0.148735  0  0.97853  0
H  H18  1  0.92288837  0.88781621  0.34786897  1  0.12299  0  0.117443  0.148683  0  0.978479  0
H  H19  1  0.07705990  0.84783893  0.38787854  1  0.123466  0  0.117368  0.148658  0  0.978563  0
H  H20  1  0.07711819  0.46490103  0.77079934  1  0.128444  0  0.117516  0.148732  0  0.978638  0
H  H21  1  0.92289739  0.27076167  0.96493865  1  0.127867  0  0.117437  0.148607  0  0.978606  0
H  H22  1  0.07706391  0.22922735  0.53507355  1  0.128065  0  0.117394  0.148683  0  0.978655  0
H  H23  1  0.92289056  0.03507573  0.72922367  1  0.128008  0  0.117505  0.148718  0  0.978529  0
H  H24  1  0.73570443  0.46492035  0.11215685  1  0.123662  0  0.117443  0.148703  0  0.978544  0
H  H25  1  0.73569779  0.27076652  0.15213911  1  0.12363  0  0.117475  0.14865  0  0.978573  0
H  H26  1  0.26430300  0.22923587  0.34785797  1  0.123122  0  0.117404  0.148585  0  0.978653  0
H  H27  1  0.26429803  0.03509647  0.38777592  1  0.1241  0  0.117537  0.148725  0  0.978532  0
H  H28  1  0.26430769  0.61214155  0.96491635  1  0.123702  0  0.117382  0.148644  0  0.978515  0
H  H29  1  0.26429152  0.65212876  0.77075685  1  0.123328  0  0.117415  0.148503  0  0.978574  0
H  H30  1  0.73571162  0.84786876  0.72923913  1  0.123522  0  0.117433  0.148545  0  0.978537  0
H  H31  1  0.73569320  0.88779191  0.53509403  1  0.124041  0  0.117534  0.148778  0  0.978534  0
H  H32  1  0.08022845  0.70049073  0.24210888  1  0.572825  0  0.317664  0.339755  0  0.926701  0
H  H33  1  0.91975562  0.74206663  0.20050325  1  0.572087  0  0.317447  0.339354  0  0.926928  0
H  H34  1  0.08017230  0.75783807  0.29959395  1  0.572147  0  0.317429  0.33939  0  0.927006  0
H  H35  1  0.91978653  0.79952653  0.25787229  1  0.572127  0  0.317675  0.339865  0  0.926621  0
H  H36  1  0.91976525  0.17766637  0.87974537  1  0.571212  0  0.317522  0.339497  0  0.926819  0
H  H37  1  0.08024085  0.37971197  0.67769977  1  0.572496  0  0.317442  0.339462  0  0.927002  0
H  H38  1  0.91978959  0.12025767  0.82233007  1  0.571425  0  0.317569  0.339493  0  0.926747  0
H  H39  1  0.08017621  0.32232953  0.62025912  1  0.5707  0  0.317629  0.339707  0  0.926665  0
H  H40  1  0.55741081  0.17766610  0.24213040  1  0.572  0  0.317591  0.339725  0  0.926657  0
H  H41  1  0.55741686  0.37973962  0.20044425  1  0.607771  0  0.3176  0.339683  0  0.926775  0
H  H42  1  0.44258642  0.12028491  0.29945995  1  0.607689  0  0.317483  0.339452  0  0.926969  0
H  H43  1  0.44258971  0.32233176  0.25788793  1  0.571634  0  0.317672  0.339738  0  0.926637  0
H  H44  1  0.44257700  0.74212515  0.67765581  1  0.571869  0  0.317561  0.33948  0  0.927098  0
H  H45  1  0.44259419  0.70042738  0.87973947  1  0.60765  0  0.317525  0.339562  0  0.926978  0
H  H46  1  0.55740544  0.79947703  0.62028200  1  0.607455  0  0.317571  0.339516  0  0.927014  0
H  H47  1  0.55742513  0.75789544  0.82233760  1  0.572011  0  0.317534  0.33952  0  0.927048  0
C  C48  1  0.18216300  0.09109395  0.40890854  1  1.558229  0  0.229688  0.605076  0  4.155547  0
C  C49  1  0.99999546  0.13887304  0.36112609  1  1.560394  0  0.228365  0.604427  0  4.168348  0
C  C50  1  0.99998426  0.90891469  0.40892775  1  1.535787  0  0.229728  0.605084  0  4.155267  0
C  C51  1  0.81784038  0.90890766  0.59109532  1  1.55768  0  0.229759  0.60504  0  4.155435  0
C  C52  1  0.00000753  0.86112713  0.63887510  1  1.560188  0  0.228486  0.604698  0  4.167281  0
C  C53  1  0.99999247  0.09107983  0.59108387  1  1.54901  0  0.229803  0.605177  0  4.155606  0
C  C54  1  0.00000358  0.59107113  0.09108757  1  1.536146  0  0.229815  0.605099  0  4.155201  0
C  C55  1  0.00000336  0.36112684  0.13887722  1  1.559349  0  0.228324  0.604383  0  4.168181  0
C  C56  1  0.81783834  0.40891164  0.09107574  1  1.558295  0  0.22984  0.605266  0  4.155223  0
C  C57  1  0.99999391  0.40890203  0.90893402  1  1.559056  0  0.229733  0.605014  0  4.155489  0
C  C58  1  0.99999416  0.63887206  0.86112402  1  1.560547  0  0.228514  0.604836  0  4.167335  0
C  C59  1  0.18215980  0.59107327  0.90890689  1  1.557768  0  0.229731  0.6051  0  4.155239  0
C  C60  1  0.00000372  0.80368707  0.69631249  1  0.008216  0  -0.013039  -0.029487  0  3.963615  0
C  C61  1  0.99999797  0.69631213  0.80368704  1  0.007777  0  -0.013038  -0.029763  0  3.963814  0
C  C62  1  0.95680092  0.77672380  0.76647433  1  -0.072747  0  -0.078261  -0.09031  0  3.967824  0
C  C63  1  0.04320121  0.72327583  0.73352490  1  -0.072051  0  -0.078273  -0.090209  0  3.967774  0
C  C64  1  0.95679839  0.72327417  0.81992339  1  -0.051322  0  -0.078297  -0.090445  0  3.967938  0
C  C65  1  0.04320374  0.77672546  0.68007541  1  -0.051537  0  -0.07837  -0.090751  0  3.968084  0
C  C66  1  0.99999775  0.19631106  0.30368828  1  0.00835  0  -0.012912  -0.02935  0  3.963588  0
C  C67  1  0.00000333  0.30369002  0.19631387  1  0.008622  0  -0.013022  -0.029499  0  3.963654  0
C  C68  1  0.95679695  0.18007640  0.27671758  1  -0.051297  0  -0.078434  -0.090704  0  3.968319  0
C  C69  1  0.04320388  0.31992497  0.22328326  1  -0.05153  0  -0.078367  -0.090655  0  3.968505  0
C  C70  1  0.95680076  0.23352835  0.22326931  1  -0.073682  0  -0.078334  -0.090343  0  3.967881  0
C  C71  1  0.04319943  0.26647185  0.27673177  1  -0.072871  0  -0.078363  -0.090434  0  3.968063  0
C  C72  1  0.99999988  0.62868923  0.12871044  1  0.011025  0  -0.011958  0.011579  0  4.020122  0
C  C73  1  0.95642346  0.65718223  0.13463267  1  0.041982  0  -0.104312  -0.242467  0  3.955151  0
C  C74  1  0.95641465  0.69211807  0.16953777  1  0.49173  0  0.089312  0.298109  0  4.069239  0
C  C75  1  0.99999439  0.69907340  0.19910225  1  0.115505  0  -0.037604  -0.130436  0  4.149946  0
C  C76  1  0.04357687  0.66952190  0.19215207  1  0.491493  0  0.089427  0.298299  0  4.069347  0
C  C77  1  0.04357369  0.63461815  0.15721297  1  0.040851  0  -0.104117  -0.242317  0  3.954889  0
C  C78  1  0.99998594  0.73450307  0.23454703  1  -0.375526  0  -0.052054  -0.118928  0  4.237657  0
C  C79  1  0.99997973  0.76544656  0.26550311  1  -0.170009  0  -0.052056  -0.118786  0  4.237786  0
C  C80  1  0.99997668  0.80088427  0.30093970  1  0.116202  0  -0.037437  -0.130253  0  4.150045  0
C  C81  1  0.95641035  0.83045700  0.30786787  1  0.491542  0  0.089214  0.29799  0  4.069464  0
C  C82  1  0.95641320  0.86536305  0.34280489  1  0.041279  0  -0.104046  -0.242101  0  3.954971  0
C  C83  1  0.99997756  0.87128196  0.37131761  1  0.010585  0  -0.011978  0.011364  0  4.020209  0
C  C84  1  0.04353815  0.84276729  0.36541930  1  0.042327  0  -0.10384  -0.24204  0  3.954731  0
C  C85  1  0.04354116  0.80782197  0.33052056  1  0.489841  0  0.089302  0.29811  0  4.069377  0
C  C86  1  0.00000406  0.37128019  0.87131546  1  0.021824  0  -0.011843  0.011349  0  4.020556  0
C  C87  1  0.04358249  0.40892762  0.79924703  1  0.03225  0  -0.104165  -0.242336  0  3.955444  0
C  C88  1  0.04358669  0.37402865  0.76430423  1  0.498762  0  0.089436  0.298431  0  4.069181  0
C  C89  1  0.00000172  0.30089468  0.80092851  1  0.108186  0  -0.037514  -0.130437  0  4.149808  0
C  C90  1  0.95642321  0.26426733  0.87406476  1  0.490627  0  0.089366  0.298128  0  4.069434  0
C  C91  1  0.95643087  0.29921075  0.90896400  1  0.030712  0  -0.104105  -0.242003  0  3.955202  0
C  C92  1  0.99999492  0.26545991  0.76549021  1  -0.37347  0  -0.052057  -0.118754  0  4.237637  0
C  C93  1  0.99999014  0.23452061  0.73453072  1  -0.16722  0  -0.052058  -0.118903  0  4.237729  0
C  C94  1  0.99998445  0.19908831  0.69908913  1  0.098907  0  -0.037472  -0.130227  0  4.150029  0
C  C95  1  0.04354622  0.23571987  0.62595035  1  0.49982  0  0.089291  0.298043  0  4.069684  0
C  C96  1  0.04354130  0.20077709  0.59104961  1  0.031439  0  -0.104076  -0.242248  0  3.95519  0
C  C97  1  0.99998035  0.12870104  0.62870299  1  0.021817  0  -0.011941  0.011286  0  4.020632  0
C  C98  1  0.95641507  0.09105261  0.70077333  1  0.031692  0  -0.104095  -0.242122  0  3.955437  0
C  C99  1  0.95641252  0.12595062  0.73571686  1  0.498676  0  0.089277  0.298019  0  4.069526  0
C  C100  1  0.74259762  0.37129133  0.12870024  1  -0.014153  0  -0.011998  0.011286  0  4.020418  0
C  C101  1  0.70817717  0.40894342  0.13461177  1  0.024365  0  -0.104049  -0.242181  0  3.95512  0
C  C102  1  0.63833473  0.37404590  0.16951345  1  0.505813  0  0.089209  0.297575  0  4.069679  0
C  C103  1  0.60182432  0.30090905  0.19908293  1  0.111174  0  -0.037579  -0.129088  0  4.148334  0
C  C104  1  0.63833156  0.26427659  0.19214859  1  0.516641  0  0.089331  0.297679  0  4.069326  0
C  C105  1  0.70817343  0.29921867  0.15721083  1  0.020249  0  -0.104107  -0.242126  0  3.95539  0
C  C106  1  0.53095003  0.26547685  0.23450833  1  -0.105611  0  -0.051986  -0.119266  0  4.237302  0
C  C107  1  0.46905175  0.23453975  0.26544324  1  -0.420513  0  -0.052092  -0.119174  0  4.23761  0
C  C108  1  0.39817783  0.19910423  0.30087784  1  0.112174  0  -0.037403  -0.129122  0  4.148389  0
C  C109  1  0.36167057  0.23573190  0.30783094  1  0.516534  0  0.089281  0.297572  0  4.069545  0
C  C110  1  0.29182610  0.20078616  0.34277177  1  0.02081  0  -0.104118  -0.242093  0  3.955314  0
C  C111  1  0.25740295  0.12871615  0.37127047  1  -0.015447  0  -0.011866  0.011336  0  4.020579  0
C  C112  1  0.29182498  0.09106991  0.36533636  1  0.02593  0  -0.10417  -0.242355  0  3.955432  0
C  C113  1  0.36166641  0.12596956  0.33043035  1  0.505279  0  0.089366  0.298024  0  4.068924  0
C  C114  1  0.25740162  0.62868945  0.87128496  1  -0.014516  0  -0.01192  0.011295  0  4.020297  0
C  C115  1  0.29182877  0.63459592  0.90893973  1  0.053512  0  -0.104082  -0.242251  0  3.954935  0
C  C116  1  0.36167201  0.66949630  0.87404257  1  0.477623  0  0.089363  0.297803  0  4.069361  0
C  C117  1  0.39817726  0.69907092  0.80090231  1  0.111578  0  -0.037476  -0.12924  0  4.148407  0
C  C118  1  0.36166138  0.69213660  0.76427043  1  0.516329  0  0.089277  0.2977  0  4.069118  0
C  C119  1  0.29182001  0.65719867  0.79921270  1  0.020055  0  -0.104076  -0.241896  0  3.95502  0
C  C120  1  0.46905154  0.73450313  0.76547102  1  -0.426401  0  -0.052145  -0.119322  0  4.237345  0
C  C121  1  0.53095124  0.76545001  0.73453852  1  -0.099866  0  -0.052004  -0.119012  0  4.237372  0
C  C122  1  0.60182361  0.80088922  0.69910586  1  0.112387  0  -0.037519  -0.129367  0  4.148412  0
C  C123  1  0.63834105  0.80784554  0.73573188  1  0.516147  0  0.089234  0.297679  0  4.069172  0
C  C124  1  0.70818214  0.84278475  0.70078793  1  0.020141  0  -0.104081  -0.241941  0  3.955008  0
C  C125  1  0.74259901  0.87128146  0.62871731  1  -0.015212  0  -0.011895  0.011319  0  4.020579  0
C  C126  1  0.70817263  0.86535218  0.59106929  1  0.025806  0  -0.104143  -0.242359  0  3.955412  0
C  C127  1  0.63832917  0.83044633  0.62596786  1  0.505244  0  0.089332  0.297976  0  4.068979  0
O  O128  1  0.99999988  0.00000062  0.50000071  1  -1.230668  0  -0.571105  -1.027853  0  2.534293  0
O  O129  1  0.15317994  0.02544578  0.43386577  1  -1.167781  0  -0.313283  -0.543259  0  2.336256  0
O  O130  1  0.04050137  0.15718465  0.38331795  1  -1.173903  0  -0.314292  -0.546865  0  2.341685  0
O  O131  1  0.95929195  0.93386723  0.41294915  1  -1.16519  0  -0.313063  -0.542889  0  2.336341  0
O  O132  1  0.15318263  0.12775544  0.41294989  1  -1.164442  0  -0.313072  -0.542866  0  2.336529  0
O  O133  1  0.04068375  0.91294965  0.43387893  1  -1.165403  0  -0.313336  -0.543333  0  2.336177  0
O  O134  1  0.95948650  0.07618107  0.38331417  1  -1.172204  0  -0.314047  -0.546535  0  2.341958  0
O  O135  1  0.84681735  0.93386034  0.52544785  1  -1.167752  0  -0.313348  -0.543267  0  2.336455  0
O  O136  1  0.95950836  0.88331856  0.65718901  1  -1.174013  0  -0.314283  -0.546946  0  2.341102  0
O  O137  1  0.84682553  0.91294028  0.62776200  1  -1.163642  0  -0.313126  -0.542915  0  2.336269  0
O  O138  1  0.04051127  0.88331811  0.57618208  1  -1.172138  0  -0.314159  -0.546743  0  2.341636  0
O  O139  1  0.04068790  0.12774625  0.52543746  1  -1.170469  0  -0.313301  -0.543218  0  2.336342  0
O  O140  1  0.95930830  0.02543294  0.62775047  1  -1.170971  0  -0.313141  -0.542993  0  2.336589  0
O  O141  1  0.00000036  0.49999858  0.00000033  1  -1.230554  0  -0.571066  -1.027801  0  2.534284  0
O  O142  1  0.95930546  0.58703650  0.06613501  1  -1.166115  0  -0.313369  -0.543322  0  2.336272  0
O  O143  1  0.04051321  0.42381969  0.11668768  1  -1.17154  0  -0.314029  -0.546506  0  2.341832  0
O  O144  1  0.84681747  0.37224678  0.08704705  1  -1.164374  0  -0.313167  -0.54301  0  2.336441  0
O  O145  1  0.04070543  0.56612660  0.08705548  1  -1.165074  0  -0.313045  -0.542875  0  2.336169  0
O  O146  1  0.84681983  0.47455877  0.06611898  1  -1.168014  0  -0.31326  -0.543216  0  2.33614  0
O  O147  1  0.95949585  0.34281518  0.11668838  1  -1.173489  0  -0.314263  -0.546789  0  2.341641  0
O  O148  1  0.95929935  0.37223834  0.97457838  1  -1.171026  0  -0.31304  -0.542796  0  2.336483  0
O  O149  1  0.04049181  0.61667859  0.84281180  1  -1.174191  0  -0.314235  -0.546902  0  2.341267  0
O  O150  1  0.04068172  0.47455130  0.87226552  1  -1.180313  0  -0.313313  -0.543239  0  2.336449  0
O  O151  1  0.95949194  0.61668313  0.92381661  1  -1.172075  0  -0.314213  -0.546843  0  2.341457  0
O  O152  1  0.15318427  0.56612465  0.97455273  1  -1.167818  0  -0.313256  -0.543176  0  2.336404  0
O  O153  1  0.15317404  0.58704423  0.87224065  1  -1.163863  0  -0.313157  -0.542979  0  2.335997  0
O  O154  1  0.08636635  0.67469394  0.21958447  1  -1.094734  0  -0.34834  -0.420355  0  2.241498  0
O  O155  1  0.91361893  0.71953783  0.17470741  1  -1.09342  0  -0.348052  -0.41979  0  2.241462  0
O  O156  1  0.08631924  0.78037977  0.32537653  1  -1.09274  0  -0.348175  -0.419996  0  2.241644  0
O  O157  1  0.91363299  0.82530237  0.28041900  1  -1.093978  0  -0.348268  -0.420374  0  2.241429  0
O  O158  1  0.91363041  0.19405279  0.91168110  1  -1.094949  0  -0.348204  -0.420058  0  2.24152  0
O  O159  1  0.08638371  0.41164517  0.69408894  1  -1.096172  0  -0.348203  -0.420166  0  2.241597  0
O  O160  1  0.91363228  0.08832889  0.80593591  1  -1.094939  0  -0.348184  -0.41995  0  2.24144  0
O  O161  1  0.08632388  0.30593866  0.58832719  1  -1.09418  0  -0.348247  -0.420171  0  2.241454  0
O  O162  1  0.60573296  0.19405807  0.21958849  1  -1.095682  0  -0.348169  -0.420182  0  2.241523  0
O  O163  1  0.60573975  0.41166927  0.17466628  1  -1.13101  0  -0.348214  -0.420172  0  2.241756  0
O  O164  1  0.39426318  0.08835279  0.32524911  1  -1.131184  0  -0.348254  -0.420133  0  2.241625  0
O  O165  1  0.39426759  0.30594458  0.28041025  1  -1.095605  0  -0.348262  -0.42015  0  2.241681  0
O  O166  1  0.39425464  0.71958163  0.69404955  1  -1.095606  0  -0.348183  -0.420014  0  2.241976  0
O  O167  1  0.39427076  0.67464539  0.91166949  1  -1.131062  0  -0.348188  -0.420081  0  2.241736  0
O  O168  1  0.60572814  0.82527035  0.58834937  1  -1.130743  0  -0.348205  -0.420085  0  2.241682  0
O  O169  1  0.60574808  0.78042017  0.80594821  1  -1.095902  0  -0.348135  -0.42004  0  2.241816  0
