# generated using pymatgen
data_CdH20C19(NO)4
_symmetry_space_group_name_H-M   'P 1'
_cell_length_a   9.74899473
_cell_length_b   10.09138276
_cell_length_c   12.04850272
_cell_angle_alpha   103.94499965
_cell_angle_beta   109.85185964
_cell_angle_gamma   97.34367263
_symmetry_Int_Tables_number   1
_chemical_formula_structural   CdH20C19(NO)4
_chemical_formula_sum   'Cd2 H40 C38 N8 O8'
_cell_volume   1053.11695352
_cell_formula_units_Z   2
loop_
 _symmetry_equiv_pos_site_id
 _symmetry_equiv_pos_as_xyz
  1  'x, y, z'
loop_
 _atom_site_type_symbol
 _atom_site_label
 _atom_site_symmetry_multiplicity
 _atom_site_fract_x
 _atom_site_fract_y
 _atom_site_fract_z
 _atom_site_occupancy
 _atom_site_hle17_bader_spin_density
 _atom_site_hle17_ddec_charge
 _atom_site_hle17_ddec_spin_density
 _atom_site_hle17_ddec_sum_bond_order
 _atom_site_hle17_magmom
 _atom_site_hse06_10hf_bader_spin_density
 _atom_site_hse06_10hf_ddec_charge
 _atom_site_hse06_10hf_ddec_spin_density
 _atom_site_hse06_10hf_ddec_sum_bond_order
 _atom_site_hse06_10hf_magmom
 _atom_site_hse06_bader_spin_density
 _atom_site_hse06_ddec_charge
 _atom_site_hse06_ddec_spin_density
 _atom_site_hse06_ddec_sum_bond_order
 _atom_site_hse06_magmom
 _atom_site_pbe_bader_spin_density
 _atom_site_pbe_cm5_charge
 _atom_site_pbe_ddec_charge
 _atom_site_pbe_ddec_spin_density
 _atom_site_pbe_ddec_sum_bond_order
 _atom_site_pbe_magmom
Cd  Cd0  1  0.43188034  0.02275604  0.33916196  1  0  1.128055  0  1.669428  0  0  0.922596  0  2.131557  0  0  0.981154  0  2.078907  0  0  0.782316  0.877061  0  2.171338  0
Cd  Cd1  1  0.56812323  0.97724554  0.66084157  1  0  1.128038  0  1.669428  0  0  0.922576  0  2.131551  0  0  0.981128  0  2.078902  0  0  0.782349  0.877042  0  2.171329  0
H  H2  1  0.25659209  0.73973688  0.14293429  1  0  0.300244  0  0.955584  0  0  0.280003  0  1.021908  0  0  0.288426  0  1.014825  0  0  0.31181  0.274127  0  1.026693  0
H  H3  1  0.74341024  0.26025942  0.85706455  1  0  0.30015  0  0.95576  0  0  0.280028  0  1.021919  0  0  0.288454  0  1.014827  0  0  0.311804  0.274151  0  1.026706  0
H  H4  1  0.37920867  0.47283743  0.33264257  1  0  0.113951  0  0.939376  0  0  0.121702  0  1.002355  0  0  0.126004  0  0.998856  0  0  0.109032  0.118884  0  1.004466  0
H  H5  1  0.62078820  0.52715884  0.66735726  1  0  0.113942  0  0.939312  0  0  0.12169  0  1.002317  0  0  0.125989  0  0.998816  0  0  0.109014  0.118874  0  1.004428  0
H  H6  1  0.28268971  0.12969797  0.60200434  1  0  0.309663  0  0.925833  0  0  0.288205  0  0.993421  0  0  0.296776  0  0.985949  0  0  0.317741  0.282113  0  0.998834  0
H  H7  1  0.71731641  0.87030052  0.39800177  1  0  0.309494  0  0.926022  0  0  0.288089  0  0.993562  0  0  0.296659  0  0.9861  0  0  0.31773  0.281998  0  0.998974  0
H  H8  1  0.17786374  0.35960273  0.57363839  1  0  0.091651  0  0.960299  0  0  0.101421  0  1.023545  0  0  0.105071  0  1.020674  0  0  0.10121  0.098801  0  1.025609  0
H  H9  1  0.82211661  0.64039753  0.42635355  1  0  0.091632  0  0.960297  0  0  0.101369  0  1.023594  0  0  0.105051  0  1.020689  0  0  0.101204  0.098752  0  1.025655  0
H  H10  1  0.96634533  0.95541748  0.79782969  1  0  0.088495  0  0.926553  0  0  0.10363  0  0.989483  0  0  0.104034  0  0.990154  0  0  0.09879  0.103108  0  0.989354  0
H  H11  1  0.03365504  0.04457982  0.20216631  1  0  0.088474  0  0.926609  0  0  0.103651  0  0.989487  0  0  0.104057  0  0.990156  0  0  0.098802  0.103128  0  0.989357  0
H  H12  1  0.98715416  0.78746743  0.73421449  1  0  0.078224  0  0.932323  0  0  0.094493  0  0.994488  0  0  0.094244  0  0.995783  0  0  0.094963  0.094515  0  0.993555  0
H  H13  1  0.01285036  0.21252891  0.26578661  1  0  0.07825  0  0.932319  0  0  0.094527  0  0.994492  0  0  0.094274  0  0.995791  0  0  0.094987  0.094549  0  0.993558  0
H  H14  1  0.02299069  0.16537687  0.57220148  1  0  0.11462  0  0.954035  0  0  0.134082  0  1.018497  0  0  0.135736  0  1.017931  0  0  0.095753  0.132849  0  1.018738  0
H  H15  1  0.97701299  0.83462053  0.42780209  1  0  0.114576  0  0.954029  0  0  0.134064  0  1.018468  0  0  0.135716  0  1.017905  0  0  0.095749  0.132828  0  1.018714  0
H  H16  1  0.01878181  0.20720370  0.72285364  1  0  0.116978  0  0.924563  0  0  0.138768  0  0.980693  0  0  0.140559  0  0.980312  0  0  0.095147  0.137544  0  0.980908  0
H  H17  1  0.98122516  0.79279378  0.27715499  1  0  0.116948  0  0.924586  0  0  0.138725  0  0.98073  0  0  0.140516  0  0.980347  0  0  0.095122  0.137501  0  0.980946  0
H  H18  1  0.90691869  0.04704989  0.60941022  1  0  0.13785  0  0.959173  0  0  0.153739  0  1.025863  0  0  0.156225  0  1.025002  0  0  0.097906  0.151617  0  1.027252  0
H  H19  1  0.09308536  0.95294440  0.39059533  1  0  0.137815  0  0.959165  0  0  0.153715  0  1.025853  0  0  0.156188  0  1.025006  0  0  0.097882  0.151593  0  1.027243  0
H  H20  1  0.20237773  0.77311637  0.53043412  1  0  0.094053  0  0.977807  0  0  0.100576  0  1.047268  0  0  0.103154  0  1.04662  0  0  0.103087  0.098785  0  1.047267  0
H  H21  1  0.79762475  0.22688519  0.46956828  1  0  0.094005  0  0.977824  0  0  0.100567  0  1.047241  0  0  0.103154  0  1.046567  0  0  0.103073  0.098777  0  1.047239  0
H  H22  1  0.11932626  0.59585039  0.62056292  1  0  0.07995  0  0.968036  0  0  0.091602  0  1.027696  0  0  0.093953  0  1.02781  0  0  0.097474  0.089949  0  1.027728  0
H  H23  1  0.88066660  0.40415208  0.37943204  1  0  0.079979  0  0.968035  0  0  0.091612  0  1.027716  0  0  0.093968  0  1.027817  0  0  0.097454  0.089957  0  1.027758  0
H  H24  1  0.48230507  0.82261686  0.80695297  1  0  0.121908  0  0.967738  0  0  0.142867  0  1.028833  0  0  0.144371  0  1.028526  0  0  0.097272  0.141815  0  1.029183  0
H  H25  1  0.51769726  0.17737946  0.19304753  1  0  0.121894  0  0.967665  0  0  0.14288  0  1.028731  0  0  0.144383  0  1.028424  0  0  0.097248  0.141828  0  1.029081  0
H  H26  1  0.31530920  0.73550841  0.81001949  1  0  0.110928  0  0.960667  0  0  0.131554  0  1.021832  0  0  0.132703  0  1.022121  0  0  0.092369  0.130525  0  1.022007  0
H  H27  1  0.68469289  0.26448688  0.18998323  1  0  0.110991  0  0.960579  0  0  0.131598  0  1.021778  0  0  0.132753  0  1.022058  0  0  0.092365  0.130568  0  1.021954  0
H  H28  1  0.42995536  0.88498812  0.93487449  1  0  0.12096  0  0.939491  0  0  0.14154  0  0.998442  0  0  0.14332  0  0.998347  0  0  0.095799  0.140387  0  0.998175  0
H  H29  1  0.57005220  0.11500722  0.06512891  1  0  0.120913  0  0.939409  0  0  0.141515  0  0.998361  0  0  0.143282  0  0.998282  0  0  0.095765  0.140361  0  0.998094  0
H  H30  1  0.27552498  0.20703866  0.14848419  1  0  0.132865  0  0.969265  0  0  0.150974  0  1.028987  0  0  0.15378  0  1.027292  0  0  0.095933  0.148719  0  1.030677  0
H  H31  1  0.72448694  0.79296605  0.85151311  1  0  0.132844  0  0.969298  0  0  0.150964  0  1.028993  0  0  0.153767  0  1.027306  0  0  0.095958  0.148709  0  1.030681  0
H  H32  1  0.11597055  0.16945672  0.00797756  1  0  0.112664  0  0.961046  0  0  0.130143  0  1.025367  0  0  0.131495  0  1.026027  0  0  0.09038  0.129041  0  1.025191  0
H  H33  1  0.88404173  0.83054486  0.99202006  1  0  0.112705  0  0.961087  0  0  0.130125  0  1.025473  0  0  0.131484  0  1.026128  0  0  0.090383  0.129023  0  1.025298  0
H  H34  1  0.29551006  0.17247963  0.00274486  1  0  0.115686  0  0.936187  0  0  0.136045  0  0.994312  0  0  0.13762  0  0.994316  0  0  0.093892  0.135089  0  0.994115  0
H  H35  1  0.70450014  0.82751773  0.99725053  1  0  0.115674  0  0.936174  0  0  0.136021  0  0.994302  0  0  0.137593  0  0.99431  0  0  0.093879  0.135064  0  0.994105  0
H  H36  1  0.10428726  0.53768938  0.94520674  1  0  0.122252  0  0.930125  0  0  0.145821  0  0.982385  0  0  0.147643  0  0.981733  0  0  0.102212  0.144348  0  0.983155  0
H  H37  1  0.89569594  0.46230454  0.05477477  1  0  0.122297  0  0.930164  0  0  0.145856  0  0.982416  0  0  0.147678  0  0.98176  0  0  0.102193  0.144383  0  0.983187  0
H  H38  1  0.11939567  0.57781505  0.81374860  1  0  0.114396  0  0.946824  0  0  0.134548  0  1.008597  0  0  0.136339  0  1.007843  0  0  0.096032  0.133147  0  1.009324  0
H  H39  1  0.88059780  0.42219468  0.18624131  1  0  0.11451  0  0.946829  0  0  0.13463  0  1.008618  0  0  0.136421  0  1.007859  0  0  0.096067  0.133231  0  1.009342  0
H  H40  1  0.95082887  0.57891223  0.83865936  1  0  0.125671  0  0.942184  0  0  0.14442  0  1.004418  0  0  0.146188  0  1.004292  0  0  0.098074  0.143233  0  1.004272  0
H  H41  1  0.04916205  0.42110060  0.16132797  1  0  0.125672  0  0.942306  0  0  0.144425  0  1.004512  0  0  0.146169  0  1.004411  0  0  0.098076  0.143237  0  1.004367  0
C  C42  1  0.34442414  0.73854009  0.36964051  1  0  0.65875  0  3.896749  0  0  0.606128  0  4.18859  0  0  0.640691  0  4.181887  0  0  0.206768  0.582332  0  4.19233  0
C  C43  1  0.65557992  0.26146358  0.63036274  1  0  0.658674  0  3.896761  0  0  0.606054  0  4.188635  0  0  0.640613  0  4.181922  0  0  0.206715  0.582259  0  4.192374  0
C  C44  1  0.32275647  0.49979709  0.39609546  1  0  -0.064496  0  3.692758  0  0  -0.103647  0  3.944398  0  0  -0.100964  0  3.962793  0  0  -0.074849  -0.105037  0  3.932562  0
C  C45  1  0.67723811  0.50020335  0.60390456  1  0  -0.064519  0  3.692744  0  0  -0.103725  0  3.944467  0  0  -0.101038  0  3.962856  0  0  -0.074868  -0.105119  0  3.932638  0
C  C46  1  0.13259056  0.75621208  0.96025208  1  0  0.208119  0  3.747464  0  0  0.194044  0  4.019268  0  0  0.203566  0  4.038201  0  0  0.094908  0.187695  0  4.006873  0
C  C47  1  0.86740948  0.24378839  0.03974694  1  0  0.208075  0  3.747472  0  0  0.193967  0  4.019319  0  0  0.203481  0  4.038253  0  0  0.094891  0.187624  0  4.006913  0
C  C48  1  0.28268417  0.40179982  0.45088822  1  0  -0.073913  0  3.768514  0  0  -0.047631  0  4.004631  0  0  -0.056853  0  4.028133  0  0  -0.02053  -0.042683  0  3.990014  0
C  C49  1  0.71729924  0.59819948  0.54911017  1  0  -0.073916  0  3.768601  0  0  -0.047556  0  4.00469  0  0  -0.05678  0  4.0282  0  0  -0.020504  -0.04261  0  3.990078  0
C  C50  1  0.16131828  0.95574109  0.75438890  1  0  -0.143168  0  3.720348  0  0  -0.132219  0  3.975729  0  0  -0.14199  0  4.000606  0  0  -0.036993  -0.126032  0  3.959181  0
C  C51  1  0.83868673  0.04425735  0.24561275  1  0  -0.14309  0  3.720453  0  0  -0.132101  0  3.975741  0  0  -0.141873  0  4.000619  0  0  -0.037003  -0.125914  0  3.959186  0
C  C52  1  0.20097222  0.99076658  0.03724686  1  0  0.221644  0  3.746331  0  0  0.212877  0  4.019095  0  0  0.222918  0  4.038436  0  0  0.095468  0.206309  0  4.005523  0
C  C53  1  0.79903352  0.00923498  0.96275311  1  0  0.22162  0  3.746356  0  0  0.212818  0  4.019153  0  0  0.222857  0  4.038494  0  0  0.095486  0.20625  0  4.00558  0
C  C54  1  0.14138602  0.05102601  0.68611506  1  0  0.216162  0  3.730009  0  0  0.202869  0  3.999204  0  0  0.212554  0  4.018369  0  0  0.098818  0.196206  0  3.986548  0
C  C55  1  0.85861464  0.94897242  0.31388872  1  0  0.216061  0  3.72975  0  0  0.202759  0  3.999037  0  0  0.212443  0  4.018199  0  0  0.098823  0.1961  0  3.98638  0
C  C56  1  0.31998909  0.26119819  0.42379956  1  0  0.636185  0  3.933859  0  0  0.584911  0  4.225977  0  0  0.618857  0  4.220812  0  0  0.199654  0.562073  0  4.228267  0
C  C57  1  0.67999820  0.73879906  0.57620033  1  0  0.636042  0  3.934011  0  0  0.584662  0  4.226275  0  0  0.618606  0  4.221123  0  0  0.199549  0.561823  0  4.228566  0
C  C58  1  0.29504143  0.63367034  0.42555429  1  0  -0.070829  0  3.772184  0  0  -0.043283  0  4.003508  0  0  -0.052814  0  4.02729  0  0  -0.020218  -0.03706  0  3.987143  0
C  C59  1  0.70495450  0.36633118  0.57444880  1  0  -0.070738  0  3.772291  0  0  -0.043182  0  4.00363  0  0  -0.052714  0  4.027414  0  0  -0.020151  -0.036957  0  3.987266  0
C  C60  1  0.20997263  0.43716576  0.53248351  1  0  -0.061439  0  3.728294  0  0  -0.087769  0  3.97418  0  0  -0.085607  0  3.992576  0  0  -0.081161  -0.089096  0  3.961859  0
C  C61  1  0.79001102  0.56283457  0.46751266  1  0  -0.061297  0  3.728372  0  0  -0.087619  0  3.974244  0  0  -0.085485  0  3.992634  0  0  -0.081105  -0.088946  0  3.961924  0
C  C62  1  0.05056976  0.89190771  0.79955978  1  0  -0.098901  0  3.749747  0  0  -0.141107  0  3.991546  0  0  -0.139011  0  4.005953  0  0  -0.146774  -0.142092  0  3.981721  0
C  C63  1  0.94943331  0.10809175  0.20044071  1  0  -0.098876  0  3.749764  0  0  -0.141186  0  3.991701  0  0  -0.139086  0  4.0061  0  0  -0.146776  -0.142165  0  3.981867  0
C  C64  1  0.01594940  0.12109716  0.64533554  1  0  -0.353479  0  3.717387  0  0  -0.430431  0  3.959306  0  0  -0.433842  0  3.966206  0  0  -0.234382  -0.427778  0  3.954715  0
C  C65  1  0.98405344  0.87890130  0.35467050  1  0  -0.353351  0  3.717186  0  0  -0.430301  0  3.959114  0  0  -0.433701  0  3.96603  0  0  -0.234326  -0.427646  0  3.954515  0
C  C66  1  0.22286694  0.66839066  0.50753273  1  0  -0.057887  0  3.71276  0  0  -0.084017  0  3.958907  0  0  -0.08204  0  3.97892  0  0  -0.080849  -0.08318  0  3.943165  0
C  C67  1  0.77712765  0.33160982  0.49247061  1  0  -0.057888  0  3.71288  0  0  -0.084042  0  3.959018  0  0  -0.08206  0  3.97903  0  0  -0.08088  -0.083205  0  3.943276  0
C  C68  1  0.30482682  0.93028640  0.76852389  1  0  0.207609  0  3.769064  0  0  0.199294  0  4.041551  0  0  0.209169  0  4.061484  0  0  0.091142  0.192873  0  4.027824  0
C  C69  1  0.69518209  0.06971000  0.23148091  1  0  0.207474  0  3.769466  0  0  0.199293  0  4.041758  0  0  0.209166  0  4.061692  0  0  0.091167  0.192872  0  4.02803  0
C  C70  1  0.17893856  0.56953186  0.55942039  1  0  -0.080083  0  3.791542  0  0  -0.088257  0  4.042192  0  0  -0.093223  0  4.064823  0  0  -0.092059  -0.085058  0  4.026217  0
C  C71  1  0.82104835  0.43046848  0.44057502  1  0  -0.080186  0  3.791705  0  0  -0.088341  0  4.042343  0  0  -0.093308  0  4.064988  0  0  -0.092038  -0.085146  0  4.026366  0
C  C72  1  0.12235612  0.87885849  0.92656956  1  0  -0.14264  0  3.740467  0  0  -0.128554  0  3.991613  0  0  -0.138183  0  4.01632  0  0  -0.03657  -0.12262  0  3.975536  0
C  C73  1  0.87764526  0.12114305  0.07343170  1  0  -0.142627  0  3.740496  0  0  -0.128522  0  3.991701  0  0  -0.138139  0  4.016394  0  0  -0.036584  -0.122592  0  3.975618  0
C  C74  1  0.38758700  0.83905233  0.83367841  1  0  -0.351286  0  3.723082  0  0  -0.430028  0  3.961749  0  0  -0.433425  0  3.970069  0  0  -0.236682  -0.42752  0  3.956075  0
C  C75  1  0.61241997  0.16094511  0.16632690  1  0  -0.351251  0  3.722864  0  0  -0.430074  0  3.961523  0  0  -0.433465  0  3.969849  0  0  -0.236615  -0.427563  0  3.955847  0
C  C76  1  0.22391405  0.14361124  0.05076516  1  0  -0.359476  0  3.722989  0  0  -0.433279  0  3.959706  0  0  -0.437098  0  3.966743  0  0  -0.24061  -0.430505  0  3.955138  0
C  C77  1  0.77609714  0.85639034  0.94923299  1  0  -0.359526  0  3.723007  0  0  -0.433274  0  3.959744  0  0  -0.437097  0  3.966782  0  0  -0.240666  -0.430501  0  3.955177  0
C  C78  1  0.07355602  0.60515432  0.88586380  1  0  -0.350294  0  3.736783  0  0  -0.425932  0  3.973991  0  0  -0.428805  0  3.980841  0  0  -0.229342  -0.423679  0  3.969363  0
C  C79  1  0.92643781  0.39485230  0.11412726  1  0  -0.350479  0  3.736992  0  0  -0.426074  0  3.974189  0  0  -0.42892  0  3.981055  0  0  -0.229391  -0.423824  0  3.969559  0
N  N80  1  0.25571289  0.93902885  0.13277214  1  0  -0.337658  0  3.123155  0  0  -0.289984  0  3.417389  0  0  -0.306917  0  3.433942  0  0  -0.263736  -0.277614  0  3.405634  0
N  N81  1  0.74429454  0.06097061  0.86722623  1  0  -0.337572  0  3.12312  0  0  -0.289878  0  3.417365  0  0  -0.306807  0  3.433916  0  0  -0.263665  -0.277508  0  3.405605  0
N  N82  1  0.21256643  0.79746943  0.08396267  1  0  -0.222459  0  3.499125  0  0  -0.173647  0  3.741195  0  0  -0.186089  0  3.759502  0  0  -0.294892  -0.165336  0  3.728212  0
N  N83  1  0.78743748  0.20252897  0.91603619  1  0  -0.222368  0  3.499269  0  0  -0.173619  0  3.741244  0  0  -0.186062  0  3.759556  0  0  -0.294912  -0.16531  0  3.728257  0
N  N84  1  0.36638770  0.00397980  0.71051210  1  0  -0.324898  0  3.165347  0  0  -0.27265  0  3.460049  0  0  -0.290489  0  3.476128  0  0  -0.26788  -0.259788  0  3.448282  0
N  N85  1  0.63362159  0.99602290  0.28949487  1  0  -0.324994  0  3.165517  0  0  -0.272744  0  3.46024  0  0  -0.290581  0  3.476318  0  0  -0.267932  -0.25988  0  3.44848  0
N  N86  1  0.26659784  0.07682335  0.66217999  1  0  -0.200238  0  3.464016  0  0  -0.150843  0  3.704676  0  0  -0.16237  0  3.721622  0  0  -0.283544  -0.143185  0  3.693296  0
N  N87  1  0.73340634  0.92317616  0.33782579  1  0  -0.199913  0  3.463873  0  0  -0.150666  0  3.704727  0  0  -0.162196  0  3.721679  0  0  -0.283512  -0.143017  0  3.693354  0
O  O88  1  0.37427632  0.86981478  0.43299910  1  0  -0.677873  0  2.06864  0  0  -0.591932  0  2.339253  0  0  -0.624342  0  2.325754  0  0  -0.333626  -0.568314  0  2.349257  0
O  O89  1  0.62572533  0.13018787  0.56700826  1  0  -0.677848  0  2.068699  0  0  -0.591885  0  2.339264  0  0  -0.624325  0  2.325834  0  0  -0.333626  -0.568267  0  2.349267  0
O  O90  1  0.39306175  0.23939900  0.35288559  1  0  -0.640744  0  2.038158  0  0  -0.565539  0  2.285419  0  0  -0.597107  0  2.278092  0  0  -0.324326  -0.543021  0  2.289517  0
O  O91  1  0.60692649  0.76059303  0.64711354  1  0  -0.640567  0  2.03823  0  0  -0.565313  0  2.285508  0  0  -0.596879  0  2.278181  0  0  -0.324222  -0.542793  0  2.2896  0
O  O92  1  0.35378191  0.69548514  0.26600141  1  0  -0.617438  0  1.935271  0  0  -0.571845  0  2.149558  0  0  -0.593985  0  2.138905  0  0  -0.328233  -0.555871  0  2.155892  0
O  O93  1  0.64622543  0.30451856  0.73400273  1  0  -0.617406  0  1.935239  0  0  -0.571858  0  2.14952  0  0  -0.593996  0  2.138864  0  0  -0.328212  -0.555884  0  2.155854  0
O  O94  1  0.27985247  0.16997716  0.46970385  1  0  -0.650313  0  1.985224  0  0  -0.596244  0  2.221483  0  0  -0.621385  0  2.212366  0  0  -0.326697  -0.57766  0  2.228032  0
O  O95  1  0.72014213  0.83002332  0.53030033  1  0  -0.650352  0  1.985149  0  0  -0.596233  0  2.221372  0  0  -0.621353  0  2.212218  0  0  -0.32674  -0.577652  0  2.227934  0
