# generated using pymatgen
data_TbH6(C2O3)3
_symmetry_space_group_name_H-M   'P 1'
_cell_length_a   8.23766035
_cell_length_b   8.48293986
_cell_length_c   8.94138129
_cell_angle_alpha   94.44407498
_cell_angle_beta   116.80257319
_cell_angle_gamma   111.05823194
_symmetry_Int_Tables_number   1
_chemical_formula_structural   TbH6(C2O3)3
_chemical_formula_sum   'Tb2 H12 C12 O18'
_cell_volume   498.46845174
_cell_formula_units_Z   2
loop_
 _symmetry_equiv_pos_site_id
 _symmetry_equiv_pos_as_xyz
  1  'x, y, z'
loop_
 _atom_site_type_symbol
 _atom_site_label
 _atom_site_symmetry_multiplicity
 _atom_site_fract_x
 _atom_site_fract_y
 _atom_site_fract_z
 _atom_site_occupancy
 _atom_site_hle17_bader_spin_density
 _atom_site_hle17_ddec_charge
 _atom_site_hle17_ddec_spin_density
 _atom_site_hle17_ddec_sum_bond_order
 _atom_site_hle17_magmom
 _atom_site_hse06_10hf_bader_charge
 _atom_site_hse06_10hf_bader_spin_density
 _atom_site_hse06_10hf_ddec_charge
 _atom_site_hse06_10hf_ddec_spin_density
 _atom_site_hse06_10hf_ddec_sum_bond_order
 _atom_site_hse06_10hf_magmom
 _atom_site_hse06_bader_spin_density
 _atom_site_hse06_ddec_charge
 _atom_site_hse06_ddec_spin_density
 _atom_site_hse06_ddec_sum_bond_order
 _atom_site_hse06_magmom
 _atom_site_pbe_bader_spin_density
 _atom_site_pbe_cm5_charge
 _atom_site_pbe_ddec_charge
 _atom_site_pbe_ddec_spin_density
 _atom_site_pbe_ddec_sum_bond_order
 _atom_site_pbe_magmom
Tb  Tb0  1  0.08798913  0.51687638  0.77070636  1  0  2.327249  0  1.554356  0  2.245246  0  2.248604  0  1.878478  0  0  2.294852  0  1.836938  0  0  1.498697  2.140022  0  2.048373  0
Tb  Tb1  1  0.91201306  0.48312431  0.22929497  1  0  2.327251  0  1.554351  0  2.245271  0  2.248604  0  1.878473  0  0  2.294852  0  1.836932  0  0  1.498689  2.140024  0  2.048369  0
H  H2  1  0.29370327  0.90346846  0.81597261  1  0  0.448547  0  0.79721  0  0.648221  0  0.430686  0  0.851345  0  0  0.438802  0  0.842089  0  0  0.332512  0.42449  0  0.857688  0
H  H3  1  0.70630028  0.09653225  0.18402816  1  0  0.448538  0  0.797205  0  0.648227  0  0.430676  0  0.851345  0  0  0.438793  0  0.842088  0  0  0.332512  0.424481  0  0.857686  0
H  H4  1  0.19873351  0.80315634  0.61744213  1  0  0.432072  0  0.875623  0  0.649172  0  0.399638  0  0.942833  0  0  0.41038  0  0.927299  0  0  0.298732  0.391966  0  0.953588  0
H  H5  1  0.80126867  0.19684435  0.38255807  1  0  0.43208  0  0.875607  0  0.649175  0  0.399649  0  0.942813  0  0  0.410392  0  0.927278  0  0  0.298735  0.391977  0  0.953567  0
H  H6  1  0.16141817  0.22241638  0.90013669  1  0  0.432833  0  0.864678  0  0.683671  0  0.399784  0  0.930309  0  0  0.411706  0  0.91281  0  0  0.302321  0.391322  0  0.942468  0
H  H7  1  0.83858401  0.77758431  0.09986352  1  0  0.432848  0  0.864662  0  0.683656  0  0.399802  0  0.930289  0  0  0.411724  0  0.91279  0  0  0.302333  0.391339  0  0.942448  0
H  H8  1  0.35582447  0.39530527  0.05781715  1  0  0.451806  0  0.837934  0  0.696053  0  0.423319  0  0.895704  0  0  0.434117  0  0.880045  0  0  0.30853  0.415213  0  0.907317  0
H  H9  1  0.64417498  0.60469541  0.94218195  1  0  0.451821  0  0.83791  0  0.69606  0  0.423337  0  0.895676  0  0  0.434136  0  0.880016  0  0  0.308527  0.415232  0  0.907288  0
H  H10  1  0.90226738  0.69406103  0.90408772  1  0  0.444168  0  0.852669  0  0.650317  0  0.415923  0  0.910928  0  0  0.426692  0  0.895147  0  0  0.298486  0.40791  0  0.922441  0
H  H11  1  0.09773278  0.30593834  0.09591155  1  0  0.444153  0  0.852688  0  0.650306  0  0.415908  0  0.910946  0  0  0.426677  0  0.895165  0  0  0.298483  0.407896  0  0.922459  0
H  H12  1  0.96534713  0.81930421  0.79352828  1  0  0.443464  0  0.849991  0  0.673404  0  0.412692  0  0.912064  0  0  0.423631  0  0.89591  0  0  0.296622  0.40449  0  0.924058  0
H  H13  1  0.03465368  0.18069649  0.20647025  1  0  0.443415  0  0.850053  0  0.673407  0  0.412662  0  0.912092  0  0  0.4236  0  0.895938  0  0  0.296614  0.404461  0  0.924085  0
C  C14  1  0.33579798  0.50655915  0.61469365  1  0  0.761143  0  3.924647  0  1.732988  0  0.710609  0  4.216829  0  0  0.748535  0  4.200008  0  0  0.237192  0.685002  0  4.220328  0
C  C15  1  0.66419879  0.49343888  0.38530526  1  0  0.76112  0  3.92472  0  1.73302  0  0.710576  0  4.216912  0  0  0.748502  0  4.200093  0  0  0.237182  0.684972  0  4.220408  0
C  C16  1  0.69773308  0.92634532  0.47784891  1  0  -0.144638  0  3.662248  0  0.259688  0  -0.14654  0  3.921953  0  0  -0.15121  0  3.940216  0  0  -0.02612  -0.144209  0  3.91189  0
C  C17  1  0.30225755  0.07364874  0.52214159  1  0  -0.144528  0  3.661822  0  0.263577  0  -0.146444  0  3.921526  0  0  -0.151116  0  3.939788  0  0  -0.026091  -0.144114  0  3.911468  0
C  C18  1  0.89301297  0.05902293  0.61798360  1  0  0.756469  0  3.924048  0  1.738628  0  0.701731  0  4.220938  0  0  0.739355  0  4.205436  0  0  0.238319  0.675572  0  4.229993  0
C  C19  1  0.10698851  0.94097908  0.38201643  1  0  0.756456  0  3.924224  0  1.738625  0  0.701764  0  4.221049  0  0  0.73939  0  4.205542  0  0  0.23831  0.675605  0  4.230108  0
C  C20  1  0.45531184  0.50296100  0.53778217  1  0  -0.098168  0  3.644912  0  0.175879  0  -0.099346  0  3.902098  0  0  -0.103194  0  3.91983  0  0  -0.000677  -0.097736  0  3.891999  0
C  C21  1  0.54468564  0.49703572  0.46221804  1  0  -0.097958  0  3.644837  0  -0.366038  0  -0.099117  0  3.902009  0  0  -0.102963  0  3.919742  0  0  -0.000584  -0.097508  0  3.891906  0
C  C22  1  0.53215155  0.83159157  0.34935024  1  0  -0.096171  0  3.639913  0  -0.504229  0  -0.096351  0  3.894581  0  0  -0.098955  0  3.911824  0  0  -0.00849  -0.096001  0  3.885856  0
C  C23  1  0.46786015  0.16841443  0.65065874  1  0  -0.096318  0  3.639608  0  -0.508006  0  -0.096489  0  3.894311  0  0  -0.099089  0  3.91155  0  0  -0.008509  -0.096142  0  3.885591  0
C  C24  1  0.34094663  0.71905829  0.19045766  1  0  0.787214  0  3.924823  0  1.744415  0  0.741631  0  4.209174  0  0  0.780696  0  4.189975  0  0  0.245124  0.714122  0  4.21824  0
C  C25  1  0.65905151  0.28093975  0.80954293  1  0  0.787311  0  3.925045  0  1.744339  0  0.741693  0  4.209445  0  0  0.780756  0  4.190245  0  0  0.245115  0.714182  0  4.218518  0
O  O26  1  0.40123479  0.51861701  0.77583062  1  0  -0.656624  0  1.975701  0  -1.192569  0  -0.612009  0  2.199776  0  0  -0.63668  0  2.187632  0  0  -0.316091  -0.587866  0  2.208972  0
O  O27  1  0.59875992  0.48138232  0.22416867  1  0  -0.656638  0  1.975806  0  -1.192571  0  -0.612003  0  2.199866  0  0  -0.636665  0  2.187708  0  0  -0.316079  -0.587861  0  2.20906  0
O  O28  1  0.94099350  0.21321300  0.59561526  1  0  -0.724261  0  2.062413  0  -1.195687  0  -0.673891  0  2.301102  0  0  -0.701422  0  2.290541  0  0  -0.354646  -0.645312  0  2.309683  0
O  O29  1  0.05900866  0.78679032  0.40438739  1  0  -0.724249  0  2.062411  0  -1.195858  0  -0.673897  0  2.301096  0  0  -0.70142  0  2.290518  0  0  -0.354628  -0.645318  0  2.309678  0
O  O30  1  0.26499924  0.79625325  0.74043770  1  0  -0.894515  0  1.888886  0  -1.268573  0  -0.856945  0  2.074898  0  0  -0.875367  0  2.048718  0  0  -0.634769  -0.83545  0  2.098242  0
O  O31  1  0.73500158  0.20374744  0.25956195  1  0  -0.894509  0  1.888875  0  -1.268568  0  -0.856943  0  2.074896  0  0  -0.875365  0  2.048714  0  0  -0.634767  -0.835449  0  2.098239  0
O  O32  1  0.15982293  0.49592854  0.51589180  1  0  -0.763122  0  2.134103  0  -1.201685  0  -0.720043  0  2.386105  0  0  -0.74598  0  2.373875  0  0  -0.391265  -0.686002  0  2.393633  0
O  O33  1  0.84017516  0.50407213  0.48410786  1  0  -0.763097  0  2.13408  0  -1.201627  0  -0.720035  0  2.386114  0  0  -0.745973  0  2.373885  0  0  -0.391236  -0.685994  0  2.393641  0
O  O34  1  0.20751913  0.34400657  0.96987656  1  0  -0.916509  0  1.93809  0  -1.35585  0  -0.867028  0  2.120534  0  0  -0.888071  0  2.087678  0  0  -0.609003  -0.843323  0  2.147643  0
O  O35  1  0.79248240  0.65599281  0.03012439  1  0  -0.916538  0  1.938057  0  -1.355867  0  -0.867058  0  2.120493  0  0  -0.888103  0  2.087634  0  0  -0.609  -0.843356  0  2.147607  0
O  O36  1  0.96694521  0.71305984  0.83201483  1  0  -0.960952  0  1.910785  0  -1.314805  0  -0.921063  0  2.101728  0  0  -0.940707  0  2.07001  0  0  -0.664893  -0.897407  0  2.129776  0
O  O37  1  0.03305493  0.28693953  0.16798332  1  0  -0.960893  0  1.910844  0  -1.314803  0  -0.921013  0  2.101783  0  0  -0.940656  0  2.07007  0  0  -0.664884  -0.897358  0  2.129832  0
O  O38  1  0.34961690  0.70509749  0.05216063  1  0  -0.689041  0  1.966776  0  -1.179429  0  -0.649201  0  2.201429  0  0  -0.674279  0  2.187151  0  0  -0.377405  -0.622227  0  2.213983  0
O  O39  1  0.65038194  0.29489924  0.94783902  1  0  -0.689072  0  1.96682  0  -1.179455  0  -0.649221  0  2.2015  0  0  -0.6743  0  2.187225  0  0  -0.377389  -0.622245  0  2.214056  0
O  O40  1  0.00216955  0.02080431  0.74887142  1  0  -0.599611  0  1.918418  0  -1.200983  0  -0.537983  0  2.117541  0  0  -0.562424  0  2.103299  0  0  -0.283356  -0.521597  0  2.128036  0
O  O41  1  0.99782989  0.97919637  0.25112655  1  0  -0.599629  0  1.918409  0  -1.200844  0  -0.53803  0  2.117507  0  0  -0.56247  0  2.103263  0  0  -0.28338  -0.52164  0  2.128002  0
O  O42  1  0.18376437  0.64450691  0.19993926  1  0  -0.741453  0  2.051889  0  -1.21297  0  -0.704326  0  2.308223  0  0  -0.730596  0  2.294466  0  0  -0.389896  -0.67309  0  2.318249  0
O  O43  1  0.81623377  0.35549113  0.80006133  1  0  -0.741462  0  2.051809  0  -1.212924  0  -0.704312  0  2.30814  0  0  -0.730581  0  2.294382  0  0  -0.38988  -0.673075  0  2.318166  0
