# generated using pymatgen
data_Ni2H16(C2O)11
_symmetry_space_group_name_H-M   'P 1'
_cell_length_a   10.37253233
_cell_length_b   11.29606890
_cell_length_c   12.12760388
_cell_angle_alpha   90.67182138
_cell_angle_beta   110.61690851
_cell_angle_gamma   109.96894167
_symmetry_Int_Tables_number   1
_chemical_formula_structural   Ni2H16(C2O)11
_chemical_formula_sum   'Ni4 H32 C44 O22'
_cell_volume   1235.86306835
_cell_formula_units_Z   2
loop_
 _symmetry_equiv_pos_site_id
 _symmetry_equiv_pos_as_xyz
  1  'x, y, z'
loop_
 _atom_site_type_symbol
 _atom_site_label
 _atom_site_symmetry_multiplicity
 _atom_site_fract_x
 _atom_site_fract_y
 _atom_site_fract_z
 _atom_site_occupancy
 _atom_site_pbe_bader_charge
 _atom_site_pbe_bader_spin_density
 _atom_site_pbe_cm5_charge
 _atom_site_pbe_ddec_charge
 _atom_site_pbe_ddec_spin_density
 _atom_site_pbe_ddec_sum_bond_order
 _atom_site_pbe_magmom
Ni  Ni0  1  0.79605907  0.52092159  0.70058514  1  1.202623  1.590143  0.609459  0.920822  1.770447  2.27436  1.579
Ni  Ni1  1  0.20394033  0.47907627  0.29941773  1  1.202657  1.590152  0.609463  0.920859  1.77046  2.274401  1.579
Ni  Ni2  1  0.49999928  0.50000037  0.50000053  1  1.253819  1.622998  0.639435  1.018979  1.800403  2.208542  1.611
Ni  Ni3  1  0.99999844  0.49999836  0.99999732  1  1.243184  1.619135  0.620162  1.019862  1.803437  2.207053  1.61
H  H4  1  0.67801902  0.39320841  0.48890564  1  0.66053  -0.00047  0.318366  0.40981  -0.00023  0.881304  0.0
H  H5  1  0.80516788  0.54452674  0.50623440  1  0.652993  0.000503  0.287934  0.380471  0.000507  0.973613  0.001
H  H6  1  0.91432129  0.67388179  0.89540082  1  0.618763  -0.000135  0.34014  0.434295  0.00012  0.823072  0.0
H  H7  1  0.75708788  0.55213111  0.88578592  1  0.65079  -8.4e-05  0.291846  0.372036  6e-05  0.988844  0.0
H  H8  1  0.97289533  0.93907706  0.68492916  1  0.098259  0.000446  0.106383  0.115257  0.000196  1.000644  0.0
H  H9  1  0.60650150  0.10355088  0.72854082  1  0.086565  0.000417  0.110446  0.120324  0.000156  0.983271  0.0
H  H10  1  0.25673601  0.57772965  0.96937308  1  0.626819  0.000462  0.310814  0.396949  0.000422  0.912457  0.0
H  H11  1  0.13051210  0.59325468  0.85265412  1  0.650365  0.000235  0.292711  0.388373  0.000231  0.95163  0.0
H  H12  1  0.55356372  0.73362865  0.80076960  1  0.081694  2.6e-05  0.103007  0.109864  -2.2e-05  0.992572  0.0
H  H13  1  0.39215257  0.95256055  0.53386151  1  0.081482  0.000219  0.100512  0.102769  0.000103  1.026224  0.0
H  H14  1  0.14027503  0.29946950  0.90767903  1  0.112883  0.000322  0.100009  0.109741  0.000219  1.044788  0.0
H  H15  1  0.07426104  0.10660107  0.57283490  1  0.049734  1.9e-05  0.09787  0.09185  -5e-06  1.024157  0.0
H  H16  1  0.29518954  0.60118483  0.77186728  1  0.087317  0.000621  0.101257  0.096716  0.000398  1.034751  0.0
H  H17  1  0.13299570  0.81475581  0.50151211  1  0.101213  4.8e-05  0.101715  0.100791  1.4e-05  1.042734  0.0
H  H18  1  0.39190381  0.43882460  0.92717548  1  0.080289  0.000174  0.097928  0.095882  0.000116  1.056045  0.0
H  H19  1  0.32522824  0.25000337  0.59042295  1  0.111537  6e-06  0.104619  0.112318  -6.4e-05  1.030239  0.0
H  H20  1  0.32198468  0.60679232  0.51109690  1  0.660532  -0.00047  0.318388  0.409807  -0.00023  0.88128  0.0
H  H21  1  0.19483210  0.45547496  0.49376627  1  0.652976  0.000503  0.287931  0.380457  0.000507  0.973628  0.001
H  H22  1  0.08567540  0.32611229  0.10459870  1  0.618698  -0.000135  0.340107  0.434255  0.00012  0.823114  0.0
H  H23  1  0.24291273  0.44786486  0.11421560  1  0.650805  -8.4e-05  0.291821  0.372082  5.9e-05  0.988747  0.0
H  H24  1  0.02710316  0.06092374  0.31506776  1  0.097693  0.000446  0.106388  0.115278  0.000196  1.000639  0.0
H  H25  1  0.39349863  0.89645373  0.27145584  1  0.08669  0.000417  0.11045  0.12033  0.000156  0.983267  0.0
H  H26  1  0.74326213  0.42226538  0.03062688  1  0.626831  0.000462  0.310803  0.396929  0.000422  0.912493  0.0
H  H27  1  0.86948580  0.40674228  0.14734418  1  0.650382  0.000235  0.292705  0.388352  0.000231  0.951655  0.0
H  H28  1  0.44643648  0.26637590  0.19923203  1  0.081685  2.6e-05  0.103026  0.109851  -2.2e-05  0.99253  0.0
H  H29  1  0.60784367  0.04743739  0.46613468  1  0.08146  0.000219  0.100469  0.102716  0.000103  1.026158  0.0
H  H30  1  0.85972593  0.70052749  0.09231767  1  0.112827  0.000322  0.099994  0.109715  0.000219  1.044792  0.0
H  H31  1  0.92573972  0.89340258  0.42716275  1  0.049736  1.9e-05  0.097843  0.091832  -5e-06  1.024132  0.0
H  H32  1  0.70481110  0.39882064  0.22813698  1  0.087467  0.000621  0.101239  0.096705  0.000398  1.034732  0.0
H  H33  1  0.86700369  0.18524681  0.49849089  1  0.101223  4.8e-05  0.101721  0.100772  1.4e-05  1.042748  0.0
H  H34  1  0.60810193  0.56116662  0.07282576  1  0.080397  0.000174  0.097947  0.09589  0.000116  1.056068  0.0
H  H35  1  0.67477607  0.74999166  0.40957880  1  0.117097  7e-06  0.10463  0.112359  -6.4e-05  1.030219  0.0
C  C36  1  0.71581522  0.75141417  0.64338525  1  1.554637  -0.002018  0.218159  0.598311  -0.003423  4.17461  -0.003
C  C37  1  0.75058551  0.89046366  0.67607311  1  0.017878  0.014942  -0.015384  -0.07227  0.008833  3.949009  0.011
C  C38  1  0.89284763  0.97670217  0.69434422  1  -0.105468  0.001227  -0.083031  -0.142861  0.000377  3.950958  0.001
C  C39  1  0.64409653  0.93576382  0.68711540  1  0.011538  0.001288  0.000531  0.052994  0.00052  3.987817  0.001
C  C40  1  0.93650289  0.10852202  0.72596448  1  0.020778  0.004197  -0.001101  0.040057  0.00226  3.96117  0.003
C  C41  1  0.68707622  0.06683149  0.71873601  1  -0.032715  0.003846  -0.081333  -0.15056  0.002091  3.955296  0.002
C  C42  1  0.49079362  0.85287202  0.66965664  1  -0.042593  -0.000543  -0.000381  0.084056  -0.00071  3.995289  0.0
C  C43  1  0.08772788  0.19368855  0.73846522  1  -0.00291  0.000938  0.002209  0.08517  0.000478  3.962364  0.001
C  C44  1  0.83029345  0.15265828  0.74032205  1  0.000712  0.012356  -0.000203  -0.0376  0.007387  3.899367  0.01
C  C45  1  0.46170426  0.75310286  0.73628258  1  -0.046339  0.001017  -0.090327  -0.128357  0.000489  3.962712  0.001
C  C46  1  0.37120580  0.87622850  0.58688774  1  0.02475  0.001111  -0.087793  -0.128522  0.000579  3.963124  0.001
C  C47  1  0.18028348  0.28859543  0.83804285  1  -0.079396  0.000809  -0.092712  -0.124864  0.000423  3.953233  0.001
C  C48  1  0.14347013  0.17981464  0.65075119  1  -0.057707  0.000336  -0.085192  -0.122825  0.000168  3.960454  0.0
C  C49  1  0.85587185  0.28924667  0.77715484  1  1.600233  -0.001845  0.225908  0.621248  -0.003005  4.159945  -0.002
C  C50  1  0.31668267  0.67946470  0.72108869  1  -0.062702  0.00052  -0.086791  -0.0893  0.000293  3.983779  0.0
C  C51  1  0.22605092  0.79991723  0.56872674  1  -0.108228  0.000377  -0.083325  -0.08571  -5.8e-05  3.976413  0.0
C  C52  1  0.32111435  0.36768437  0.84818241  1  -0.01502  0.001459  -0.089125  -0.097931  0.000734  4.001001  0.001
C  C53  1  0.28369682  0.26044883  0.65943390  1  -0.001696  0.000619  -0.079713  -0.068463  0.000266  3.935996  0.0
C  C54  1  0.19758110  0.70200198  0.63672501  1  -0.026563  0.007189  -0.021201  -0.050397  0.004326  3.989917  0.006
C  C55  1  0.37363730  0.35594709  0.75817837  1  -0.030125  0.004599  -0.021609  -0.052047  0.00266  3.991885  0.004
C  C56  1  0.04102924  0.62607302  0.61889300  1  1.552494  -0.000579  0.227018  0.59717  -0.001549  4.12925  -0.002
C  C57  1  0.52617925  0.44023203  0.77340361  1  1.509259  0.002366  0.232395  0.606869  0.001877  4.098805  0.003
C  C58  1  0.28418708  0.24858558  0.35661933  1  1.554632  -0.002019  0.218114  0.598172  -0.003424  4.174521  -0.003
C  C59  1  0.24941755  0.10953805  0.32392762  1  0.017816  0.014942  -0.015394  -0.072226  0.008833  3.949016  0.011
C  C60  1  0.10715208  0.02330150  0.30565147  1  -0.104881  0.001227  -0.083059  -0.142937  0.000377  3.950946  0.001
C  C61  1  0.35590262  0.06423599  0.31288415  1  0.011416  0.001288  0.00049  0.05295  0.00052  3.987938  0.001
C  C62  1  0.06349680  0.89148167  0.27402956  1  0.021694  0.004196  -0.00106  0.040128  0.00226  3.961125  0.003
C  C63  1  0.31292410  0.93317123  0.28125983  1  -0.032744  0.003846  -0.081322  -0.150583  0.002091  3.955182  0.002
C  C64  1  0.50920306  0.14713159  0.33034313  1  -0.048512  -0.000543  -0.000313  0.084036  -0.00071  3.995368  0.0
C  C65  1  0.91227164  0.80631225  0.26153116  1  -0.002753  0.000938  0.002146  0.084933  0.000478  3.962686  0.001
C  C66  1  0.16970436  0.84734354  0.25966975  1  -0.000304  0.012354  -0.00021  -0.037435  0.007384  3.89934  0.01
C  C67  1  0.53829654  0.24690075  0.26371838  1  -0.046383  0.001018  -0.090358  -0.128312  0.000489  3.962654  0.001
C  C68  1  0.62879190  0.12377512  0.41311149  1  0.030752  0.001111  -0.087763  -0.128421  0.00058  3.963036  0.001
C  C69  1  0.81971751  0.71140153  0.16195634  1  -0.079398  0.00081  -0.092613  -0.124747  0.000423  3.95318  0.001
C  C70  1  0.85653002  0.82018520  0.34924618  1  -0.057784  0.000336  -0.085167  -0.122738  0.000168  3.960455  0.0
C  C71  1  0.14412558  0.71075893  0.22283942  1  1.600747  -0.001845  0.225808  0.621036  -0.003004  4.160161  -0.002
C  C72  1  0.68331650  0.32053984  0.27891347  1  -0.062937  0.00052  -0.086771  -0.089331  0.000293  3.983667  0.0
C  C73  1  0.77394682  0.20008636  0.43127498  1  -0.108216  0.000377  -0.08335  -0.085832  -5.8e-05  3.976491  0.0
C  C74  1  0.67889019  0.63230873  0.15182100  1  -0.015024  0.001459  -0.08914  -0.097843  0.000733  4.000872  0.001
C  C75  1  0.71630645  0.73954621  0.34056672  1  -0.007246  0.000618  -0.079696  -0.068457  0.000266  3.936078  0.0
C  C76  1  0.80241915  0.29800251  0.36328076  1  -0.026518  0.007189  -0.021164  -0.050179  0.004325  3.989733  0.006
C  C77  1  0.62636542  0.64404884  0.24182706  1  -0.030296  0.004599  -0.021686  -0.052202  0.002659  3.992108  0.004
C  C78  1  0.95896771  0.37392863  0.38111091  1  1.55236  -0.000579  0.227023  0.597108  -0.00155  4.129273  -0.002
C  C79  1  0.47382672  0.55976203  0.22659942  1  1.509248  0.002366  0.232439  0.606951  0.001877  4.098489  0.003
O  O80  1  0.59052282  0.68761583  0.56179579  1  -1.148884  0.064724  -0.306211  -0.561845  0.034901  2.394572  0.06
O  O81  1  0.69779848  0.48267099  0.51268356  1  -1.234886  0.119926  -0.542279  -0.788514  0.067027  2.325613  0.107
O  O82  1  0.56579830  0.45618226  0.68390818  1  -1.14764  0.097339  -0.296325  -0.5779  0.054219  2.439868  0.088
O  O83  1  0.81668781  0.70981475  0.69931034  1  -1.147928  0.063848  -0.312539  -0.560251  0.034676  2.332705  0.059
O  O84  1  0.86822996  0.58111027  0.88399941  1  -1.188729  0.10798  -0.54487  -0.779436  0.060313  2.379864  0.098
O  O85  1  0.78344645  0.33945673  0.69748505  1  -1.138175  0.066575  -0.307288  -0.543022  0.035869  2.345238  0.062
O  O86  1  0.01488738  0.57882378  0.70799108  1  -1.148076  0.070217  -0.297174  -0.547164  0.037973  2.336941  0.065
O  O87  1  0.17173716  0.60418651  0.94174874  1  -1.223869  0.060443  -0.568565  -0.752793  0.032709  2.098285  0.053
O  O88  1  0.93804823  0.33656856  0.88486786  1  -1.162375  0.061427  -0.308851  -0.576949  0.03329  2.372441  0.057
O  O89  1  0.94157791  0.61545898  0.51670297  1  -1.165346  0.007021  -0.299773  -0.498558  0.003338  2.237061  0.007
O  O90  1  0.61642501  0.49321448  0.88003599  1  -1.177272  0.012255  -0.30795  -0.525467  0.006074  2.22056  0.011
O  O91  1  0.40948031  0.31238581  0.43821073  1  -1.149022  0.064728  -0.306122  -0.561709  0.034903  2.394616  0.06
O  O92  1  0.30220043  0.51732599  0.48731337  1  -1.234872  0.119925  -0.542277  -0.788439  0.067026  2.325698  0.107
O  O93  1  0.43419988  0.54381272  0.31609509  1  -1.147721  0.097352  -0.29632  -0.577927  0.054224  2.439681  0.088
O  O94  1  0.18331444  0.29018980  0.30069106  1  -1.147838  0.063857  -0.31259  -0.560267  0.034681  2.332568  0.059
O  O95  1  0.13176633  0.41888761  0.11600092  1  -1.188637  0.107978  -0.544836  -0.779444  0.060313  2.379829  0.098
O  O96  1  0.21654954  0.66054315  0.30250865  1  -1.138578  0.066566  -0.307264  -0.542955  0.035864  2.345185  0.062
O  O97  1  0.98511281  0.42117601  0.29200960  1  -1.147966  0.070222  -0.297221  -0.547214  0.037976  2.336815  0.065
O  O98  1  0.82826077  0.39581043  0.05825121  1  -1.223847  0.060441  -0.568557  -0.752747  0.032707  2.098295  0.053
O  O99  1  0.06194937  0.66343516  0.11512393  1  -1.162367  0.061427  -0.308803  -0.576921  0.03329  2.372404  0.057
O  O100  1  0.05841945  0.38454362  0.48330109  1  -1.165271  0.007021  -0.299749  -0.498504  0.003338  2.237138  0.007
O  O101  1  0.38357973  0.50678147  0.11996755  1  -1.177204  0.012256  -0.307928  -0.525515  0.006075  2.22046  0.011
