# generated using pymatgen
data_CdH12C16(SN5)2
_symmetry_space_group_name_H-M   'P 1'
_cell_length_a   5.76090804
_cell_length_b   8.31501663
_cell_length_c   10.17445629
_cell_angle_alpha   86.33304883
_cell_angle_beta   81.74130874
_cell_angle_gamma   88.57716179
_symmetry_Int_Tables_number   1
_chemical_formula_structural   CdH12C16(SN5)2
_chemical_formula_sum   'Cd1 H12 C16 S2 N10'
_cell_volume   481.27512083
_cell_formula_units_Z   1
loop_
 _symmetry_equiv_pos_site_id
 _symmetry_equiv_pos_as_xyz
  1  'x, y, z'
loop_
 _atom_site_type_symbol
 _atom_site_label
 _atom_site_symmetry_multiplicity
 _atom_site_fract_x
 _atom_site_fract_y
 _atom_site_fract_z
 _atom_site_occupancy
 _atom_site_hle17_bader_spin_density
 _atom_site_hle17_ddec_charge
 _atom_site_hle17_ddec_spin_density
 _atom_site_hle17_ddec_sum_bond_order
 _atom_site_hle17_magmom
 _atom_site_hse06_10hf_bader_spin_density
 _atom_site_hse06_10hf_ddec_charge
 _atom_site_hse06_10hf_ddec_spin_density
 _atom_site_hse06_10hf_ddec_sum_bond_order
 _atom_site_hse06_10hf_magmom
 _atom_site_hse06_bader_spin_density
 _atom_site_hse06_ddec_charge
 _atom_site_hse06_ddec_spin_density
 _atom_site_hse06_ddec_sum_bond_order
 _atom_site_hse06_magmom
 _atom_site_pbe_bader_spin_density
 _atom_site_pbe_cm5_charge
 _atom_site_pbe_ddec_charge
 _atom_site_pbe_ddec_spin_density
 _atom_site_pbe_ddec_sum_bond_order
 _atom_site_pbe_magmom
Cd  Cd0  1  0.50000118  0.99999948  0.49999843  1  0  0.979326  0  1.997114  0  0  0.799283  0  2.469612  0  0  0.843651  0  2.431355  0  0  0.737468  0.768542  0  2.495113  0
H  H1  1  0.28242828  0.69399949  0.73645798  1  0  0.102373  0  0.955997  0  0  0.105887  0  1.030223  0  0  0.109015  0  1.026175  0  0  0.13555  0.103522  0  1.033227  0
H  H2  1  0.71758809  0.30600171  0.26353507  1  0  0.102367  0  0.955919  0  0  0.105873  0  1.030149  0  0  0.109002  0  1.026097  0  0  0.135523  0.103509  0  1.033164  0
H  H3  1  0.88800645  0.41020728  0.61269705  1  0  0.113374  0  0.960937  0  0  0.113271  0  1.03837  0  0  0.11679  0  1.034177  0  0  0.137819  0.110589  0  1.041538  0
H  H4  1  0.11199308  0.58978052  0.38730316  1  0  0.113313  0  0.960997  0  0  0.113246  0  1.038398  0  0  0.116729  0  1.034243  0  0  0.137826  0.110563  0  1.04157  0
H  H5  1  0.84165726  0.29185819  0.82024760  1  0  0.119155  0  0.964086  0  0  0.12728  0  1.027841  0  0  0.130432  0  1.026934  0  0  0.107675  0.125063  0  1.028589  0
H  H6  1  0.15836315  0.70813221  0.17974578  1  0  0.119228  0  0.964138  0  0  0.127314  0  1.027915  0  0  0.130465  0  1.027006  0  0  0.107737  0.125102  0  1.028664  0
H  H7  1  0.71386149  0.11266652  0.02224012  1  0  0.086759  0  0.967634  0  0  0.095274  0  1.034262  0  0  0.097724  0  1.033216  0  0  0.097231  0.093966  0  1.034076  0
H  H8  1  0.28613779  0.88732737  0.97776563  1  0  0.086735  0  0.967902  0  0  0.095336  0  1.034431  0  0  0.097788  0  1.033379  0  0  0.097233  0.094026  0  1.034237  0
H  H9  1  0.29976357  0.13996754  0.13948509  1  0  0.106183  0  0.962157  0  0  0.116544  0  1.022037  0  0  0.118846  0  1.022753  0  0  0.101695  0.114877  0  1.02173  0
H  H10  1  0.70022975  0.86004076  0.86052126  1  0  0.106187  0  0.962112  0  0  0.116522  0  1.022019  0  0  0.118823  0  1.022736  0  0  0.101708  0.114863  0  1.021702  0
H  H11  1  0.03520260  0.35113821  0.04921374  1  0  0.070353  0  0.958164  0  0  0.075648  0  1.02879  0  0  0.078587  0  1.026013  0  0  0.106615  0.073466  0  1.030845  0
H  H12  1  0.96480115  0.64887009  0.95078191  1  0  0.070284  0  0.958158  0  0  0.075625  0  1.028748  0  0  0.078566  0  1.025971  0  0  0.106622  0.073447  0  1.030801  0
C  C13  1  0.44392354  0.65156902  0.68062160  1  0  0.173045  0  3.659056  0  0  0.107713  0  3.930106  0  0  0.121496  0  3.941898  0  0  0.158336  0.09858  0  3.921955  0
C  C14  1  0.55607746  0.34842354  0.31937328  1  0  0.173055  0  3.658924  0  0  0.107739  0  3.929962  0  0  0.121525  0  3.941754  0  0  0.158389  0.098598  0  3.921824  0
C  C15  1  0.75697084  0.50695280  0.61867064  1  0  0.158177  0  3.607707  0  0  0.105075  0  3.878086  0  0  0.116366  0  3.889402  0  0  0.155738  0.098242  0  3.869977  0
C  C16  1  0.24302000  0.49303109  0.38131776  1  0  0.158206  0  3.607773  0  0  0.105089  0  3.878102  0  0  0.11641  0  3.889443  0  0  0.155722  0.098251  0  3.869997  0
C  C17  1  0.49718322  0.40700663  0.82776824  1  0  0.342971  0  3.787055  0  0  0.320359  0  4.045822  0  0  0.333615  0  4.062891  0  0  0.224846  0.311887  0  4.03384  0
C  C18  1  0.50280309  0.59299899  0.17222511  1  0  0.342976  0  3.787134  0  0  0.320243  0  4.046092  0  0  0.333493  0  4.063163  0  0  0.224753  0.311764  0  4.034122  0
C  C19  1  0.66224780  0.29781880  0.87099888  1  0  -0.181273  0  3.693845  0  0  -0.199081  0  3.939757  0  0  -0.207692  0  3.961035  0  0  -0.08331  -0.193727  0  3.925652  0
C  C20  1  0.33774939  0.70218103  0.12900177  1  0  -0.181263  0  3.694215  0  0  -0.199017  0  3.940187  0  0  -0.207621  0  3.961471  0  0  -0.083351  -0.193677  0  3.926095  0
C  C21  1  0.59037252  0.19923288  0.98439967  1  0  0.003639  0  3.73169  0  0  -0.012017  0  3.978374  0  0  -0.009135  0  3.998098  0  0  -0.071701  -0.013547  0  3.964794  0
C  C22  1  0.40961422  0.80076563  0.01560293  1  0  0.00356  0  3.732004  0  0  -0.012174  0  3.978669  0  0  -0.009291  0  3.998388  0  0  -0.071705  -0.0137  0  3.96511  0
C  C23  1  0.36151954  0.21490243  0.05009819  1  0  -0.138819  0  3.741728  0  0  -0.15365  0  3.99242  0  0  -0.161009  0  4.015132  0  0  -0.094273  -0.148882  0  3.97679  0
C  C24  1  0.63846866  0.78510344  0.94991169  1  0  -0.138792  0  3.741893  0  0  -0.153574  0  3.992591  0  0  -0.160936  0  4.015305  0  0  -0.094286  -0.148816  0  3.976956  0
C  C25  1  0.21342879  0.33077198  0.99940310  1  0  0.128432  0  3.739851  0  0  0.103058  0  4.003042  0  0  0.109302  0  4.020098  0  0  0.040335  0.099282  0  3.990904  0
C  C26  1  0.78656762  0.66924350  0.00059567  1  0  0.128525  0  3.739952  0  0  0.103105  0  4.003141  0  0  0.109351  0  4.020194  0  0  0.040364  0.099323  0  3.991011  0
C  C27  1  0.03859854  0.94926959  0.33459205  1  0  0.305342  0  4.01837  0  0  0.28461  0  4.322424  0  0  0.306527  0  4.335148  0  0  0.147005  0.269816  0  4.313625  0
C  C28  1  0.96140779  0.05072315  0.66541023  1  0  0.305331  0  4.018217  0  0  0.284599  0  4.322272  0  0  0.306517  0  4.334997  0  0  0.146987  0.269804  0  4.313471  0
S  S29  1  0.80014858  0.96297532  0.26546300  1  0  -0.3361  0  2.143149  0  0  -0.301416  0  2.469693  0  0  -0.318226  0  2.463367  0  0  -0.141254  -0.290248  0  2.47306  0
S  S30  1  0.19984537  0.03701840  0.73453437  1  0  -0.336024  0  2.143359  0  0  -0.301348  0  2.469914  0  0  -0.318156  0  2.463589  0  0  -0.141226  -0.290204  0  2.473319  0
N  N31  1  0.56189296  0.72517654  0.57419975  1  0  -0.262829  0  3.169311  0  0  -0.199859  0  3.458597  0  0  -0.216461  0  3.476794  0  0  -0.23709  -0.188458  0  3.445958  0
N  N32  1  0.43811495  0.27481855  0.42579636  1  0  -0.262963  0  3.16928  0  0  -0.199999  0  3.458569  0  0  -0.216602  0  3.476767  0  0  -0.237196  -0.1886  0  3.445938  0
N  N33  1  0.76005216  0.63356599  0.53372913  1  0  -0.219341  0  2.921968  0  0  -0.20168  0  3.203351  0  0  -0.209856  0  3.219306  0  0  -0.22493  -0.196446  0  3.192359  0
N  N34  1  0.23995716  0.36643897  0.46628099  1  0  -0.219349  0  2.921733  0  0  -0.201693  0  3.203129  0  0  -0.209873  0  3.219084  0  0  -0.224916  -0.196454  0  3.192134  0
N  N35  1  0.56087951  0.51300433  0.71341587  1  0  -0.14016  0  3.538962  0  0  -0.051779  0  3.754222  0  0  -0.069162  0  3.775985  0  0  -0.210296  -0.040403  0  3.738603  0
N  N36  1  0.43914356  0.48700558  0.28658985  1  0  -0.140083  0  3.538577  0  0  -0.051667  0  3.753844  0  0  -0.069051  0  3.775602  0  0  -0.210211  -0.040287  0  3.738228  0
N  N37  1  0.27866398  0.42582942  0.88917288  1  0  -0.384012  0  3.077217  0  0  -0.351576  0  3.350531  0  0  -0.364748  0  3.364989  0  0  -0.31985  -0.34258  0  3.340488  0
N  N38  1  0.72132030  0.57418226  0.11082419  1  0  -0.384024  0  3.077191  0  0  -0.351542  0  3.350538  0  0  -0.364712  0  3.364994  0  0  -0.31981  -0.342535  0  3.340492  0
N  N39  1  0.21428371  0.93340635  0.38170788  1  0  -0.53691  0  2.909273  0  0  -0.483287  0  3.192401  0  0  -0.504221  0  3.199256  0  0  -0.398878  -0.469237  0  3.187661  0
N  N40  1  0.78571381  0.06658622  0.61829024  1  0  -0.536954  0  2.908876  0  0  -0.483334  0  3.192009  0  0  -0.504269  0  3.198865  0  0  -0.398894  -0.46928  0  3.187267  0
