# generated using pymatgen
data_Yb2H11C11NO16
_symmetry_space_group_name_H-M   'P 1'
_cell_length_a   7.33390197
_cell_length_b   10.63179236
_cell_length_c   12.84995029
_cell_angle_alpha   95.68916637
_cell_angle_beta   103.23853136
_cell_angle_gamma   106.63717772
_symmetry_Int_Tables_number   1
_chemical_formula_structural   Yb2H11C11NO16
_chemical_formula_sum   'Yb4 H22 C22 N2 O32'
_cell_volume   919.80141850
_cell_formula_units_Z   2
loop_
 _symmetry_equiv_pos_site_id
 _symmetry_equiv_pos_as_xyz
  1  'x, y, z'
loop_
 _atom_site_type_symbol
 _atom_site_label
 _atom_site_symmetry_multiplicity
 _atom_site_fract_x
 _atom_site_fract_y
 _atom_site_fract_z
 _atom_site_occupancy
 _atom_site_hle17_bader_spin_density
 _atom_site_hle17_ddec_charge
 _atom_site_hle17_ddec_spin_density
 _atom_site_hle17_ddec_sum_bond_order
 _atom_site_hle17_magmom
 _atom_site_hse06_10hf_bader_spin_density
 _atom_site_hse06_10hf_ddec_charge
 _atom_site_hse06_10hf_ddec_spin_density
 _atom_site_hse06_10hf_ddec_sum_bond_order
 _atom_site_hse06_10hf_magmom
 _atom_site_hse06_bader_spin_density
 _atom_site_hse06_ddec_charge
 _atom_site_hse06_ddec_spin_density
 _atom_site_hse06_ddec_sum_bond_order
 _atom_site_hse06_magmom
 _atom_site_pbe_bader_spin_density
 _atom_site_pbe_cm5_charge
 _atom_site_pbe_ddec_charge
 _atom_site_pbe_ddec_spin_density
 _atom_site_pbe_ddec_sum_bond_order
 _atom_site_pbe_magmom
Yb  Yb0  1  0.33142893  0.03887414  0.19091447  1  0  2.169013  0  1.794673  0  0  2.088759  0  2.147566  0  0  2.151952  0  2.073675  0  0  1.594126  2.055776  0  2.173465  0
Yb  Yb1  1  0.66856979  0.96112138  0.80907952  1  0  2.16901  0  1.794661  0  0  2.088603  0  2.147744  0  0  2.151767  0  2.073908  0  0  1.594124  2.055624  0  2.173649  0
Yb  Yb2  1  0.78294330  0.68099402  0.39975419  1  0  2.124029  0  1.751654  0  0  2.02178  0  2.112619  0  0  2.084649  0  2.050043  0  0  1.561939  1.985507  0  2.14059  0
Yb  Yb3  1  0.21706428  0.31900663  0.60025041  1  0  2.12401  0  1.751757  0  0  2.021733  0  2.112785  0  0  2.084526  0  2.050326  0  0  1.561939  1.985391  0  2.14084  0
H  H4  1  0.89142823  0.66384867  0.98933125  1  0  0.130202  0  0.93332  0  0  0.138155  0  0.99276  0  0  0.142417  0  0.989966  0  0  0.118929  0.134958  0  0.995042  0
H  H5  1  0.10855453  0.33614672  0.01066749  1  0  0.130209  0  0.933475  0  0  0.138173  0  0.992873  0  0  0.142435  0  0.990076  0  0  0.11892  0.134975  0  0.995155  0
H  H6  1  0.71219087  0.41601746  0.92080330  1  0  0.121592  0  0.935508  0  0  0.128914  0  0.994766  0  0  0.133139  0  0.991657  0  0  0.113748  0.125792  0  0.997113  0
H  H7  1  0.28777358  0.58397861  0.07918964  1  0  0.12149  0  0.93543  0  0  0.128809  0  0.994694  0  0  0.133034  0  0.991584  0  0  0.113683  0.12569  0  0.997044  0
H  H8  1  0.56063648  0.28003548  0.04605715  1  0  0.112113  0  0.946093  0  0  0.118529  0  1.011287  0  0  0.121759  0  1.009683  0  0  0.11682  0.116128  0  1.012647  0
H  H9  1  0.43934000  0.71996312  0.95394318  1  0  0.112107  0  0.946057  0  0  0.118483  0  1.011306  0  0  0.121713  0  1.009702  0  0  0.116764  0.116083  0  1.012675  0
H  H10  1  0.97035205  0.09631758  0.07816079  1  0  0.447853  0  0.844902  0  0  0.418185  0  0.905383  0  0  0.429657  0  0.88861  0  0  0.303901  0.409839  0  0.917626  0
H  H11  1  0.02964046  0.90367935  0.92184045  1  0  0.447779  0  0.845024  0  0  0.418135  0  0.905453  0  0  0.429609  0  0.888679  0  0  0.303878  0.409796  0  0.917683  0
H  H12  1  0.06365091  0.17711409  0.19653599  1  0  0.44411  0  0.801933  0  0  0.427189  0  0.855209  0  0  0.436029  0  0.844932  0  0  0.328637  0.420608  0  0.863235  0
H  H13  1  0.93635880  0.82289197  0.80346138  1  0  0.444067  0  0.801988  0  0  0.42715  0  0.855248  0  0  0.435991  0  0.844971  0  0  0.328604  0.420567  0  0.863274  0
H  H14  1  0.10192326  0.98558621  0.33785385  1  0  0.445062  0  0.851251  0  0  0.414219  0  0.914212  0  0  0.426419  0  0.896269  0  0  0.304981  0.405509  0  0.927034  0
H  H15  1  0.89807288  0.01440635  0.66214012  1  0  0.445204  0  0.851033  0  0  0.414295  0  0.914113  0  0  0.426504  0  0.896155  0  0  0.30498  0.405566  0  0.926955  0
H  H16  1  0.27890141  0.11629128  0.40784066  1  0  0.462768  0  0.810991  0  0  0.433032  0  0.87234  0  0  0.442984  0  0.857619  0  0  0.319251  0.425799  0  0.883083  0
H  H17  1  0.72109518  0.88369442  0.59215812  1  0  0.46273  0  0.811018  0  0  0.432978  0  0.872416  0  0  0.442935  0  0.857685  0  0  0.319229  0.425747  0  0.883157  0
H  H18  1  0.09975332  0.92756819  0.53182103  1  0  0.443573  0  0.847126  0  0  0.415317  0  0.907762  0  0  0.42709  0  0.890473  0  0  0.308166  0.407083  0  0.919876  0
H  H19  1  0.90025951  0.07243806  0.46817718  1  0  0.443668  0  0.84706  0  0  0.415366  0  0.907736  0  0  0.427144  0  0.890437  0  0  0.308151  0.407124  0  0.919865  0
H  H20  1  0.15120667  0.80881012  0.57547897  1  0  0.456701  0  0.795459  0  0  0.435698  0  0.852887  0  0  0.445405  0  0.838799  0  0  0.329882  0.429014  0  0.860846  0
H  H21  1  0.84881165  0.19119617  0.42451927  1  0  0.456671  0  0.795535  0  0  0.43573  0  0.852849  0  0  0.445404  0  0.838801  0  0  0.3299  0.429052  0  0.860782  0
H  H22  1  0.40918589  0.65733924  0.44401096  1  0  0.449345  0  0.80775  0  0  0.423836  0  0.875515  0  0  0.433391  0  0.861415  0  0  0.323223  0.417234  0  0.884095  0
H  H23  1  0.59083991  0.34268180  0.55600198  1  0  0.449315  0  0.807656  0  0  0.423803  0  0.875538  0  0  0.433358  0  0.861436  0  0  0.323198  0.4172  0  0.884034  0
H  H24  1  0.51447901  0.62763986  0.55513319  1  0  0.456172  0  0.828541  0  0  0.425951  0  0.889458  0  0  0.438347  0  0.871319  0  0  0.309104  0.417533  0  0.901801  0
H  H25  1  0.48553798  0.37236821  0.44487395  1  0  0.456126  0  0.828593  0  0  0.425922  0  0.889479  0  0  0.438315  0  0.871344  0  0  0.309152  0.417509  0  0.901815  0
C  C26  1  0.83631305  0.65212355  0.14627350  1  0  0.118675  0  3.716326  0  0  0.123348  0  3.960329  0  0  0.123043  0  3.978534  0  0  0.125411  0.123279  0  3.948537  0
C  C27  1  0.16367960  0.34786882  0.85372933  1  0  0.118366  0  3.716776  0  0  0.123043  0  3.960791  0  0  0.122744  0  3.978997  0  0  0.125302  0.122979  0  3.948984  0
C  C28  1  0.82472566  0.59867956  0.04019878  1  0  -0.080105  0  3.635258  0  0  -0.103814  0  3.884038  0  0  -0.106155  0  3.902803  0  0  -0.057461  -0.102134  0  3.871373  0
C  C29  1  0.17525705  0.40131419  0.95980156  1  0  -0.080036  0  3.635504  0  0  -0.103733  0  3.884204  0  0  -0.106072  0  3.902966  0  0  -0.057432  -0.102055  0  3.87154  0
C  C30  1  0.72555319  0.46260440  0.00294032  1  0  -0.00946  0  3.669703  0  0  -0.027058  0  3.92745  0  0  -0.027511  0  3.946405  0  0  -0.059398  -0.026739  0  3.91456  0
C  C31  1  0.27442215  0.53739370  0.99705757  1  0  -0.009377  0  3.669464  0  0  -0.026947  0  3.927137  0  0  -0.027402  0  3.946095  0  0  -0.059346  -0.026633  0  3.914258  0
C  C32  1  0.64043031  0.38598750  0.07215677  1  0  -0.077368  0  3.654176  0  0  -0.102456  0  3.905361  0  0  -0.104325  0  3.924765  0  0  -0.059066  -0.101168  0  3.892335  0
C  C33  1  0.35954955  0.61401162  0.92784115  1  0  -0.077304  0  3.653928  0  0  -0.102281  0  3.905165  0  0  -0.104144  0  3.924568  0  0  -0.058994  -0.100998  0  3.89215  0
C  C34  1  0.65713015  0.44822770  0.17655658  1  0  0.103148  0  3.739064  0  0  0.108158  0  3.982656  0  0  0.107561  0  4.001268  0  0  0.123603  0.108563  0  3.970402  0
C  C35  1  0.34285941  0.55177052  0.82344626  1  0  0.103038  0  3.738898  0  0  0.107771  0  3.982824  0  0  0.107163  0  4.001433  0  0  0.123491  0.108175  0  3.970569  0
C  C36  1  0.94595251  0.79472770  0.19872537  1  0  0.677906  0  3.845212  0  0  0.627761  0  4.142386  0  0  0.663366  0  4.132241  0  0  0.234949  0.603743  0  4.149277  0
C  C37  1  0.05404980  0.20526719  0.80127512  1  0  0.678029  0  3.845109  0  0  0.627818  0  4.142366  0  0  0.663397  0  4.132253  0  0  0.234832  0.603797  0  4.149256  0
C  C38  1  0.57101092  0.37859234  0.25903844  1  0  0.708365  0  3.828357  0  0  0.66166  0  4.11717  0  0  0.697728  0  4.105578  0  0  0.24773  0.637031  0  4.124813  0
C  C39  1  0.42897941  0.62140703  0.74096522  1  0  0.708597  0  3.82809  0  0  0.662064  0  4.116744  0  0  0.698137  0  4.105141  0  0  0.24793  0.637435  0  4.124382  0
C  C40  1  0.60665796  0.92544617  0.35321278  1  0  0.567359  0  3.89404  0  0  0.522991  0  4.191256  0  0  0.553885  0  4.182047  0  0  0.21825  0.501985  0  4.197715  0
C  C41  1  0.39335606  0.07455780  0.64678380  1  0  0.56732  0  3.893965  0  0  0.522974  0  4.191154  0  0  0.55387  0  4.181934  0  0  0.218242  0.501969  0  4.197615  0
C  C42  1  0.48086961  0.80424941  0.26340548  1  0  0.568253  0  3.932535  0  0  0.526211  0  4.236368  0  0  0.556833  0  4.227268  0  0  0.210981  0.505416  0  4.242752  0
C  C43  1  0.51914661  0.19574787  0.73659674  1  0  0.568245  0  3.932307  0  0  0.526189  0  4.236163  0  0  0.55681  0  4.22706  0  0  0.211011  0.50539  0  4.242549  0
C  C44  1  0.39457458  0.97725027  0.96136173  1  0  0.558326  0  3.93595  0  0  0.512964  0  4.244164  0  0  0.542439  0  4.236463  0  0  0.217841  0.4925  0  4.250617  0
C  C45  1  0.60541749  0.02275337  0.03862418  1  0  0.557859  0  3.935931  0  0  0.512436  0  4.244237  0  0  0.541908  0  4.23654  0  0  0.21763  0.491973  0  4.250687  0
C  C46  1  0.94215644  0.49437507  0.54378884  1  0  0.541616  0  3.965781  0  0  0.499661  0  4.271791  0  0  0.530341  0  4.26333  0  0  0.19675  0.479172  0  4.277577  0
C  C47  1  0.05784897  0.50562882  0.45621738  1  0  0.541632  0  3.96589  0  0  0.499658  0  4.271931  0  0  0.530338  0  4.263472  0  0  0.196748  0.479169  0  4.277715  0
N  N48  1  0.75414060  0.57818001  0.21210594  1  0  -0.393039  0  3.344206  0  0  -0.357503  0  3.594843  0  0  -0.370708  0  3.616929  0  0  -0.377411  -0.349481  0  3.58045  0
N  N49  1  0.24585323  0.42181448  0.78789772  1  0  -0.392768  0  3.344167  0  0  -0.357152  0  3.594885  0  0  -0.370339  0  3.616961  0  0  -0.377252  -0.349122  0  3.580479  0
O  O50  1  0.02718116  0.87485339  0.14438333  1  0  -0.668272  0  2.055917  0  0  -0.626304  0  2.304108  0  0  -0.653081  0  2.292992  0  0  -0.381944  -0.608865  0  2.310149  0
O  O51  1  0.97282677  0.12513697  0.85561879  1  0  -0.668264  0  2.055807  0  0  -0.626285  0  2.30403  0  0  -0.653057  0  2.292943  0  0  -0.381877  -0.60885  0  2.310073  0
O  O52  1  0.95198934  0.82490660  0.29900039  1  0  -0.706508  0  2.087096  0  0  -0.656585  0  2.324366  0  0  -0.686398  0  2.31489  0  0  -0.367091  -0.63733  0  2.330256  0
O  O53  1  0.04801242  0.17509106  0.70099930  1  0  -0.706636  0  2.087017  0  0  -0.656612  0  2.324291  0  0  -0.686411  0  2.314824  0  0  -0.36706  -0.637345  0  2.330178  0
O  O54  1  0.58904432  0.45213461  0.34801222  1  0  -0.692313  0  2.06519  0  0  -0.642413  0  2.296734  0  0  -0.671342  0  2.285811  0  0  -0.354961  -0.623492  0  2.303585  0
O  O55  1  0.41094988  0.54786005  0.65199225  1  0  -0.692509  0  2.064932  0  0  -0.64265  0  2.296434  0  0  -0.671571  0  2.285505  0  0  -0.355096  -0.623718  0  2.303285  0
O  O56  1  0.48957101  0.25410327  0.23748391  1  0  -0.704641  0  2.096895  0  0  -0.661628  0  2.353447  0  0  -0.689635  0  2.338509  0  0  -0.419022  -0.64339  0  2.361665  0
O  O57  1  0.51041659  0.74589167  0.76251728  1  0  -0.704712  0  2.097072  0  0  -0.661713  0  2.353574  0  0  -0.689716  0  2.338634  0  0  -0.419048  -0.643479  0  2.361795  0
O  O58  1  0.56917055  0.03353645  0.34473322  1  0  -0.65606  0  2.069105  0  0  -0.616196  0  2.307457  0  0  -0.640352  0  2.294414  0  0  -0.373782  -0.600533  0  2.315243  0
O  O59  1  0.43084767  0.96647082  0.65526017  1  0  -0.65606  0  2.069132  0  0  -0.616158  0  2.307465  0  0  -0.640312  0  2.294428  0  0  -0.373777  -0.600496  0  2.315251  0
O  O60  1  0.74125214  0.90818664  0.42708615  1  0  -0.648134  0  2.090427  0  0  -0.590511  0  2.314629  0  0  -0.61774  0  2.306013  0  0  -0.335087  -0.572054  0  2.319949  0
O  O61  1  0.25876248  0.09182142  0.57291127  1  0  -0.648042  0  2.090314  0  0  -0.590482  0  2.314555  0  0  -0.617702  0  2.30594  0  0  -0.335056  -0.572023  0  2.319873  0
O  O62  1  0.50229730  0.69259008  0.27635791  1  0  -0.649512  0  2.082557  0  0  -0.613991  0  2.324732  0  0  -0.639446  0  2.316073  0  0  -0.375774  -0.597757  0  2.330489  0
O  O63  1  0.49770748  0.30741332  0.72365073  1  0  -0.649584  0  2.082119  0  0  -0.614044  0  2.324295  0  0  -0.639489  0  2.315636  0  0  -0.37585  -0.597802  0  2.330051  0
O  O64  1  0.36740424  0.82787179  0.18302269  1  0  -0.658037  0  2.060431  0  0  -0.621036  0  2.299812  0  0  -0.647136  0  2.291553  0  0  -0.380679  -0.603305  0  2.303671  0
O  O65  1  0.63261351  0.17212682  0.81697147  1  0  -0.657987  0  2.060779  0  0  -0.620975  0  2.300206  0  0  -0.647069  0  2.291953  0  0  -0.380674  -0.603246  0  2.304064  0
O  O66  1  0.37332433  0.93476219  0.86329663  1  0  -0.629094  0  2.059262  0  0  -0.597048  0  2.297336  0  0  -0.620801  0  2.288262  0  0  -0.358861  -0.582095  0  2.302879  0
O  O67  1  0.62666583  0.06523996  0.13669654  1  0  -0.62899  0  2.059046  0  0  -0.59694  0  2.297125  0  0  -0.6207  0  2.288054  0  0  -0.35886  -0.581986  0  2.302665  0
O  O68  1  0.25829969  0.98667841  0.00516734  1  0  -0.655492  0  2.10133  0  0  -0.606196  0  2.337052  0  0  -0.632901  0  2.326208  0  0  -0.371833  -0.588998  0  2.343508  0
O  O69  1  0.74168656  0.01331717  0.99482253  1  0  -0.655345  0  2.101351  0  0  -0.605931  0  2.337034  0  0  -0.632622  0  2.326191  0  0  -0.371768  -0.588731  0  2.343492  0
O  O70  1  0.84222894  0.57273645  0.54902853  1  0  -0.63423  0  2.047981  0  0  -0.591709  0  2.282626  0  0  -0.616722  0  2.272595  0  0  -0.379073  -0.575371  0  2.288903  0
O  O71  1  0.15778144  0.42726668  0.45097368  1  0  -0.634172  0  2.047834  0  0  -0.591641  0  2.282481  0  0  -0.616645  0  2.272453  0  0  -0.379061  -0.575296  0  2.28876  0
O  O72  1  0.95591819  0.40617288  0.60208702  1  0  -0.659678  0  2.054994  0  0  -0.624609  0  2.294072  0  0  -0.64952  0  2.284453  0  0  -0.380907  -0.608404  0  2.299951  0
O  O73  1  0.04408465  0.59382806  0.39791916  1  0  -0.659732  0  2.055278  0  0  -0.624663  0  2.294364  0  0  -0.649584  0  2.284745  0  0  -0.380894  -0.608465  0  2.300242  0
O  O74  1  0.09892641  0.15154214  0.13060603  1  0  -0.877259  0  1.839325  0  0  -0.84365  0  2.024024  0  0  -0.863258  0  1.993898  0  0  -0.630915  -0.830945  0  2.0445  0
O  O75  1  0.90106498  0.84844989  0.86939032  1  0  -0.877163  0  1.839412  0  0  -0.843526  0  2.024101  0  0  -0.863133  0  1.993978  0  0  -0.63087  -0.830821  0  2.044574  0
O  O76  1  0.20219881  0.07054382  0.33417756  1  0  -0.927702  0  1.911707  0  0  -0.889767  0  2.105413  0  0  -0.909983  0  2.068036  0  0  -0.65882  -0.876574  0  2.130118  0
O  O77  1  0.79780470  0.92944880  0.66582131  1  0  -0.927768  0  1.911549  0  0  -0.889775  0  2.105309  0  0  -0.909998  0  2.067921  0  0  -0.658786  -0.87656  0  2.130053  0
O  O78  1  0.04120606  0.83075583  0.53141562  1  0  -0.894333  0  1.924137  0  0  -0.857245  0  2.128058  0  0  -0.877827  0  2.093775  0  0  -0.660081  -0.844396  0  2.149282  0
O  O79  1  0.95880810  0.16924879  0.46858420  1  0  -0.894388  0  1.924156  0  0  -0.857366  0  2.128023  0  0  -0.877898  0  2.093801  0  0  -0.660105  -0.844511  0  2.149219  0
O  O80  1  0.53933569  0.67732008  0.49507062  1  0  -0.884808  0  1.862208  0  0  -0.842443  0  2.058752  0  0  -0.863432  0  2.024588  0  0  -0.625948  -0.829287  0  2.080499  0
O  O81  1  0.46068691  0.32269751  0.50494469  1  0  -0.884772  0  1.862156  0  0  -0.842413  0  2.058753  0  0  -0.8634  0  2.024625  0  0  -0.626004  -0.829228  0  2.080373  0
