# generated using pymatgen
data_CuH8C9N4O
_symmetry_space_group_name_H-M   'P 1'
_cell_length_a   7.58161566
_cell_length_b   8.33829926
_cell_length_c   15.40322353
_cell_angle_alpha   89.99967070
_cell_angle_beta   89.99849459
_cell_angle_gamma   97.31116924
_symmetry_Int_Tables_number   1
_chemical_formula_structural   CuH8C9N4O
_chemical_formula_sum   'Cu4 H32 C36 N16 O4'
_cell_volume   965.84061380
_cell_formula_units_Z   4
loop_
 _symmetry_equiv_pos_site_id
 _symmetry_equiv_pos_as_xyz
  1  'x, y, z'
loop_
 _atom_site_type_symbol
 _atom_site_label
 _atom_site_symmetry_multiplicity
 _atom_site_fract_x
 _atom_site_fract_y
 _atom_site_fract_z
 _atom_site_occupancy
 _atom_site_hle17_ddec_charge
 _atom_site_hle17_ddec_spin_density
 _atom_site_hle17_ddec_sum_bond_order
 _atom_site_hle17_magmom
 _atom_site_hse06_10hf_bader_charge
 _atom_site_hse06_10hf_bader_spin_density
 _atom_site_hse06_10hf_ddec_charge
 _atom_site_hse06_10hf_ddec_spin_density
 _atom_site_hse06_10hf_ddec_sum_bond_order
 _atom_site_hse06_10hf_magmom
 _atom_site_hse06_bader_charge
 _atom_site_hse06_bader_spin_density
 _atom_site_hse06_ddec_charge
 _atom_site_hse06_ddec_spin_density
 _atom_site_hse06_ddec_sum_bond_order
 _atom_site_hse06_magmom
 _atom_site_pbe_cm5_charge
 _atom_site_pbe_ddec_charge
 _atom_site_pbe_ddec_spin_density
 _atom_site_pbe_ddec_sum_bond_order
 _atom_site_pbe_magmom
Cu  Cu0  1  0.92277310  0.79879481  0.07438235  1  0.900292  0.613682  1.961816  0.445  1.133765  0.607698  0.895979  0.755442  2.376603  0.605  1.214991  0.711067  0.996358  0.85384  2.283909  0.705  0.759562  0.836407  0.616891  2.433108  0.484
Cu  Cu1  1  0.07720459  0.20123212  0.57437894  1  0.900352  -0.613827  1.961483  -0.445  1.133584  -0.607717  0.895997  -0.755471  2.37635  -0.605  1.215206  -0.711068  0.996352  -0.853834  2.283689  -0.705  0.759493  0.836319  -0.617083  2.433013  -0.484
Cu  Cu2  1  0.58768705  0.70237043  0.96679722  1  0.90447  -0.614559  1.959584  -0.446  1.139233  -0.610593  0.900052  -0.760011  2.378585  -0.608  1.221706  -0.715285  0.992997  -0.860029  2.300661  -0.71  0.76274  0.839255  -0.619345  2.436105  -0.486
Cu  Cu3  1  0.41227849  0.29767306  0.46678940  1  0.904485  0.614701  1.959371  0.446  1.138996  0.610615  0.900079  0.760039  2.378392  0.608  1.221694  0.715275  0.993041  0.860015  2.300384  0.71  0.762755  0.839279  0.619548  2.435936  0.486
H  H4  1  0.29614493  0.94779402  0.12493010  1  0.080645  0.001428  0.958146  0.002  0.139282  0.002887  0.083498  0.001354  1.030392  0.002  0.14468  0.002256  0.084324  0.000999  1.030609  0.001  0.113552  0.082758  0.001456  1.030433  0.002
H  H5  1  0.70382677  0.05216196  0.62492951  1  0.080645  -0.001427  0.958018  -0.002  0.139217  -0.002887  0.083505  -0.001354  1.030307  -0.002  0.144829  -0.002255  0.084316  -0.000999  1.03054  -0.001  0.11357  0.082768  -0.001457  1.03035  -0.002
H  H6  1  0.52447542  0.15449813  0.05717466  1  0.103484  0.000481  0.965895  0.0  0.134349  0.000946  0.115067  0.00049  1.022854  0.001  0.139103  0.000706  0.117254  0.000363  1.023237  0.0  0.106178  0.113444  0.000525  1.022859  0.001
H  H7  1  0.47552347  0.84545655  0.55716137  1  0.10343  -0.000481  0.965795  0.0  0.134281  -0.000946  0.115052  -0.00049  1.022722  -0.001  0.139035  -0.000707  0.11722  -0.000363  1.023122  0.0  0.106139  0.113434  -0.000525  1.022723  -0.001
H  H8  1  0.45109294  0.27944328  0.91503432  1  0.098112  4e-06  0.981878  0.0  0.13286  -0.000161  0.109928  -0.000102  1.03972  0.0  0.136499  -0.000135  0.111605  -9.2e-05  1.03874  0.0  0.104143  0.108657  -8.8e-05  1.040473  0.0
H  H9  1  0.54893538  0.72055757  0.41501294  1  0.098084  -3e-06  0.982013  0.0  0.132839  0.000161  0.109962  0.000102  1.039813  0.0  0.136684  0.000135  0.111636  9.2e-05  1.038831  0.0  0.104199  0.108693  8.8e-05  1.040561  0.0
H  H10  1  0.16624862  0.17593906  0.84111673  1  0.109401  0.000902  0.954743  0.001  0.112832  0.001623  0.121418  0.000784  1.011278  0.001  0.116663  0.001202  0.122959  0.000565  1.012506  0.001  0.109166  0.12038  0.000857  1.010534  0.001
H  H11  1  0.83379249  0.82408719  0.34110498  1  0.109252  -0.000904  0.954717  -0.001  0.113  -0.001622  0.121289  -0.000784  1.011273  -0.001  0.116248  -0.001202  0.122832  -0.000565  1.012495  -0.001  0.109098  0.120256  -0.000858  1.010523  -0.001
H  H12  1  0.82171996  0.03033108  0.89830403  1  0.043725  -0.002263  0.905807  -0.003  0.065723  -0.00205  0.053291  -0.000967  0.964823  -0.001  0.063184  -0.001147  0.050723  -0.000492  0.966507  -0.001  0.102521  0.055292  -0.001376  0.963524  -0.002
H  H13  1  0.17833793  0.96970513  0.39835476  1  0.043669  0.002267  0.906126  0.003  0.065222  0.002057  0.053201  0.000971  0.965167  0.001  0.063015  0.001152  0.050638  0.000495  0.966878  0.001  0.102473  0.055206  0.00138  0.963871  0.002
H  H14  1  0.80822148  0.81628178  0.78586530  1  0.106728  -0.00014  0.97293  0.0  0.054367  0.000177  0.127796  0.000148  1.034065  0.0  0.054291  0.000194  0.127999  0.000148  1.035435  0.0  0.088602  0.127473  0.000128  1.033295  0.0
H  H15  1  0.19185197  0.18365229  0.28586005  1  0.106731  0.000141  0.973031  0.0  0.054282  -0.000176  0.127734  -0.000148  1.03419  0.0  0.054907  -0.000194  0.127942  -0.000148  1.035547  0.0  0.088537  0.127411  -0.000128  1.033415  0.0
H  H16  1  0.02420914  0.77219814  0.81529348  1  0.105172  -0.00028  0.936643  0.0  0.037328  -9.8e-05  0.128106  -0.000116  0.994754  0.0  0.036013  -6.1e-05  0.12871  -8.6e-05  0.995226  0.0  0.086308  0.127648  -0.000126  0.994474  0.0
H  H17  1  0.97583939  0.22772940  0.31524943  1  0.105355  0.00028  0.937029  0.0  0.037603  9.8e-05  0.128238  0.000116  0.995141  0.0  0.037054  6.1e-05  0.128841  8.6e-05  0.995611  0.0  0.086377  0.127782  0.000127  0.994857  0.0
H  H18  1  0.99611627  0.96235803  0.76719763  1  0.109858  0.001116  0.981801  0.002  0.034128  0.00193  0.125696  0.000832  1.051263  0.001  0.031604  0.001397  0.123744  0.000571  1.05564  0.001  0.086202  0.126847  0.000927  1.048368  0.001
H  H19  1  0.00398533  0.03754372  0.26720372  1  0.110032  -0.001117  0.981593  -0.002  0.034212  -0.001933  0.12587  -0.000833  1.051035  -0.001  0.030557  -0.001399  0.123917  -0.000572  1.05541  -0.001  0.086223  0.127024  -0.000928  1.048133  -0.001
H  H20  1  0.19930692  0.60904856  0.92518781  1  0.086646  -0.001384  0.926179  -0.002  0.103312  -0.002946  0.096185  -0.001383  0.987829  -0.002  0.108448  -0.002317  0.097737  -0.001038  0.986749  -0.001  0.120515  0.094854  -0.001478  0.988931  -0.002
H  H21  1  0.80067434  0.39094968  0.42518182  1  0.086638  0.001385  0.92613  0.002  0.103296  0.002946  0.096141  0.001384  0.987766  0.002  0.108817  0.002317  0.097692  0.001038  0.986692  0.001  0.120541  0.094817  0.001479  0.988858  0.002
H  H22  1  0.95058465  0.42603825  0.99485831  1  0.117762  -0.000355  0.942657  0.0  0.121442  -0.000809  0.127874  -0.0004  1.000527  0.0  0.125126  -0.000605  0.130929  -0.000293  0.999931  0.0  0.113227  0.125464  -0.000429  1.001579  0.0
H  H23  1  0.04941241  0.57392985  0.49486008  1  0.117701  0.000356  0.942722  0.0  0.121419  0.000808  0.127875  0.000399  1.000491  0.0  0.12507  0.000605  0.130934  0.000292  0.999886  0.0  0.113202  0.125469  0.000429  1.001547  0.0
H  H24  1  0.01005589  0.29442970  0.13703310  1  0.101816  -2.9e-05  0.934563  0.0  0.105707  0.00016  0.116469  8.5e-05  0.988191  0.0  0.125478  0.00013  0.118333  7.7e-05  0.987254  0.0  0.111355  0.115026  7e-05  0.988929  0.0
H  H25  1  0.98993444  0.70553213  0.63703703  1  0.10181  2.9e-05  0.934699  0.0  0.106113  -0.00016  0.116451  -8.5e-05  0.988307  0.0  0.125505  -0.00013  0.118315  -7.7e-05  0.987372  0.0  0.111363  0.115008  -7e-05  0.989046  0.0
H  H26  1  0.30706515  0.36798696  0.20808697  1  0.105105  -0.000682  0.981669  -0.001  0.092801  -0.001355  0.115019  -0.000629  1.042962  -0.001  0.094279  -0.001012  0.116727  -0.000451  1.044486  -0.001  0.107651  0.11384  -0.000683  1.042028  -0.001
H  H27  1  0.69290928  0.63201118  0.70808588  1  0.105163  0.000684  0.981445  0.001  0.092994  0.001356  0.115038  0.000629  1.042807  0.001  0.094238  0.001012  0.116747  0.000451  1.04433  0.001  0.10763  0.113853  0.000684  1.041889  0.001
H  H28  1  0.57515111  0.68464375  0.18574654  1  0.036836  0.002712  0.905856  0.003  0.031166  0.003066  0.04738  0.001462  0.966723  0.002  0.026287  0.001849  0.04389  0.000823  0.969209  0.001  0.100287  0.049657  0.001953  0.965157  0.002
H  H29  1  0.42478168  0.31534990  0.68572528  1  0.036658  -0.002713  0.906091  -0.003  0.031672  -0.003069  0.047238  -0.001464  0.966854  -0.002  0.026237  -0.001851  0.043748  -0.000824  0.96934  -0.001  0.100216  0.049521  -0.001956  0.965284  -0.002
H  H30  1  0.79895478  0.49727324  0.21759783  1  0.111431  0.00021  0.966489  0.0  0.066064  -6.9e-05  0.131226  -8.1e-05  1.028232  0.0  0.065652  -0.000115  0.131352  -9.7e-05  1.029631  0.0  0.087408  0.130916  -5.7e-05  1.027504  0.0
H  H31  1  0.20101668  0.50273564  0.71760935  1  0.111277  -0.000212  0.966431  0.0  0.065783  6.9e-05  0.131083  8.2e-05  1.028184  0.0  0.065363  0.000116  0.131208  9.7e-05  1.029585  0.0  0.087357  0.130778  5.7e-05  1.027451  0.0
H  H32  1  0.67299752  0.34219722  0.15621500  1  0.104729  0.000279  0.961585  0.0  0.045905  0.00012  0.124838  0.000102  1.024348  0.0  0.04495  7.7e-05  0.125405  7.1e-05  1.024742  0.0  0.084612  0.124304  0.000115  1.024246  0.0
H  H33  1  0.32700150  0.65783444  0.65625229  1  0.104714  -0.000278  0.961793  0.0  0.045512  -0.00012  0.124829  -0.000102  1.024544  0.0  0.044859  -7.7e-05  0.125401  -7.1e-05  1.024936  0.0  0.084576  0.124294  -0.000115  1.024449  0.0
H  H34  1  0.58274769  0.41890585  0.25332305  1  0.112527  -0.001041  0.980453  -0.002  0.059789  -0.001824  0.128298  -0.000786  1.049549  -0.001  0.056432  -0.001286  0.12681  -0.000523  1.052814  -0.001  0.086208  0.128984  -0.000887  1.047552  -0.001
H  H35  1  0.41722872  0.58105771  0.75334580  1  0.112526  0.001043  0.980486  0.002  0.059215  0.001825  0.128255  0.000786  1.049627  0.001  0.05642  0.001287  0.126765  0.000524  1.052893  0.001  0.086179  0.128948  0.000888  1.047621  0.001
C  C36  1  0.27476027  0.00101259  0.06178010  1  0.127879  -0.005453  3.704949  -0.007  0.472922  -0.002888  0.096174  -0.001093  3.971452  -0.003  0.415412  -0.00431  0.103787  -0.002129  3.994692  -0.004  0.043516  0.091305  -0.000287  3.956412  -0.002
C  C37  1  0.72522852  0.99895652  0.56177737  1  0.127881  0.005438  3.704654  0.007  0.473127  0.002889  0.096142  0.001093  3.971148  0.003  0.416493  0.004312  0.103762  0.002128  3.994393  0.004  0.043579  0.091279  0.000287  3.956104  0.002
C  C38  1  0.39877044  0.11762350  0.02442784  1  -0.117835  0.008113  3.734969  0.009  -0.073246  0.005954  -0.131525  0.003892  3.986441  0.004  -0.002906  0.005662  -0.14026  0.003633  4.009569  0.004  -0.085516  -0.125966  0.003698  3.971061  0.004
C  C39  1  0.60123792  0.88234864  0.52442125  1  -0.117825  -0.008101  3.734592  -0.009  -0.07347  -0.005956  -0.131516  -0.003892  3.986116  -0.004  -0.003095  -0.005663  -0.140235  -0.003633  4.009245  -0.004  -0.085615  -0.125957  -0.0037  3.970742  -0.004
C  C40  1  0.35896827  0.18426367  0.94486454  1  0.009594  -0.006535  3.711092  -0.006  0.04768  -0.004008  -0.009693  -0.00253  3.95601  -0.003  0.053301  -0.004704  -0.004654  -0.002852  3.974813  -0.003  -0.068254  -0.012764  -0.002058  3.943054  -0.002
C  C41  1  0.64104798  0.81572823  0.44485335  1  0.009705  0.006528  3.710496  0.006  0.047867  0.00401  -0.009714  0.002531  3.955581  0.003  0.052806  0.004705  -0.004667  0.002852  3.974372  0.003  -0.068179  -0.012784  0.00206  3.942633  0.002
C  C42  1  0.19960581  0.12801572  0.90392098  1  -0.15442  0.005458  3.716115  0.005  -0.094808  0.003601  -0.172244  0.002526  3.962721  0.002  -0.107472  0.004192  -0.181434  0.002756  3.985516  0.003  -0.083119  -0.166582  0.002217  3.947365  0.002
C  C43  1  0.80042449  0.87199499  0.40391404  1  -0.154128  -0.005447  3.71561  -0.005  -0.095026  -0.003603  -0.171951  -0.002528  3.962234  -0.002  -0.107085  -0.004195  -0.181136  -0.002757  3.985027  -0.003  -0.083016  -0.166286  -0.002219  3.946867  -0.002
C  C44  1  0.08245332  0.00758007  0.94349158  1  0.205005  -0.006416  3.660153  -0.007  0.454598  -0.004027  0.207947  -0.002097  3.896543  -0.003  0.471779  -0.005005  0.217825  -0.002705  3.916272  -0.004  0.122159  0.201774  -0.001447  3.883559  -0.002
C  C45  1  0.91756008  0.99242877  0.44349311  1  0.204721  0.006413  3.660551  0.007  0.454703  0.00403  0.207678  0.0021  3.896892  0.003  0.471259  0.00501  0.217574  0.002707  3.916636  0.004  0.122001  0.201509  0.00145  3.883904  0.002
C  C46  1  0.90948770  0.93411063  0.90282309  1  0.220363  -0.000399  3.698922  -0.002  0.519562  0.000519  0.209434  0.000469  3.953554  0.0  0.548063  0.000594  0.220977  0.000459  3.97  0.0  -0.007801  0.200551  0.000455  3.942142  0.0
C  C47  1  0.09053673  0.06590493  0.40283512  1  0.220287  0.000398  3.699604  0.002  0.519345  -0.000525  0.209372  -0.000473  3.954248  0.0  0.549214  -0.000601  0.220845  -0.000461  3.970822  0.0  -0.007901  0.200492  -0.000456  3.942838  0.0
C  C48  1  0.93742814  0.86803673  0.81189530  1  -0.340678  0.006547  3.656582  0.007  -0.085055  0.004212  -0.421594  0.003138  3.894675  0.003  -0.085566  0.002611  -0.424532  0.001972  3.907641  0.002  -0.25045  -0.419303  0.0037  3.885808  0.004
C  C49  1  0.06263941  0.13190296  0.31188604  1  -0.341024  -0.006562  3.657013  -0.007  -0.085  -0.004223  -0.421827  -0.003146  3.894891  -0.003  -0.086188  -0.002615  -0.424757  -0.001976  3.907898  -0.002  -0.250399  -0.419528  -0.003709  3.885998  -0.004
C  C50  1  0.53199815  0.09778592  0.31520186  1  0.519207  -0.004321  3.996795  -0.002  1.630927  8.3e-05  0.496951  0.000409  4.272721  0.003  1.703623  -0.001051  0.529126  -0.000492  4.278912  0.002  0.318092  0.475463  0.000927  4.267771  0.004
C  C51  1  0.46799520  0.90221896  0.81519757  1  0.51885  0.004321  3.996684  0.002  1.630989  -8.1e-05  0.49658  -0.000405  4.27257  -0.003  1.703419  0.001051  0.528756  0.000494  4.278759  -0.002  0.317896  0.47509  -0.000924  4.267621  -0.004
C  C52  1  0.25902605  0.58233221  0.34490569  1  0.480761  -0.001189  3.993989  -0.001  1.56997  -0.001398  0.457155  -0.000984  4.275346  -0.001  1.637267  -0.001348  0.484972  -0.000928  4.281368  -0.001  0.298202  0.438498  -0.000882  4.271123  -0.001
C  C53  1  0.74098684  0.41770121  0.84491248  1  0.480675  0.001195  3.994572  0.001  1.570223  0.0014  0.457044  0.000985  4.275909  0.001  1.637275  0.001348  0.484864  0.000928  4.281942  0.001  0.298246  0.438386  0.000882  4.271669  0.001
C  C54  1  0.21532624  0.55325355  0.98821486  1  0.132101  0.005507  3.701031  0.007  0.502635  0.002805  0.096759  0.001064  3.97711  0.003  0.520099  0.003925  0.105085  0.001856  3.99722  0.004  0.050287  0.091144  0.000423  3.964552  0.002
C  C55  1  0.78465250  0.44675092  0.48821344  1  0.132334  -0.005509  3.700996  -0.007  0.502938  -0.002806  0.097093  -0.001065  3.976989  -0.003  0.51922  -0.003925  0.105412  -0.001858  3.997097  -0.004  0.050354  0.09149  -0.000425  3.964412  -0.002
C  C56  1  0.07895756  0.45055889  0.02692947  1  -0.117359  -0.007553  3.725477  -0.008  -0.015626  -0.005266  -0.138109  -0.003548  3.994381  -0.004  -0.014606  -0.00508  -0.145774  -0.003299  4.013788  -0.004  -0.080052  -0.133857  -0.003384  3.982836  -0.004
C  C57  1  0.92103435  0.54941925  0.52693091  1  -0.117455  0.007553  3.725752  0.008  -0.015096  0.005264  -0.138276  0.003548  3.994578  0.004  -0.013746  0.005079  -0.145947  0.003299  4.013993  0.004  -0.080047  -0.134018  0.003385  3.983019  0.004
C  C58  1  0.11192028  0.38038452  0.10655102  1  0.016879  0.005919  3.695214  0.006  -0.086329  0.003531  -0.002736  0.002203  3.943156  0.002  -0.109523  0.004069  0.003027  0.002445  3.961238  0.003  -0.0603  -0.006476  0.001808  3.931216  0.002
C  C59  1  0.88807312  0.61959716  0.60654876  1  0.016864  -0.005919  3.695158  -0.006  -0.087539  -0.003529  -0.002713  -0.002201  3.943058  -0.002  -0.109715  -0.00407  0.003054  -0.002445  3.961123  -0.003  -0.060349  -0.00645  -0.001809  3.931122  -0.002
C  C60  1  0.27731198  0.41976080  0.14579687  1  -0.162547  -0.004509  3.720771  -0.004  -0.015964  -0.002934  -0.178465  -0.00204  3.963582  -0.002  -0.016281  -0.003458  -0.18874  -0.002256  3.98764  -0.002  -0.085845  -0.172125  -0.001773  3.94753  -0.002
C  C61  1  0.72266557  0.58022627  0.64579492  1  -0.162536  0.004511  3.720288  0.004  -0.015697  0.002935  -0.178385  0.00204  3.963056  0.002  -0.016345  0.003459  -0.18866  0.002256  3.987118  0.002  -0.085731  -0.17204  0.001775  3.946996  0.002
C  C62  1  0.40771425  0.52638803  0.10459733  1  0.202301  0.005424  3.648813  0.006  0.501173  0.003707  0.204803  0.001887  3.886293  0.002  0.517492  0.004388  0.214759  0.002327  3.905686  0.003  0.121218  0.198731  0.001374  3.872886  0.002
C  C63  1  0.59225480  0.47362630  0.60459222  1  0.202396  -0.005424  3.648895  -0.006  0.501232  -0.003704  0.204754  -0.001885  3.886471  -0.002  0.517116  -0.004385  0.214703  -0.002326  3.905869  -0.003  0.121017  0.19868  -0.001374  3.873062  -0.002
C  C64  1  0.59048649  0.58111377  0.14220313  1  0.224203  0.000267  3.691889  0.001  0.543108  -0.00073  0.212878  -0.000565  3.950159  0.0  0.577778  -0.000838  0.224783  -0.000578  3.967081  0.0  -0.008665  0.204104  -0.000513  3.938625  0.0
C  C65  1  0.40947652  0.41890963  0.64219471  1  0.224033  -0.000265  3.692006  -0.001  0.542018  0.000731  0.212893  0.000566  3.949973  0.0  0.577178  0.000835  0.224796  0.000578  3.966913  0.0  -0.008486  0.204129  0.000516  3.938422  0.0
C  C66  1  0.66474113  0.45073811  0.19561961  1  -0.352169  -0.007825  3.666481  -0.008  -0.122114  -0.005552  -0.430761  -0.004028  3.902454  -0.004  -0.122805  -0.003548  -0.433371  -0.00257  3.914424  -0.003  -0.254753  -0.428866  -0.004696  3.894747  -0.005
C  C67  1  0.33523602  0.54927475  0.69563573  1  -0.351893  0.007831  3.666202  0.008  -0.120551  0.005554  -0.430572  0.00403  3.902176  0.004  -0.122128  0.003549  -0.433186  0.002571  3.914151  0.003  -0.254649  -0.42868  0.0047  3.894462  0.005
C  C68  1  0.08704608  0.70819405  0.24757760  1  0.513101  -0.005606  4.009374  -0.003  1.63199  -0.001814  0.487489  -0.001019  4.286784  0.002  1.701286  -0.003049  0.520509  -0.001956  4.291293  0.001  0.318696  0.465539  -0.00034  4.28362  0.002
C  C69  1  0.91294115  0.29180709  0.74758261  1  0.513173  0.005594  4.009189  0.003  1.63207  0.001815  0.487526  0.00102  4.286607  -0.002  1.701202  0.003047  0.520545  0.001955  4.291122  -0.001  0.318845  0.465581  0.000339  4.283442  -0.002
C  C70  1  0.66205339  0.01123769  0.19076163  1  0.467266  -0.002855  4.012748  -0.003  1.540133  -0.001872  0.444317  -0.001187  4.303423  -0.002  1.605503  -0.001795  0.471029  -0.001136  4.312157  -0.002  0.289247  0.426358  -0.001048  4.297341  -0.001
C  C71  1  0.33799121  0.98880310  0.69075613  1  0.467285  0.002848  4.012679  0.003  1.538886  0.001874  0.444295  0.001188  4.303388  0.002  1.605955  0.001795  0.471025  0.001136  4.312119  0.002  0.288992  0.426334  0.001047  4.297313  0.001
N  N72  1  0.11980772  0.94865468  0.02233843  1  -0.339177  0.071714  3.327528  0.091  -1.261951  0.08703  -0.295983  0.056223  3.61861  0.077  -1.33125  0.074836  -0.329807  0.048047  3.640254  0.069  -0.346259  -0.275765  0.053816  3.605543  0.071
N  N73  1  0.88019223  0.05133200  0.52234141  1  -0.339242  -0.071723  3.327394  -0.091  -1.261889  -0.087035  -0.295956  -0.056228  3.618329  -0.077  -1.331906  -0.07484  -0.329776  -0.048048  3.639972  -0.069  -0.346255  -0.275718  -0.053838  3.605264  -0.071
N  N74  1  0.37573690  0.58889908  0.02576653  1  -0.344161  -0.063689  3.332556  -0.081  -1.252308  -0.078375  -0.30267  -0.05086  3.632284  -0.069  -1.318191  -0.067231  -0.334125  -0.043426  3.652075  -0.062  -0.350378  -0.283194  -0.048732  3.620497  -0.064
N  N75  1  0.62423192  0.41111171  0.52576447  1  -0.344436  0.063687  3.332691  0.081  -1.252634  0.078367  -0.303003  0.050854  3.632549  0.069  -1.317184  0.067227  -0.334444  0.043422  3.652299  0.062  -0.350475  -0.283536  0.048741  3.620774  0.064
N  N76  1  0.76578595  0.00608273  0.13384237  1  -0.591783  0.002164  2.698003  0.004  -1.232726  -2.9e-05  -0.583514  0.000175  2.969167  0.001  -1.275403  -0.000789  -0.602606  -0.000253  2.967507  0.001  -0.379862  -0.571658  0.000637  2.970626  0.001
N  N77  1  0.23427230  0.99398680  0.63382196  1  -0.591903  -0.002156  2.69753  -0.004  -1.231981  2.6e-05  -0.583635  -0.000176  2.968744  -0.001  -1.275921  0.000786  -0.60273  0.000251  2.967069  -0.001  -0.379685  -0.571758  -0.000638  2.970223  -0.001
N  N78  1  0.53626910  0.00520658  0.24855490  1  -0.467992  0.002604  3.288669  0.004  -1.405072  0.000994  -0.41844  0.000697  3.542048  0.001  -1.463145  -0.000104  -0.442457  6e-05  3.543588  0.001  -0.314259  -0.401467  0.001248  3.539919  0.002
N  N79  1  0.46374698  0.99481269  0.74854711  1  -0.467806  -0.002599  3.288724  -0.004  -1.404307  -0.000993  -0.418211  -0.000696  3.542044  -0.001  -1.4631  0.000111  -0.442247  -5.5e-05  3.543602  -0.001  -0.314048  -0.401233  -0.001246  3.539909  -0.002
N  N80  1  0.02559469  0.75308604  0.18305182  1  -0.62152  0.031589  3.04703  0.037  -1.325136  0.041403  -0.596649  0.028643  3.367227  0.035  -1.37146  0.03987  -0.627153  0.027549  3.357045  0.034  -0.430295  -0.578612  0.02576  3.375059  0.03
N  N81  1  0.97436756  0.24689075  0.68305813  1  -0.621425  -0.031577  3.046692  -0.037  -1.324941  -0.041399  -0.596529  -0.02864  3.36687  -0.035  -1.371044  -0.039866  -0.627026  -0.027545  3.356701  -0.034  -0.430327  -0.578477  -0.025766  3.374721  -0.03
N  N82  1  0.51387307  0.17328670  0.37859443  1  -0.618739  0.030966  3.010673  0.037  -1.307318  0.040707  -0.600596  0.027948  3.331482  0.034  -1.352965  0.038211  -0.629342  0.026253  3.324449  0.033  -0.426862  -0.581854  0.025496  3.337443  0.03
N  N83  1  0.48609909  0.82671350  0.87858496  1  -0.618458  -0.03095  3.010927  -0.037  -1.307533  -0.040704  -0.600325  -0.027947  3.331769  -0.034  -1.352572  -0.038209  -0.629075  -0.026253  3.324789  -0.033  -0.426756  -0.581581  -0.025483  3.337735  -0.03
N  N84  1  0.36707655  0.50605305  0.37291354  1  -0.583964  -0.001845  2.762588  -0.001  -1.257861  -0.002602  -0.566612  -0.00139  3.034288  -0.001  -1.302688  -0.002853  -0.585236  -0.001463  3.032407  -0.001  -0.377259  -0.554589  -0.001191  3.036806  0.0
N  N85  1  0.63292719  0.49398233  0.87292472  1  -0.583946  0.001835  2.762793  0.001  -1.258281  0.002598  -0.566567  0.001387  3.034419  0.001  -1.303066  0.002849  -0.585187  0.00146  3.032557  0.001  -0.377248  -0.554537  0.00119  3.036926  0.0
N  N86  1  0.13670804  0.67043514  0.32374387  1  -0.462099  -0.001372  3.328796  -0.001  -1.382966  -0.001967  -0.408801  -0.001082  3.58212  -0.001  -1.434035  -0.002284  -0.431875  -0.00122  3.581821  -0.001  -0.307748  -0.392924  -0.000837  3.581548  -0.001
N  N87  1  0.86330572  0.32960588  0.82375134  1  -0.462196  0.00137  3.329071  0.001  -1.382907  0.001965  -0.408845  0.00108  3.582364  0.001  -1.433958  0.002286  -0.431921  0.001222  3.582069  0.001  -0.307884  -0.392963  0.000836  3.581782  0.001
O  O88  1  0.83267288  0.80823496  0.95774477  1  -0.591189  0.042787  2.169517  0.056  -1.054405  0.030586  -0.600651  0.018187  2.525452  0.026  -1.123802  0.023562  -0.670067  0.013699  2.531402  0.02  -0.390948  -0.552462  0.017595  2.520721  0.025
O  O89  1  0.16727660  0.19184132  0.45773201  1  -0.590908  -0.042809  2.169465  -0.056  -1.053957  -0.03059  -0.600452  -0.018191  2.525508  -0.026  -1.124107  -0.023563  -0.669848  -0.013696  2.531482  -0.02  -0.390845  -0.552259  -0.01761  2.5208  -0.025
O  O90  1  0.70532556  0.63450853  0.07227927  1  -0.591769  -0.04358  2.081964  -0.057  -1.051883  -0.031288  -0.602969  -0.018649  2.428436  -0.027  -1.125215  -0.023223  -0.672278  -0.013573  2.434559  -0.02  -0.383076  -0.55623  -0.017988  2.424614  -0.025
O  O91  1  0.29462141  0.36557161  0.57226862  1  -0.591547  0.043612  2.081969  0.057  -1.051811  0.0313  -0.60275  0.018658  2.428357  0.027  -1.125388  0.023238  -0.672064  0.013581  2.434492  0.02  -0.382912  -0.556003  0.017999  2.424551  0.025
