# generated using pymatgen
data_CuH28C29N8O3
_symmetry_space_group_name_H-M   'P 1'
_cell_length_a   10.91528512
_cell_length_b   12.66101828
_cell_length_c   13.17677483
_cell_angle_alpha   105.32826721
_cell_angle_beta   100.87949812
_cell_angle_gamma   117.19950792
_symmetry_Int_Tables_number   1
_chemical_formula_structural   CuH28C29N8O3
_chemical_formula_sum   'Cu2 H56 C58 N16 O6'
_cell_volume   1456.75444444
_cell_formula_units_Z   2
loop_
 _symmetry_equiv_pos_site_id
 _symmetry_equiv_pos_as_xyz
  1  'x, y, z'
loop_
 _atom_site_type_symbol
 _atom_site_label
 _atom_site_symmetry_multiplicity
 _atom_site_fract_x
 _atom_site_fract_y
 _atom_site_fract_z
 _atom_site_occupancy
 _atom_site_pbe_bader_charge
 _atom_site_pbe_bader_spin_density
 _atom_site_pbe_cm5_charge
 _atom_site_pbe_ddec_charge
 _atom_site_pbe_ddec_spin_density
 _atom_site_pbe_ddec_sum_bond_order
 _atom_site_pbe_magmom
Cu  Cu0  1  0.36407818  0.19190871  0.48075138  1  0.990911  0.505406  0.689159  0.644124  0.676307  2.413688  0.506
Cu  Cu1  1  0.63590421  0.80809108  0.51925968  1  0.990871  0.50534  0.689091  0.644056  0.67623  2.41377  0.506
H  H2  1  0.31421433  0.91301180  0.37928238  1  0.101443  0.000421  0.11479  0.109825  9e-05  1.032514  0.0
H  H3  1  0.68579755  0.08699250  0.62071752  1  0.1016  0.000419  0.114791  0.109769  9e-05  1.032601  0.0
H  H4  1  0.33730423  0.78887195  0.52026341  1  0.178193  0.000588  0.123468  0.125071  0.000181  1.053651  0.0
H  H5  1  0.66271667  0.21112695  0.47973426  1  0.178292  0.000588  0.123496  0.124929  0.000181  1.053746  0.0
H  H6  1  0.32804250  0.11644793  0.69489654  1  0.126309  0.000488  0.134259  0.097808  0.000181  1.004307  0.0
H  H7  1  0.67194458  0.88353401  0.30510939  1  0.126113  0.000488  0.134281  0.097913  0.000181  1.004217  0.0
H  H8  1  0.42292346  0.00770593  0.80992090  1  0.06525  -2.8e-05  0.115634  0.099751  -3.6e-05  0.950778  0.0
H  H9  1  0.57707990  0.99228673  0.19007718  1  0.065157  -2.8e-05  0.115634  0.099769  -3.6e-05  0.950835  0.0
H  H10  1  0.40163042  0.86019489  0.73265279  1  0.13413  0.000324  0.120154  0.123572  0.0003  1.004  0.0
H  H11  1  0.59836238  0.13979248  0.26733635  1  0.134379  0.000324  0.120197  0.123628  0.0003  1.004086  0.0
H  H12  1  0.30356551  0.81689410  0.89425038  1  0.049306  3.1e-05  0.104794  0.108709  1.3e-05  0.983042  0.0
H  H13  1  0.69641327  0.18309166  0.10573169  1  0.049085  3e-05  0.104754  0.10873  1.3e-05  0.982888  0.0
H  H14  1  0.07536338  0.71451766  0.93640792  1  0.062364  -2e-06  0.095297  0.093135  -5e-06  1.025641  0.0
H  H15  1  0.92462650  0.28546779  0.06358411  1  0.062367  -2e-06  0.095236  0.093112  -5e-06  1.025717  0.0
H  H16  1  0.83960441  0.74908069  0.65877908  1  0.106761  -0.000422  0.097248  0.097525  -0.00066  1.05115  0.0
H  H17  1  0.16040479  0.25092716  0.34121595  1  0.106794  -0.000422  0.097229  0.097444  -0.00066  1.051183  0.0
H  H18  1  0.06628789  0.85022510  0.61564445  1  0.06471  -1.8e-05  0.090751  0.084093  -2.4e-05  1.06478  0.0
H  H19  1  0.93372186  0.14978197  0.38435655  1  0.064751  -1.8e-05  0.090767  0.084147  -2.4e-05  1.064789  0.0
H  H20  1  0.82744209  0.68486736  0.91551694  1  0.080238  1.5e-05  0.108686  0.09257  4e-06  1.015231  0.0
H  H21  1  0.17255895  0.31512305  0.08446961  1  0.080253  1.5e-05  0.108577  0.092457  4e-06  1.015381  0.0
H  H22  1  0.73047519  0.69688313  0.79916478  1  0.115814  -3.4e-05  0.113787  0.110124  -1.6e-05  1.004655  0.0
H  H23  1  0.26951679  0.30311746  0.20082743  1  0.115738  -3.3e-05  0.113823  0.110207  -1.6e-05  1.004607  0.0
H  H24  1  0.76055217  0.46424663  0.90270920  1  0.18375  -1.3e-05  0.112002  0.114048  -1.2e-05  1.084991  0.0
H  H25  1  0.23942680  0.53574765  0.09727421  1  0.184006  -1.3e-05  0.112041  0.11407  -1.1e-05  1.084982  0.0
H  H26  1  0.60591387  0.22127070  0.72380371  1  0.082769  -3.3e-05  0.107859  0.099128  -3.7e-05  1.027024  0.0
H  H27  1  0.39406748  0.77871622  0.27618359  1  0.082983  -3.2e-05  0.107855  0.099097  -3.7e-05  1.027132  0.0
H  H28  1  0.63071353  0.49953733  0.59618635  1  0.155676  0.000167  0.134307  0.108276  0.000176  1.012825  0.0
H  H29  1  0.36929877  0.50046470  0.40379788  1  0.155756  0.000167  0.134289  0.108319  0.000176  1.012944  0.0
H  H30  1  0.08364646  0.08838094  0.55526392  1  0.054743  0.000558  0.109007  0.097668  0.000201  1.051339  0.0
H  H31  1  0.91633930  0.91162645  0.44474493  1  0.054445  0.000557  0.108971  0.097563  0.000201  1.051366  0.0
H  H32  1  0.00047793  0.25605694  0.65483253  1  0.143389  0.00059  0.119029  0.114516  0.000316  1.04682  0.0
H  H33  1  0.99948837  0.74394797  0.34514167  1  0.142708  0.00059  0.119059  0.114537  0.000316  1.046865  0.0
H  H34  1  0.40296640  0.47104929  0.61123195  1  0.182877  0.00067  0.137551  0.111109  0.000629  1.020357  0.0
H  H35  1  0.59705602  0.52897264  0.38881858  1  0.182501  0.00067  0.137543  0.110922  0.000629  1.020569  0.0
H  H36  1  0.31379755  0.59780439  0.72014955  1  0.17467  -9e-06  0.114457  0.122146  4e-06  1.020933  0.0
H  H37  1  0.68620098  0.40220906  0.27985813  1  0.174523  -9e-06  0.114485  0.122139  4e-06  1.020914  0.0
H  H38  1  0.16371712  0.51458811  0.76282218  1  0.100773  0.000213  0.109786  0.102573  0.000121  1.014285  0.0
H  H39  1  0.83627089  0.48542182  0.23717244  1  0.101033  0.000213  0.109795  0.102601  0.000121  1.014181  0.0
H  H40  1  0.26155453  0.58185763  0.52088324  1  0.087173  -7.4e-05  0.100342  0.100009  -0.000127  1.038591  0.0
H  H41  1  0.73843861  0.41814147  0.47912320  1  0.087087  -7.4e-05  0.100328  0.099967  -0.000127  1.038659  0.0
H  H42  1  0.90965972  0.43927827  0.64807032  1  0.069266  -4e-06  0.097936  0.099338  4e-06  1.019747  0.0
H  H43  1  0.09033845  0.56072477  0.35193555  1  0.069115  -4e-06  0.097933  0.099307  4e-06  1.019779  0.0
H  H44  1  0.75554651  0.89785851  0.02092075  1  0.053315  -1.2e-05  0.101039  0.100751  -1.5e-05  0.995756  0.0
H  H45  1  0.24446114  0.10214483  0.97908435  1  0.053171  -1.1e-05  0.10106  0.100734  -1.5e-05  0.995687  0.0
H  H46  1  0.78030556  0.96495803  0.86308352  1  0.105512  6.4e-05  0.101069  0.109177  0.000148  1.038471  0.0
H  H47  1  0.21970734  0.03504464  0.13692525  1  0.105388  6.4e-05  0.101153  0.109353  0.000148  1.038137  0.0
H  H48  1  0.87267953  0.90549948  0.20188897  1  0.043547  1.3e-05  0.109341  0.086047  3.2e-05  0.996252  0.0
H  H49  1  0.12732695  0.09450012  0.79811884  1  0.044111  1.3e-05  0.109339  0.086061  3.2e-05  0.996247  0.0
H  H50  1  0.06789853  0.98550474  0.26195795  1  0.079661  -0.000561  0.11456  0.100748  -0.000867  0.988198  0.0
H  H51  1  0.93210002  0.01449214  0.73806471  1  0.07974  -0.000561  0.114602  0.100703  -0.000867  0.988106  0.0
H  H52  1  0.18515369  0.85110292  0.19696187  1  0.135861  0.000141  0.123306  0.129684  0.000188  1.013942  0.0
H  H53  1  0.81484398  0.14890094  0.80304033  1  0.135811  0.000141  0.123315  0.129704  0.000188  1.013838  0.0
H  H54  1  0.72145180  0.65953950  0.09614691  1  0.105623  1e-06  0.133125  0.101599  3e-06  0.971547  0.0
H  H55  1  0.27854768  0.34046569  0.90386803  1  0.105808  1e-06  0.133138  0.10169  3e-06  0.97153  0.0
H  H56  1  0.06014865  0.58297640  0.11951065  1  0.090778  3e-06  0.105219  0.095866  1e-06  1.051499  0.0
H  H57  1  0.93984599  0.41702929  0.88045586  1  0.090742  3e-06  0.105212  0.0959  1e-06  1.051574  0.0
C  C58  1  0.31573893  0.93400983  0.46465871  1  0.38489  0.000822  -0.006005  -0.035965  0.000476  3.996011  0.001
C  C59  1  0.68428820  0.06601781  0.53534987  1  0.384671  0.000822  -0.005941  -0.035762  0.000476  3.995811  0.001
C  C60  1  0.32670104  0.87177327  0.53356337  1  0.320268  0.00269  0.009448  -0.078725  0.001826  3.883029  0.002
C  C61  1  0.67329726  0.12821716  0.46642809  1  0.320139  0.002686  0.009344  -0.078628  0.001823  3.883212  0.002
C  C62  1  0.32383890  0.04338777  0.62656508  1  0.94369  -0.000402  0.131564  0.069117  -0.000564  3.947421  0.0
C  C63  1  0.67615194  0.95659599  0.37343352  1  0.944068  -0.000407  0.131563  0.069049  -0.000569  3.947599  0.0
C  C64  1  0.34649321  0.91456466  0.73665025  1  0.280478  0.000688  -0.042196  -0.11369  0.000584  3.888828  0.0
C  C65  1  0.65350250  0.08542769  0.26334583  1  0.279996  0.000689  -0.042155  -0.113661  0.000585  3.888855  0.0
C  C66  1  0.20192064  0.84376415  0.75367256  1  -0.068945  -8.9e-05  -0.012894  0.085807  -0.000131  3.980249  0.0
C  C67  1  0.79806798  0.15621265  0.24631415  1  -0.069237  -8.9e-05  -0.012928  0.085751  -0.000131  3.980001  0.0
C  C68  1  0.20188306  0.80258106  0.84255857  1  -0.050406  -9e-06  -0.091417  -0.130263  -1.7e-05  3.982637  0.0
C  C69  1  0.79810246  0.19740985  0.15743184  1  -0.049809  -9e-06  -0.091356  -0.13019  -1.7e-05  3.981951  0.0
C  C70  1  0.07338313  0.74420271  0.86577070  1  -0.031695  -1.7e-05  -0.091927  -0.123309  -2.1e-05  3.988551  0.0
C  C71  1  0.92661830  0.25579641  0.13422485  1  -0.031675  -1.7e-05  -0.091926  -0.123404  -2e-05  3.988387  0.0
C  C72  1  0.94223414  0.72567499  0.80076094  1  0.003346  -1.7e-05  -0.015923  0.082679  -9e-06  3.976673  0.0
C  C73  1  0.05777295  0.27431463  0.19922330  1  0.003387  -1.7e-05  -0.015924  0.082573  -9e-06  3.976803  0.0
C  C74  1  0.94150620  0.76380533  0.71043709  1  -0.131343  -0.000229  -0.090161  -0.117696  -0.000271  3.964816  0.0
C  C75  1  0.05850435  0.23620162  0.28955792  1  -0.131684  -0.000229  -0.090178  -0.11746  -0.000271  3.964619  0.0
C  C76  1  0.07005165  0.82195444  0.68691161  1  0.023719  3e-06  -0.101347  -0.140072  -9e-06  4.001868  0.0
C  C77  1  0.92995507  0.17804579  0.31308348  1  0.023966  2e-06  -0.101284  -0.14014  -9e-06  4.001807  0.0
C  C78  1  0.80233723  0.66280902  0.82522396  1  0.292053  -8.9e-05  -0.047773  -0.114405  -6.5e-05  3.878931  0.0
C  C79  1  0.19766936  0.33720246  0.17476928  1  0.292166  -8.8e-05  -0.047697  -0.114374  -6.4e-05  3.879387  0.0
C  C80  1  0.71302989  0.43393668  0.81215638  1  0.243825  4.6e-05  -0.012683  -0.123265  2.7e-05  3.947692  0.0
C  C81  1  0.28697699  0.56606720  0.18783355  1  0.243533  4.6e-05  -0.012655  -0.123269  2.8e-05  3.947766  0.0
C  C82  1  0.63460632  0.31487086  0.72264897  1  0.363554  -0.000374  -0.020849  -0.055222  -0.000411  4.070203  0.0
C  C83  1  0.36539244  0.68513009  0.27734813  1  0.363491  -0.000374  -0.020756  -0.055088  -0.000411  4.070488  0.0
C  C84  1  0.64514265  0.45403991  0.65269253  1  0.952714  -0.00048  0.133883  0.088173  -0.00059  3.932649  0.0
C  C85  1  0.35487220  0.54596808  0.34730035  1  0.952596  -0.00048  0.133933  0.088111  -0.000589  3.932781  0.0
C  C86  1  0.13713587  0.19221509  0.58101518  1  0.413766  0.000159  -0.017429  -0.060944  -2.9e-05  4.040553  0.0
C  C87  1  0.86286116  0.80779562  0.41899845  1  0.41433  0.000158  -0.017376  -0.06075  -2.9e-05  4.040119  0.0
C  C88  1  0.09607142  0.27382230  0.63176572  1  0.321738  0.001759  0.000509  -0.093273  0.001208  3.93261  0.001
C  C89  1  0.90392504  0.72618743  0.36824682  1  0.322218  0.001758  0.000411  -0.09354  0.001207  3.932847  0.001
C  C90  1  0.30643518  0.38762502  0.60899527  1  0.96966  -0.001543  0.143845  0.106103  -0.001797  3.860613  -0.001
C  C91  1  0.69358399  0.61238328  0.39104160  1  0.970128  -0.001541  0.143901  0.106232  -0.001795  3.860524  -0.001
C  C92  1  0.20021234  0.51411617  0.69077034  1  0.209749  0.00081  -0.054913  -0.136183  0.000597  3.876873  0.001
C  C93  1  0.79979393  0.48589285  0.30923819  1  0.209496  0.00081  -0.054862  -0.136149  0.000597  3.87675  0.001
C  C94  1  0.09716236  0.51217116  0.59536542  1  -0.034686  0.000131  -0.015069  0.091559  6.4e-05  3.981845  0.0
C  C95  1  0.90282975  0.48782783  0.40463780  1  -0.034357  0.000131  -0.014965  0.091613  6.4e-05  3.982021  0.0
C  C96  1  0.14652053  0.54623112  0.51160758  1  -0.088116  5e-05  -0.095519  -0.137264  2e-05  3.986382  0.0
C  C97  1  0.85346904  0.45375536  0.48838844  1  -0.088403  5e-05  -0.095569  -0.137261  2e-05  3.986758  0.0
C  C98  1  0.94954338  0.46595232  0.58324506  1  -0.021375  3.6e-05  -0.092127  -0.127542  4e-05  3.992527  0.0
C  C99  1  0.05045136  0.53405135  0.41675362  1  -0.021192  3.6e-05  -0.092217  -0.127604  4e-05  3.992321  0.0
C  C100  1  0.42841691  0.22720485  0.32034284  1  2.116642  -0.008934  0.22474  0.758414  -0.012035  4.359301  -0.01
C  C101  1  0.57161994  0.77279227  0.67967426  1  2.117725  -0.008933  0.224891  0.758713  -0.012035  4.360399  -0.01
C  C102  1  0.86336857  0.94309881  0.01253603  1  -0.055974  2e-06  -0.088977  -0.123216  -1.4e-05  3.995866  0.0
C  C103  1  0.13663380  0.05690825  0.98747448  1  -0.056134  2e-06  -0.088991  -0.123135  -1.4e-05  3.996035  0.0
C  C104  1  0.87723518  0.98140158  0.92341436  1  0.023114  -8.5e-05  -0.090626  -0.12201  -0.000128  3.953088  0.0
C  C105  1  0.12277495  0.01861902  0.07659983  1  0.024845  -8.4e-05  -0.090663  -0.122128  -0.000128  3.952763  0.0
C  C106  1  0.98597664  0.96160601  0.08975248  1  -0.0845  -1.9e-05  -0.015586  0.076911  -5e-06  3.987507  0.0
C  C107  1  0.01404738  0.03843053  0.91027752  1  -0.083527  -1.9e-05  -0.015563  0.076889  -5e-06  3.987873  0.0
C  C108  1  0.97097316  0.91610253  0.18409555  1  0.305478  -0.000222  -0.045719  -0.109726  -0.000281  3.916566  0.0
C  C109  1  0.02903868  0.08390308  0.81591908  1  0.305459  -0.000222  -0.045798  -0.109658  -0.000281  3.916569  0.0
C  C110  1  0.07173243  0.77001160  0.16449602  1  0.25031  3.6e-05  -0.004924  -0.125662  2.6e-05  3.944837  0.0
C  C111  1  0.92826403  0.22997747  0.83548117  1  0.249635  3.6e-05  -0.004982  -0.12548  2.6e-05  3.944773  0.0
C  C112  1  0.82902251  0.67108481  0.11091952  1  0.949499  -1.3e-05  0.125509  0.067419  -1.5e-05  4.006218  0.0
C  C113  1  0.17097333  0.32891597  0.88907483  1  0.949541  -1.3e-05  0.125421  0.067228  -1.5e-05  4.006255  0.0
C  C114  1  0.00660257  0.63723376  0.12453284  1  0.401118  6.3e-05  -0.015957  -0.048855  4.2e-05  4.064744  0.0
C  C115  1  0.99337936  0.36275401  0.87544344  1  0.400952  6.3e-05  -0.015943  -0.049136  4.2e-05  4.064783  0.0
N  N116  1  0.31424631  0.04114237  0.52347504  1  -1.19314  0.055505  -0.383889  -0.295481  0.038987  3.660305  0.048
N  N117  1  0.68572419  0.95884340  0.47651870  1  -1.193159  0.05548  -0.383939  -0.295709  0.038971  3.660416  0.048
N  N118  1  0.33298202  0.94268014  0.63614118  1  -1.230189  0.001742  -0.239538  0.053547  0.000918  3.772496  0.001
N  N119  1  0.66703041  0.05731200  0.36386118  1  -1.229894  0.001739  -0.239551  0.053555  0.000916  3.772362  0.001
N  N120  1  0.71856664  0.52123165  0.76591142  1  -1.232111  -0.000145  -0.244193  0.05156  -9.8e-05  3.757905  0.0
N  N121  1  0.28143784  0.47877607  0.23408515  1  -1.232054  -0.000145  -0.244266  0.051535  -9.8e-05  3.758488  0.0
N  N122  1  0.59189819  0.32802624  0.62342288  1  -1.200981  -0.000659  -0.365598  -0.335159  -0.000388  3.51335  0.001
N  N123  1  0.40810240  0.67198126  0.37657001  1  -1.201234  -0.000654  -0.365696  -0.33519  -0.000384  3.513396  0.001
N  N124  1  0.26823161  0.26412383  0.56677309  1  -1.23487  0.046442  -0.385403  -0.305984  0.032574  3.681291  0.041
N  N125  1  0.73176463  0.73587390  0.43324943  1  -1.234729  0.046437  -0.385404  -0.305993  0.03257  3.680806  0.041
N  N126  1  0.20503730  0.39671594  0.64994536  1  -1.223159  0.00138  -0.234071  0.062244  0.000735  3.74771  0.001
N  N127  1  0.79497173  0.60329445  0.35007607  1  -1.22369  0.00138  -0.2341  0.062464  0.000735  3.747387  0.001
N  N128  1  0.95697381  0.79013247  0.15571535  1  -1.211551  -1e-06  -0.252194  0.027498  1.7e-05  3.80682  0.0
N  N129  1  0.04302638  0.20985974  0.84426924  1  -1.211086  -1e-06  -0.252149  0.027359  1.7e-05  3.806792  0.0
N  N130  1  0.85489607  0.57610493  0.09095095  1  -1.177761  1e-05  -0.359141  -0.333664  -1e-06  3.341397  0.0
N  N131  1  0.14509019  0.42388926  0.90901911  1  -1.177615  1e-05  -0.359027  -0.333374  -1e-06  3.341198  0.0
O  O132  1  0.38781190  0.11852500  0.33591237  1  -1.113561  0.154768  -0.368156  -0.616947  0.102843  2.179556  0.139
O  O133  1  0.61215744  0.88143696  0.66411036  1  -1.114628  0.154765  -0.368079  -0.617  0.10284  2.180376  0.139
O  O134  1  0.42226036  0.31322843  0.39837835  1  -1.124642  0.168922  -0.357029  -0.600797  0.11258  2.145451  0.152
O  O135  1  0.57773003  0.68678072  0.60161947  1  -1.12465  0.168925  -0.357034  -0.600855  0.112583  2.146066  0.152
O  O136  1  0.46878339  0.24593193  0.24033005  1  -1.186648  0.068777  -0.348247  -0.594769  0.046226  2.051193  0.06
O  O137  1  0.53125351  0.75405558  0.75967943  1  -1.186683  0.068883  -0.348466  -0.594894  0.046295  2.051395  0.06
