# generated using pymatgen
data_Cu5H40Rh2C60N10(Cl2O11)2
_symmetry_space_group_name_H-M   'P 1'
_cell_length_a   15.54272612
_cell_length_b   16.12514667
_cell_length_c   16.12493788
_cell_angle_alpha   112.85166210
_cell_angle_beta   90.65769971
_cell_angle_gamma   90.65789602
_symmetry_Int_Tables_number   1
_chemical_formula_structural   Cu5H40Rh2C60N10(Cl2O11)2
_chemical_formula_sum   'Cu10 H80 Rh4 C120 N20 Cl8 O44'
_cell_volume   3723.37649237
_cell_formula_units_Z   2
loop_
 _symmetry_equiv_pos_site_id
 _symmetry_equiv_pos_as_xyz
  1  'x, y, z'
loop_
 _atom_site_type_symbol
 _atom_site_label
 _atom_site_symmetry_multiplicity
 _atom_site_fract_x
 _atom_site_fract_y
 _atom_site_fract_z
 _atom_site_occupancy
 _atom_site_pbe_bader_charge
 _atom_site_pbe_bader_spin_density
 _atom_site_pbe_cm5_charge
 _atom_site_pbe_ddec_charge
 _atom_site_pbe_ddec_spin_density
 _atom_site_pbe_ddec_sum_bond_order
 _atom_site_pbe_magmom
Cu  Cu0  1  0.06697810  0.20352400  0.71578921  1  1.102011  0.567329  0.715399  0.823171  0.747113  2.263134  0.565
Cu  Cu1  1  0.43330185  0.80460942  0.33112307  1  1.14294  0.225246  0.723097  0.9683  0.299991  2.409786  0.226
Cu  Cu2  1  0.43302983  0.28420516  0.79647486  1  1.101997  0.567318  0.715384  0.823312  0.747112  2.262834  0.565
Cu  Cu3  1  0.06670034  0.66882342  0.19538592  1  1.141724  0.225412  0.722874  0.968318  0.30019  2.408428  0.226
Cu  Cu4  1  0.93302151  0.79647038  0.28420305  1  1.102051  0.567312  0.715388  0.823319  0.747108  2.262753  0.565
Cu  Cu5  1  0.56669603  0.19539501  0.66886310  1  1.142506  0.225662  0.72299  0.968414  0.30054  2.409226  0.226
Cu  Cu6  1  0.56695799  0.71577851  0.20351934  1  1.101921  0.567319  0.715465  0.823297  0.747097  2.263206  0.565
Cu  Cu7  1  0.93329654  0.33116366  0.80462272  1  1.142575  0.225076  0.722996  0.968271  0.299748  2.408638  0.226
Cu  Cu8  1  0.24994854  0.77193355  0.22803670  1  1.214131  0.008823  0.79548  1.09562  0.006967  2.543216  0.006
Cu  Cu9  1  0.74999577  0.22806224  0.77194859  1  1.214844  0.008797  0.79543  1.095598  0.006928  2.543294  0.006
H  H10  1  0.16944919  0.14621527  0.09069008  1  0.139789  9.2e-05  0.118274  0.10144  4.4e-05  1.008315  0.0
H  H11  1  0.11161531  0.14601720  0.94475380  1  0.151224  0.000167  0.125182  0.145719  9.9e-05  0.968108  0.0
H  H12  1  0.05347572  0.42749340  0.08665156  1  0.152982  0.000172  0.122099  0.146194  0.00011  0.985524  0.0
H  H13  1  0.12172516  0.41879909  0.22328090  1  0.135396  0.00012  0.117631  0.102612  5.5e-05  1.007656  0.0
H  H14  1  0.76656162  0.89971845  0.71312402  1  0.125366  2.6e-05  0.117222  0.100816  -3e-06  1.003628  0.0
H  H15  1  0.85919721  0.02994302  0.71869004  1  0.170806  0.000613  0.118926  0.144633  0.000675  1.009722  0.0
H  H16  1  0.07801737  0.88764220  0.76030682  1  0.159454  4.2e-05  0.09647  0.114416  -1.6e-05  1.07337  0.0
H  H17  1  0.97789095  0.76116280  0.74887776  1  0.116807  0.000304  0.11039  0.087693  0.000169  1.030307  0.0
H  H18  1  0.77472649  0.41538808  0.45375723  1  0.107863  2.4e-05  0.114576  0.089883  1.3e-05  1.02073  0.0
H  H19  1  0.85333819  0.41946690  0.59150067  1  0.129513  6e-05  0.108024  0.124647  5.1e-05  1.013399  0.0
H  H20  1  0.88634872  0.13277391  0.45702141  1  0.104561  8.3e-05  0.114891  0.126727  5.4e-05  1.001514  0.0
H  H21  1  0.80419064  0.13869751  0.32595342  1  0.126899  2.1e-05  0.122037  0.10319  7e-06  1.015195  0.0
H  H22  1  0.34284467  0.54499134  0.72107001  1  0.111075  6.4e-05  0.118626  0.103528  2.1e-05  0.999598  0.0
H  H23  1  0.27023894  0.41181814  0.73441455  1  0.14134  0.000273  0.114366  0.133966  0.000248  1.01919  0.0
H  H24  1  0.02716572  0.53946806  0.73401644  1  0.090043  9.5e-05  0.111806  0.125086  4e-05  1.011832  0.0
H  H25  1  0.10906271  0.66498583  0.71598817  1  0.147615  0.000173  0.113797  0.092288  9.2e-05  1.029578  0.0
H  H26  1  0.02958600  0.08460049  0.52997563  1  0.134201  0.001668  0.117044  0.095145  0.000804  1.037066  0.001
H  H27  1  0.10062126  0.95490570  0.40781776  1  0.16456  0.000799  0.113993  0.134816  0.000532  1.033085  0.001
H  H28  1  0.33521631  0.03013540  0.56635464  1  0.092789  0.001056  0.111775  0.124141  0.00056  1.011491  0.001
H  H29  1  0.25364860  0.15211281  0.68481839  1  0.146357  0.001738  0.123437  0.103026  0.000777  0.98617  0.001
H  H30  1  0.33052414  0.90929204  0.85377280  1  0.139533  9.2e-05  0.118286  0.101559  4.4e-05  1.008316  0.0
H  H31  1  0.38832355  0.05523761  0.85397281  1  0.151024  0.000167  0.125164  0.145824  9.9e-05  0.968291  0.0
H  H32  1  0.44649407  0.91335609  0.57249939  1  0.153461  0.000172  0.122126  0.14617  0.000111  0.985416  0.0
H  H33  1  0.37826629  0.77672145  0.58119319  1  0.134977  0.00012  0.11755  0.102519  5.5e-05  1.00783  0.0
H  H34  1  0.73343526  0.28686263  0.10029269  1  0.125216  2.6e-05  0.117319  0.100804  -3e-06  1.003743  0.0
H  H35  1  0.64079583  0.28131583  0.97007109  1  0.171053  0.000614  0.119021  0.144648  0.000675  1.009648  0.0
H  H36  1  0.42198575  0.23971880  0.11240437  1  0.159677  4.3e-05  0.096482  0.114419  -1.6e-05  1.073298  0.0
H  H37  1  0.52212144  0.25111032  0.23886515  1  0.116098  0.000304  0.110442  0.087864  0.000169  1.030125  0.0
H  H38  1  0.72530824  0.54625525  0.58461958  1  0.107829  2.4e-05  0.114544  0.089911  1.3e-05  1.020699  0.0
H  H39  1  0.64670644  0.40850716  0.58055642  1  0.129293  6e-05  0.107978  0.124727  5.1e-05  1.013006  0.0
H  H40  1  0.61370118  0.54302966  0.86725961  1  0.105009  8.3e-05  0.114901  0.126879  5.4e-05  1.001136  0.0
H  H41  1  0.69584643  0.67407538  0.86130142  1  0.127231  2.2e-05  0.122069  0.103264  7e-06  1.015553  0.0
H  H42  1  0.15714326  0.27893498  0.45500737  1  0.110915  6.4e-05  0.118535  0.103404  2.1e-05  0.99975  0.0
H  H43  1  0.22975448  0.26560760  0.58819220  1  0.141109  0.000273  0.11451  0.134216  0.000248  1.019085  0.0
H  H44  1  0.47281999  0.26601178  0.46053199  1  0.09007  9.5e-05  0.111891  0.125084  4e-05  1.011744  0.0
H  H45  1  0.39091174  0.28402459  0.33500670  1  0.147329  0.000173  0.113881  0.092424  9.2e-05  1.029587  0.0
H  H46  1  0.47040462  0.47000512  0.91541087  1  0.134551  0.00167  0.117051  0.09522  0.000804  1.036796  0.001
H  H47  1  0.39931580  0.59216291  0.04510312  1  0.163281  0.0008  0.113911  0.134682  0.000532  1.033205  0.001
H  H48  1  0.16474207  0.43362265  0.96982205  1  0.092133  0.001057  0.1118  0.124095  0.00056  1.011389  0.001
H  H49  1  0.24633778  0.31513929  0.84785970  1  0.153957  0.001731  0.123526  0.103128  0.000778  0.986348  0.001
H  H50  1  0.83056340  0.85378583  0.90930741  1  0.139618  9.2e-05  0.118283  0.101418  4.4e-05  1.008328  0.0
H  H51  1  0.88838496  0.85397855  0.05524395  1  0.15129  0.000167  0.125186  0.145703  9.9e-05  0.96821  0.0
H  H52  1  0.94652395  0.57250437  0.91334696  1  0.153259  0.000172  0.122097  0.146172  0.00011  0.985555  0.0
H  H53  1  0.87828491  0.58120401  0.77671360  1  0.135305  0.00012  0.11764  0.102573  5.5e-05  1.00775  0.0
H  H54  1  0.23344082  0.10029008  0.28687681  1  0.125313  2.6e-05  0.117192  0.10072  -3e-06  1.003655  0.0
H  H55  1  0.14081351  0.97006077  0.28130783  1  0.170817  0.000613  0.118973  0.144676  0.000675  1.00966  0.0
H  H56  1  0.92198699  0.11236564  0.23969253  1  0.159577  4.2e-05  0.096492  0.114458  -1.6e-05  1.073304  0.0
H  H57  1  0.02211461  0.23884032  0.25111855  1  0.116691  0.000304  0.110413  0.087717  0.000169  1.030323  0.0
H  H58  1  0.22528548  0.58461441  0.54624946  1  0.108204  2.4e-05  0.114509  0.089804  1.3e-05  1.020779  0.0
H  H59  1  0.14667523  0.58054431  0.40850318  1  0.129606  6e-05  0.108031  0.124678  5.1e-05  1.013224  0.0
H  H60  1  0.11366402  0.86723602  0.54299683  1  0.105023  8.3e-05  0.114918  0.126737  5.4e-05  1.001483  0.0
H  H61  1  0.19582251  0.86130033  0.67406327  1  0.127425  2.2e-05  0.122053  0.10328  7e-06  1.015212  0.0
H  H62  1  0.65715211  0.45499032  0.27893098  1  0.111072  6.4e-05  0.118616  0.103466  2.1e-05  0.999726  0.0
H  H63  1  0.72975541  0.58817160  0.26558826  1  0.141478  0.000273  0.114377  0.133969  0.000248  1.01917  0.0
H  H64  1  0.97283065  0.46052569  0.26598298  1  0.089865  9.5e-05  0.11184  0.125057  4e-05  1.01181  0.0
H  H65  1  0.89093226  0.33500119  0.28400803  1  0.147411  0.000173  0.113796  0.092323  9.2e-05  1.029695  0.0
H  H66  1  0.97041633  0.91540196  0.47002038  1  0.134181  0.00167  0.11703  0.095131  0.000804  1.036996  0.001
H  H67  1  0.89936707  0.04510483  0.59217560  1  0.164888  0.000799  0.113989  0.134869  0.000532  1.033098  0.001
H  H68  1  0.66478339  0.96986296  0.43362861  1  0.092738  0.001056  0.11177  0.124239  0.00056  1.011314  0.001
H  H69  1  0.74635416  0.84787819  0.31517262  1  0.145929  0.001739  0.123458  0.10309  0.000777  0.986067  0.001
H  H70  1  0.66948888  0.09069767  0.14623085  1  0.139546  9.2e-05  0.118304  0.101631  4.4e-05  1.008243  0.0
H  H71  1  0.61167089  0.94475614  0.14602597  1  0.151396  0.000167  0.125165  0.145845  9.9e-05  0.968219  0.0
H  H72  1  0.55349342  0.08664369  0.42749355  1  0.153181  0.000172  0.122106  0.146163  0.00011  0.985466  0.0
H  H73  1  0.62173459  0.22327298  0.41880964  1  0.134953  0.00012  0.117509  0.102437  5.5e-05  1.007856  0.0
H  H74  1  0.26656504  0.71313587  0.89971853  1  0.125145  2.6e-05  0.117297  0.100892  -3e-06  1.003537  0.0
H  H75  1  0.35920719  0.71869074  0.02994326  1  0.170872  0.000613  0.118947  0.144658  0.000674  1.009649  0.0
H  H76  1  0.57801721  0.76028442  0.88761118  1  0.159596  4.3e-05  0.096453  0.114408  -1.6e-05  1.073221  0.0
H  H77  1  0.47788451  0.74888008  0.76114116  1  0.116328  0.000304  0.110384  0.087674  0.000169  1.030239  0.0
H  H78  1  0.27470117  0.45374722  0.41538149  1  0.107937  2.5e-05  0.114529  0.089808  1.3e-05  1.020715  0.0
H  H79  1  0.35330610  0.59149197  0.41945085  1  0.12918  6e-05  0.108051  0.12475  5e-05  1.013049  0.0
H  H80  1  0.38630832  0.45697819  0.13274414  1  0.104999  8.3e-05  0.114893  0.126824  5.4e-05  1.001323  0.0
H  H81  1  0.30416179  0.32593244  0.13869548  1  0.127153  2.2e-05  0.122097  0.103314  7e-06  1.015337  0.0
H  H82  1  0.84285020  0.72107348  0.54497720  1  0.111082  6.4e-05  0.118579  0.103408  2.1e-05  0.999729  0.0
H  H83  1  0.77023246  0.73439756  0.41179970  1  0.140606  0.000273  0.1144  0.134034  0.000248  1.019208  0.0
H  H84  1  0.52717207  0.73399206  0.53946752  1  0.090309  9.5e-05  0.111898  0.125122  4e-05  1.011856  0.0
H  H85  1  0.60908163  0.71598056  0.66498776  1  0.147319  0.000173  0.113843  0.092319  9.2e-05  1.029562  0.0
H  H86  1  0.52960066  0.52998320  0.08458223  1  0.134549  0.001669  0.117051  0.095252  0.000804  1.036685  0.001
H  H87  1  0.60068193  0.40783418  0.95489325  1  0.16317  0.000799  0.113918  0.134687  0.000532  1.033267  0.001
H  H88  1  0.83525899  0.56638117  0.03017758  1  0.092103  0.001057  0.111779  0.124099  0.00056  1.011423  0.001
H  H89  1  0.75366057  0.68485715  0.15214015  1  0.154059  0.001729  0.123493  0.10313  0.000777  0.9863  0.001
Rh  Rh90  1  0.20845780  0.28094497  0.27636469  1  1.078924  0.000473  0.836713  0.560614  0.000479  4.003389  0.0
Rh  Rh91  1  0.29152715  0.72362779  0.71904776  1  1.079546  0.000473  0.836818  0.560718  0.000479  4.003484  0.0
Rh  Rh92  1  0.79154657  0.71906352  0.72363181  1  1.07908  0.000473  0.836681  0.560571  0.000479  4.003219  0.0
Rh  Rh93  1  0.70848011  0.27636326  0.28095199  1  1.079069  0.000473  0.836813  0.560808  0.000479  4.003524  0.0
C  C94  1  0.14283461  0.20645291  0.08631072  1  0.44335  0.000709  0.04714  0.07601  0.000457  3.90935  0.0
C  C95  1  0.11005468  0.20679793  0.00612685  1  -0.059103  0.001029  -0.062788  -0.113385  0.000698  3.886298  0.001
C  C96  1  0.07693015  0.28649699  0.00467164  1  0.023189  0.009646  0.018839  0.04017  0.006983  3.912333  0.008
C  C97  1  0.07821732  0.36366217  0.08416558  1  -0.042546  0.0014  -0.067779  -0.129287  0.000898  3.909319  0.001
C  C98  1  0.11578017  0.35948896  0.16095453  1  0.442137  0.000332  0.044069  0.068743  0.000205  3.911137  0.0
C  C99  1  0.04468673  0.28803402  0.91714303  1  1.599415  -0.001267  0.21992  0.575602  -0.0013  4.184386  -0.002
C  C100  1  0.83608780  0.89909771  0.72118017  1  0.408138  0.000101  0.042329  0.068027  -5e-05  3.911267  0.0
C  C101  1  0.88798403  0.97115319  0.72473832  1  0.013549  -0.000275  -0.069974  -0.12292  -0.000452  3.895972  0.0
C  C102  1  0.97690658  0.96679939  0.73618690  1  -0.051355  0.012713  0.00925  0.034349  0.00902  3.905542  0.01
C  C103  1  0.00965082  0.89157760  0.74744883  1  0.017492  0.001155  -0.081628  -0.139066  0.00062  3.956611  0.001
C  C104  1  0.95456549  0.82179375  0.74264439  1  0.394247  0.001202  0.035831  0.067473  0.000793  3.933659  0.001
C  C105  1  0.03929072  0.03909922  0.73493696  1  1.604098  -0.001841  0.198974  0.546845  -0.00214  4.223762  -0.004
C  C106  1  0.80047712  0.35465957  0.45783126  1  0.437696  0.000235  0.040789  0.067452  0.000147  3.931319  0.0
C  C107  1  0.84395622  0.35613789  0.53383366  1  -0.003313  4.4e-05  -0.072129  -0.122394  5e-06  3.91955  0.0
C  C108  1  0.87415881  0.27550074  0.53554469  1  0.035614  0.002222  0.016043  0.044897  0.001627  3.900217  0.002
C  C109  1  0.86209969  0.19655351  0.45904840  1  -0.007527  0.000212  -0.069988  -0.119482  0.000106  3.910184  0.0
C  C110  1  0.81644004  0.19934998  0.38584167  1  0.450451  6.9e-05  0.047117  0.072862  3.4e-05  3.906162  0.0
C  C111  1  0.91680412  0.27345897  0.61880681  1  1.599135  -0.000575  0.211154  0.572573  -0.000649  4.209317  -0.001
C  C112  1  0.27317970  0.54087752  0.72477396  1  0.457297  0.000197  0.044598  0.073106  7.6e-05  3.901302  0.0
C  C113  1  0.23208103  0.46738654  0.73262750  1  0.023684  0.001372  -0.073044  -0.132007  0.000902  3.910147  0.001
C  C114  1  0.14241798  0.46704635  0.73923436  1  -0.050484  0.0095  0.013137  0.03735  0.006829  3.908891  0.007
C  C115  1  0.09709306  0.53832145  0.73199264  1  0.046809  0.001914  -0.071275  -0.122926  0.001318  3.916166  0.001
C  C116  1  0.14196483  0.60831040  0.72162033  1  0.418074  0.000892  0.042242  0.071851  0.000586  3.924636  0.001
C  C117  1  0.09391323  0.39248926  0.75316270  1  1.58612  -6e-05  0.219157  0.57877  0.000126  4.175659  -0.001
C  C118  1  0.09688086  0.06895784  0.53487422  1  0.50041  -0.001258  0.041967  0.088875  -0.001723  3.927268  -0.001
C  C119  1  0.13673996  0.99858384  0.46747889  1  -0.110694  0.004056  -0.081303  -0.156086  0.002768  3.944564  0.003
C  C120  1  0.22375884  0.98379807  0.47864707  1  -0.06296  -0.000486  0.006407  0.025116  -0.000951  3.933081  0.0
C  C121  1  0.26737981  0.04031152  0.55675797  1  0.02301  0.005121  -0.076681  -0.137456  0.003565  3.922364  0.004
C  C122  1  0.22242824  0.10830858  0.62190447  1  0.500829  0.000534  0.051698  0.096111  0.000341  3.936831  0.001
C  C123  1  0.26900207  0.90568941  0.40949443  1  1.581004  -0.000482  0.217915  0.57428  -0.000667  4.177168  -0.001
C  C124  1  0.35712717  0.91368486  0.79354071  1  0.443447  0.00071  0.046889  0.075699  0.000457  3.909415  0.0
C  C125  1  0.38989028  0.99386794  0.79319419  1  -0.059027  0.001027  -0.062693  -0.113405  0.000697  3.886292  0.001
C  C126  1  0.42302441  0.99533135  0.71349538  1  0.023889  0.009645  0.018707  0.040034  0.006984  3.912188  0.008
C  C127  1  0.42175028  0.91583448  0.63632900  1  -0.043443  0.001398  -0.067512  -0.128933  0.000895  3.908859  0.001
C  C128  1  0.38419669  0.83904507  0.64049943  1  0.442949  0.000331  0.044015  0.068753  0.000205  3.911235  0.0
C  C129  1  0.45525474  0.08285549  0.71195077  1  1.599907  -0.001267  0.219769  0.575719  -0.001297  4.184856  -0.002
C  C130  1  0.66391031  0.27881798  0.10091829  1  0.408378  0.000102  0.042152  0.067837  -5e-05  3.911222  0.0
C  C131  1  0.61201301  0.27525865  0.02886176  1  0.013993  -0.000275  -0.070037  -0.122822  -0.000452  3.895568  0.0
C  C132  1  0.52309071  0.26381709  0.03322624  1  -0.050827  0.012717  0.009386  0.034606  0.009027  3.904706  0.01
C  C133  1  0.49035527  0.25255797  0.10845118  1  0.017537  0.001156  -0.081691  -0.139063  0.00062  3.956373  0.001
C  C134  1  0.54543981  0.25735183  0.17823134  1  0.394051  0.001202  0.035587  0.066871  0.000793  3.933936  0.001
C  C135  1  0.46070111  0.26508858  0.96093077  1  1.604903  -0.001836  0.198955  0.546771  -0.002138  4.223704  -0.004
C  C136  1  0.69955524  0.54217556  0.64534530  1  0.43838  0.000236  0.040807  0.067558  0.000148  3.931254  0.0
C  C137  1  0.65607702  0.46618628  0.64388523  1  -0.003423  4.4e-05  -0.072026  -0.122451  4e-06  3.919065  0.0
C  C138  1  0.62587744  0.46447984  0.72453117  1  0.035656  0.002239  0.016129  0.044687  0.001639  3.900262  0.002
C  C139  1  0.63794598  0.54098038  0.80346398  1  -0.008214  0.000214  -0.069992  -0.119399  0.000108  3.910461  0.0
C  C140  1  0.68360149  0.61417963  0.80066015  1  0.449262  7e-05  0.047005  0.072463  3.5e-05  3.906692  0.0
C  C141  1  0.58322387  0.38122138  0.72658641  1  1.600777  -0.000576  0.211381  0.573127  -0.000649  4.20881  -0.001
C  C142  1  0.22681207  0.27523906  0.45912934  1  0.456544  0.000198  0.044778  0.073349  7.6e-05  3.901647  0.0
C  C143  1  0.26790905  0.26738778  0.53261884  1  0.024723  0.001371  -0.073254  -0.132399  0.000901  3.910377  0.001
C  C144  1  0.35756967  0.26077845  0.53295334  1  -0.050344  0.009505  0.013174  0.037276  0.006833  3.90897  0.007
C  C145  1  0.40289105  0.26802802  0.46167552  1  0.04656  0.001912  -0.071222  -0.122428  0.001316  3.916035  0.001
C  C146  1  0.35801770  0.27839870  0.39169168  1  0.418665  0.000893  0.041971  0.071174  0.000586  3.925042  0.001
C  C147  1  0.40608125  0.24685527  0.60750940  1  1.585049  -6.2e-05  0.219132  0.578293  0.000119  4.175774  -0.001
C  C148  1  0.40309955  0.46509802  0.93103620  1  0.498295  -0.001256  0.042218  0.089115  -0.001726  3.926851  -0.001
C  C149  1  0.36323139  0.53249184  0.00139106  1  -0.107724  0.004058  -0.081242  -0.155686  0.00277  3.945223  0.003
C  C150  1  0.27621172  0.52130910  0.01615407  1  -0.062604  -0.000508  0.00613  0.024498  -0.000971  3.934132  0.0
C  C151  1  0.23258121  0.44321068  0.95964661  1  0.023145  0.005124  -0.076661  -0.137191  0.003568  3.922303  0.004
C  C152  1  0.27755016  0.37806069  0.89166576  1  0.492455  0.000545  0.051784  0.096376  0.000339  3.937114  0.001
C  C153  1  0.23102183  0.59046895  0.09429389  1  1.581465  -0.000474  0.217696  0.574051  -0.000656  4.177177  -0.001
C  C154  1  0.85717544  0.79354954  0.91368725  1  0.443128  0.00071  0.047201  0.076114  0.000458  3.909103  0.0
C  C155  1  0.88994694  0.79320118  0.99387160  1  -0.059067  0.001029  -0.06286  -0.113448  0.000699  3.886394  0.001
C  C156  1  0.92306758  0.71350079  0.99532873  1  0.023577  0.009647  0.018852  0.040207  0.006984  3.912169  0.008
C  C157  1  0.92178100  0.63633223  0.91582915  1  -0.043106  0.0014  -0.067768  -0.129215  0.000898  3.909174  0.001
C  C158  1  0.88422724  0.64051012  0.83904212  1  0.442432  0.000331  0.044077  0.06876  0.000204  3.911398  0.0
C  C159  1  0.95530244  0.71195231  0.08284787  1  1.599034  -0.00127  0.219976  0.575609  -0.001301  4.18446  -0.002
C  C160  1  0.16391323  0.10090408  0.27881805  1  0.408055  0.000101  0.042366  0.06819  -5e-05  3.911165  0.0
C  C161  1  0.11202024  0.02884996  0.27526356  1  0.013583  -0.000276  -0.070007  -0.122956  -0.000452  3.895778  0.0
C  C162  1  0.02309712  0.03320848  0.26381865  1  -0.051239  0.012715  0.009327  0.034484  0.009022  3.905379  0.01
C  C163  1  0.99035413  0.10842757  0.25255384  1  0.017632  0.001155  -0.081706  -0.139277  0.00062  3.956807  0.001
C  C164  1  0.04543750  0.17820937  0.25735127  1  0.394235  0.001202  0.035768  0.067554  0.000793  3.933616  0.001
C  C165  1  0.96071043  0.96090931  0.26506571  1  1.603889  -0.001841  0.198853  0.546791  -0.002139  4.223733  -0.004
C  C166  1  0.19953485  0.64534292  0.54217543  1  0.437901  0.000235  0.040827  0.067637  0.000147  3.931693  0.0
C  C167  1  0.15604810  0.64386935  0.46617972  1  -0.003704  4.4e-05  -0.072126  -0.1224  4e-06  3.919714  0.0
C  C168  1  0.12583976  0.72450925  0.46448022  1  0.035421  0.002229  0.016236  0.04491  0.001632  3.900601  0.002
C  C169  1  0.13791105  0.80345238  0.54096702  1  -0.007869  0.000212  -0.070162  -0.119523  0.000106  3.910679  0.0
C  C170  1  0.18357646  0.80065454  0.61417082  1  0.449624  7e-05  0.047017  0.072623  3.4e-05  3.906564  0.0
C  C171  1  0.08319688  0.72654294  0.38121378  1  1.598565  -0.000576  0.211305  0.573058  -0.00065  4.208881  -0.001
C  C172  1  0.72681728  0.45911492  0.27523303  1  0.457557  0.000197  0.044715  0.073371  7.6e-05  3.901142  0.0
C  C173  1  0.76791527  0.53260388  0.26737808  1  0.023779  0.001373  -0.073015  -0.131885  0.000902  3.910041  0.001
C  C174  1  0.85757516  0.53294745  0.26077372  1  -0.050767  0.009505  0.013017  0.036986  0.006833  3.90908  0.007
C  C175  1  0.90290204  0.46167368  0.26801287  1  0.047005  0.001914  -0.071181  -0.122479  0.001318  3.91586  0.001
C  C176  1  0.85803346  0.39168337  0.27838408  1  0.417935  0.000892  0.042116  0.07149  0.000586  3.924839  0.001
C  C177  1  0.90608059  0.60750587  0.24684342  1  1.586162  -6e-05  0.219122  0.578644  0.000127  4.175561  -0.001
C  C178  1  0.90311880  0.93103922  0.46511845  1  0.499946  -0.001255  0.042114  0.089016  -0.001724  3.927202  -0.001
C  C179  1  0.86325718  0.00141592  0.53251416  1  -0.110841  0.004057  -0.081302  -0.156115  0.002769  3.944842  0.003
C  C180  1  0.77624212  0.01619896  0.52133879  1  -0.062731  -0.000487  0.006396  0.025112  -0.000952  3.933393  0.0
C  C181  1  0.73262051  0.95968551  0.44322725  1  0.023586  0.005119  -0.076698  -0.137591  0.003564  3.922347  0.004
C  C182  1  0.77757400  0.89168848  0.37808699  1  0.500533  0.000536  0.051682  0.096035  0.000342  3.936738  0.001
C  C183  1  0.73100545  0.09431434  0.59049346  1  1.580859  -0.00048  0.217791  0.574042  -0.000664  4.177404  -0.001
C  C184  1  0.64287502  0.08631023  0.20646178  1  0.442759  0.000709  0.046789  0.075596  0.000457  3.909448  0.0
C  C185  1  0.61010222  0.00612582  0.20680581  1  -0.058886  0.001026  -0.062682  -0.113435  0.000696  3.886205  0.001
C  C186  1  0.57696556  0.00466441  0.28650163  1  0.023708  0.009637  0.018729  0.040087  0.006978  3.912284  0.008
C  C187  1  0.57824098  0.08416059  0.36366342  1  -0.042853  0.001397  -0.067601  -0.129081  0.000895  3.909192  0.001
C  C188  1  0.61580486  0.16095000  0.35949808  1  0.442857  0.000331  0.044082  0.068974  0.000204  3.911217  0.0
C  C189  1  0.54472487  0.91713624  0.28804146  1  1.599326  -0.001266  0.219841  0.575484  -0.001296  4.184574  -0.002
C  C190  1  0.33609133  0.72118320  0.89909148  1  0.408729  0.000102  0.042214  0.067925  -5e-05  3.910904  0.0
C  C191  1  0.38798936  0.72474724  0.97114859  1  0.013747  -0.000275  -0.070013  -0.122974  -0.000452  3.895781  0.0
C  C192  1  0.47690980  0.73619215  0.96678415  1  -0.051457  0.01272  0.009294  0.034385  0.009027  3.904946  0.01
C  C193  1  0.50964704  0.74744456  0.89155913  1  0.017704  0.001156  -0.081588  -0.138999  0.00062  3.956416  0.001
C  C194  1  0.45456173  0.74264329  0.82177487  1  0.393959  0.001202  0.035667  0.067295  0.000793  3.933713  0.001
C  C195  1  0.53929873  0.73491933  0.03908095  1  1.605212  -0.001838  0.198995  0.546892  -0.002139  4.223453  -0.004
C  C196  1  0.30045923  0.45782285  0.35465304  1  0.438157  0.000236  0.040855  0.067659  0.000147  3.931464  0.0
C  C197  1  0.34393501  0.53381888  0.35611938  1  -0.003276  4.4e-05  -0.072133  -0.122463  5e-06  3.919211  0.0
C  C198  1  0.37412700  0.53553273  0.27547434  1  0.035554  0.002232  0.016208  0.044585  0.001633  3.900373  0.002
C  C199  1  0.36206102  0.45903151  0.19653944  1  -0.008163  0.000213  -0.070059  -0.119289  0.000107  3.910594  0.0
C  C200  1  0.31640864  0.38582686  0.19934061  1  0.449311  6.9e-05  0.047007  0.072405  3.4e-05  3.906709  0.0
C  C201  1  0.41677679  0.61879451  0.27340978  1  1.59956  -0.000575  0.211464  0.573256  -0.000649  4.208807  -0.001
C  C202  1  0.77318390  0.72476674  0.54086292  1  0.457738  0.000198  0.044625  0.073228  7.6e-05  3.901374  0.0
C  C203  1  0.73208046  0.73261669  0.46737283  1  0.023928  0.001371  -0.073079  -0.132132  0.000901  3.910476  0.001
C  C204  1  0.64241920  0.73922672  0.46704293  1  -0.049968  0.009502  0.013255  0.037444  0.006831  3.908783  0.007
C  C205  1  0.59710110  0.73198051  0.53832333  1  0.046094  0.001913  -0.071345  -0.122834  0.001317  3.916133  0.001
C  C206  1  0.64197898  0.72161116  0.60830525  1  0.418766  0.000892  0.042057  0.071487  0.000586  3.9247  0.001
C  C207  1  0.59390180  0.75314855  0.39248504  1  1.585654  -6.3e-05  0.219141  0.578626  0.000118  4.175573  -0.001
C  C208  1  0.59690451  0.53489368  0.06895881  1  0.499149  -0.001257  0.042175  0.089057  -0.001725  3.926877  -0.001
C  C209  1  0.63677207  0.46750187  0.99860223  1  -0.107831  0.004057  -0.081206  -0.155596  0.002769  3.945093  0.003
C  C210  1  0.72379496  0.47868526  0.98383889  1  -0.063005  -0.000506  0.006091  0.024366  -0.000969  3.934113  0.0
C  C211  1  0.76741911  0.55678774  0.04034782  1  0.023154  0.005121  -0.076706  -0.137335  0.003566  3.922442  0.004
C  C212  1  0.72245145  0.62193773  0.10832869  1  0.492405  0.000546  0.051853  0.096535  0.000339  3.93679  0.001
C  C213  1  0.76899520  0.40952811  0.90570458  1  1.581994  -0.000477  0.217701  0.574003  -0.00066  4.177573  -0.001
N  N214  1  0.14730736  0.28212648  0.16245202  1  -1.147937  0.000693  -0.343302  -0.163084  0.000434  3.675933  0.0
N  N215  1  0.86893519  0.82481358  0.72864923  1  -1.191458  -0.000601  -0.347818  -0.159243  -0.000742  3.688597  -0.001
N  N216  1  0.78498579  0.27720410  0.38569983  1  -1.185663  2.6e-05  -0.347816  -0.159619  2e-06  3.684022  0.0
N  N217  1  0.22899220  0.61108316  0.72056695  1  -1.176585  0.001359  -0.342879  -0.156465  0.000888  3.673913  0.001
N  N218  1  0.13868366  0.12233750  0.61075973  1  -1.226986  0.072637  -0.340977  -0.229273  0.049495  3.596212  0.063
N  N219  1  0.35266803  0.83754128  0.71786030  1  -1.148255  0.00069  -0.34325  -0.163156  0.000432  3.675961  0.0
N  N220  1  0.63107403  0.27134537  0.17520564  1  -1.192093  -0.0006  -0.347696  -0.158963  -0.000741  3.688085  -0.001
N  N221  1  0.71505864  0.61431195  0.72279890  1  -1.185619  2.7e-05  -0.347974  -0.159653  2e-06  3.683637  0.0
N  N222  1  0.27099145  0.27944290  0.38891868  1  -1.176844  0.001356  -0.342852  -0.156231  0.000886  3.673725  0.001
N  N223  1  0.36129879  0.38921142  0.87765917  1  -1.226498  0.072657  -0.341121  -0.229817  0.049512  3.596235  0.063
N  N224  1  0.85270523  0.71787393  0.83754210  1  -1.147791  0.000693  -0.343324  -0.163108  0.000434  3.675707  0.0
N  N225  1  0.13106967  0.17518616  0.27134267  1  -1.191521  -0.000601  -0.34784  -0.15943  -0.000742  3.688477  -0.001
N  N226  1  0.21502803  0.72279435  0.61430595  1  -1.185816  2.6e-05  -0.347817  -0.159683  1e-06  3.684468  0.0
N  N227  1  0.77100738  0.38891062  0.27944059  1  -1.176673  0.001359  -0.342952  -0.156575  0.000888  3.673949  0.001
N  N228  1  0.86131793  0.87766026  0.38923757  1  -1.226672  0.072632  -0.341037  -0.229311  0.049495  3.596189  0.063
N  N229  1  0.64734184  0.16245177  0.28214088  1  -1.147883  0.00069  -0.343096  -0.163117  0.000432  3.676119  0.0
N  N230  1  0.36892877  0.72864908  0.82480219  1  -1.191954  -0.0006  -0.347645  -0.159064  -0.000741  3.688008  -0.001
N  N231  1  0.28495462  0.38569051  0.27720159  1  -1.185294  2.7e-05  -0.347962  -0.159594  2e-06  3.684303  0.0
N  N232  1  0.72900514  0.72056225  0.61107768  1  -1.177089  0.001357  -0.342804  -0.156204  0.000887  3.673461  0.001
N  N233  1  0.63870015  0.61078164  0.12233754  1  -1.227063  0.072638  -0.341146  -0.229892  0.049498  3.596198  0.063
Cl  Cl234  1  0.30849641  0.17769380  0.18707650  1  -0.505788  9e-05  -0.24324  -0.407756  5.2e-05  1.281889  0.0
Cl  Cl235  1  0.10879115  0.38463722  0.36912124  1  -0.535427  0.000112  -0.27133  -0.442541  6.7e-05  1.216386  0.0
Cl  Cl236  1  0.19149019  0.81292187  0.82230188  1  -0.505855  9e-05  -0.243221  -0.407742  5.2e-05  1.281892  0.0
Cl  Cl237  1  0.39119127  0.63087786  0.61535280  1  -0.535451  0.000112  -0.271364  -0.442582  6.8e-05  1.216473  0.0
Cl  Cl238  1  0.69151039  0.82230732  0.81292278  1  -0.505694  9e-05  -0.243246  -0.407759  5.2e-05  1.28187  0.0
Cl  Cl239  1  0.89121377  0.61536587  0.63086947  1  -0.535445  0.000112  -0.271316  -0.442545  6.7e-05  1.216232  0.0
Cl  Cl240  1  0.80851529  0.18707725  0.17770095  1  -0.505787  9e-05  -0.243219  -0.407749  5.2e-05  1.281989  0.0
Cl  Cl241  1  0.60881287  0.36911859  0.38465271  1  -0.535422  0.000112  -0.271369  -0.442615  6.7e-05  1.216381  0.0
O  O242  1  0.97839291  0.33439910  0.92027326  1  -1.074649  0.032425  -0.297217  -0.482153  0.02138  2.309806  0.031
O  O243  1  0.08855594  0.24290915  0.84914701  1  -1.119844  0.06234  -0.306929  -0.540559  0.041007  2.402119  0.058
O  O244  1  0.00210118  0.09984344  0.71332451  1  -1.066103  0.147353  -0.312211  -0.501561  0.096899  2.382941  0.13
O  O245  1  0.11688726  0.03415313  0.75159271  1  -1.154975  0.002871  -0.324278  -0.530121  0.000804  2.079856  0.003
O  O246  1  0.89051531  0.33475054  0.69170261  1  -1.073342  0.013876  -0.310354  -0.523584  0.009179  2.357492  0.013
O  O247  1  0.97165059  0.21445899  0.61042858  1  -1.152187  0.009003  -0.303705  -0.555715  0.005853  2.320289  0.009
O  O248  1  0.12470163  0.31396141  0.71548095  1  -1.115412  0.071239  -0.311397  -0.536234  0.047498  2.392948  0.065
O  O249  1  0.02682476  0.41596446  0.80025202  1  -1.11798  0.025224  -0.307172  -0.528857  0.016575  2.348626  0.023
O  O250  1  0.33455984  0.87621099  0.43354745  1  -1.136901  0.010681  -0.30362  -0.529608  0.006991  2.252992  0.01
O  O251  1  0.23014195  0.87786904  0.33182102  1  -1.056069  0.005551  -0.299644  -0.49672  0.004007  2.38823  0.005
O  O252  1  0.36386795  0.79230202  0.23511816  1  -0.758919  0.191431  -0.511669  -0.742078  0.113821  1.86087  0.159
O  O253  1  0.52151631  0.07973212  0.66554074  1  -1.074749  0.032448  -0.297326  -0.482758  0.021397  2.310396  0.031
O  O254  1  0.41140699  0.15085374  0.75710430  1  -1.120434  0.062324  -0.306781  -0.540363  0.040995  2.401922  0.058
O  O255  1  0.49788273  0.28670071  0.90018241  1  -1.067045  0.147324  -0.312241  -0.501698  0.096877  2.382919  0.13
O  O256  1  0.38310990  0.24845177  0.96590123  1  -1.15517  0.00287  -0.324174  -0.53004  0.000804  2.080068  0.003
O  O257  1  0.60955111  0.30831982  0.66533862  1  -1.075208  0.014002  -0.310332  -0.523818  0.009262  2.358014  0.013
O  O258  1  0.52832350  0.38960488  0.78554255  1  -1.151879  0.009006  -0.303802  -0.555885  0.005855  2.319286  0.009
O  O259  1  0.37528978  0.28450562  0.68603920  1  -1.114719  0.071248  -0.311318  -0.536011  0.047505  2.393196  0.065
O  O260  1  0.47319809  0.19979836  0.58404229  1  -1.117572  0.025296  -0.30726  -0.528603  0.016624  2.348036  0.023
O  O261  1  0.16545960  0.56645548  0.12379004  1  -1.136534  0.010626  -0.303631  -0.529654  0.006953  2.2531  0.01
O  O262  1  0.26995427  0.66810000  0.12214371  1  -1.056651  0.005461  -0.299326  -0.496477  0.003943  2.387251  0.005
O  O263  1  0.13601026  0.76497003  0.20767254  1  -0.758629  0.191694  -0.511568  -0.742452  0.114037  1.859246  0.159
O  O264  1  0.02158237  0.66556780  0.07972178  1  -1.074618  0.032483  -0.297198  -0.482196  0.021419  2.310034  0.031
O  O265  1  0.91143284  0.75709129  0.15084496  1  -1.11955  0.062357  -0.307017  -0.540649  0.041016  2.401845  0.058
O  O266  1  0.99789539  0.90016107  0.28667905  1  -1.065902  0.147365  -0.312093  -0.501493  0.096906  2.382877  0.13
O  O267  1  0.88311666  0.96586547  0.24840828  1  -1.154991  0.002873  -0.324261  -0.530128  0.000807  2.079977  0.003
O  O268  1  0.10948937  0.66524269  0.30833082  1  -1.073033  0.013949  -0.310364  -0.523898  0.009228  2.357376  0.013
O  O269  1  0.02835304  0.78554486  0.38957853  1  -1.15184  0.009  -0.303831  -0.555968  0.005851  2.319703  0.009
O  O270  1  0.87529219  0.68603369  0.28451834  1  -1.115465  0.071243  -0.311375  -0.536186  0.0475  2.393016  0.065
O  O271  1  0.97317161  0.58403000  0.19975636  1  -1.117772  0.025248  -0.307193  -0.528798  0.016593  2.348619  0.023
O  O272  1  0.66544710  0.12379751  0.56644970  1  -1.136697  0.010672  -0.303507  -0.529486  0.006984  2.253236  0.01
O  O273  1  0.76987354  0.12214743  0.66816131  1  -1.056323  0.005545  -0.299628  -0.496656  0.004002  2.387927  0.005
O  O274  1  0.63609025  0.20768181  0.76489806  1  -0.759347  0.191536  -0.51163  -0.742171  0.113924  1.860963  0.159
O  O275  1  0.47845367  0.92025956  0.33443771  1  -1.074577  0.032377  -0.297374  -0.482488  0.021349  2.31028  0.03
O  O276  1  0.58857245  0.84912929  0.24289327  1  -1.120302  0.062318  -0.306772  -0.540301  0.040994  2.401985  0.058
O  O277  1  0.50210482  0.71330315  0.09981954  1  -1.067016  0.147332  -0.312227  -0.501762  0.096882  2.382871  0.13
O  O278  1  0.61689502  0.75155419  0.03412469  1  -1.155174  0.002869  -0.324259  -0.530049  0.000803  2.079827  0.003
O  O279  1  0.39046002  0.69170545  0.33465572  1  -1.074094  0.013909  -0.310317  -0.523697  0.0092  2.358133  0.013
O  O280  1  0.47166663  0.61039822  0.21444426  1  -1.151967  0.009018  -0.303808  -0.555852  0.005864  2.319664  0.009
O  O281  1  0.62468184  0.71547203  0.31395559  1  -1.115105  0.07124  -0.311454  -0.536179  0.047503  2.393254  0.065
O  O282  1  0.52680402  0.80022697  0.41595940  1  -1.117977  0.025262  -0.307076  -0.528654  0.016602  2.348135  0.023
O  O283  1  0.83455632  0.43355172  0.87621913  1  -1.136617  0.010629  -0.303576  -0.529467  0.006956  2.25352  0.01
O  O284  1  0.73006906  0.33189034  0.87785722  1  -1.056688  0.005465  -0.299391  -0.49655  0.003946  2.387097  0.005
O  O285  1  0.86394416  0.23504921  0.79230266  1  -0.759629  0.191498  -0.51141  -0.742154  0.113865  1.859457  0.159
