# generated using pymatgen
data_TmH14(C3O2)5
_symmetry_space_group_name_H-M   'P 1'
_cell_length_a   6.06165047
_cell_length_b   10.58862141
_cell_length_c   13.41709464
_cell_angle_alpha   112.55327071
_cell_angle_beta   96.83337666
_cell_angle_gamma   97.73235706
_symmetry_Int_Tables_number   1
_chemical_formula_structural   TmH14(C3O2)5
_chemical_formula_sum   'Tm2 H28 C30 O20'
_cell_volume   774.26590579
_cell_formula_units_Z   2
loop_
 _symmetry_equiv_pos_site_id
 _symmetry_equiv_pos_as_xyz
  1  'x, y, z'
loop_
 _atom_site_type_symbol
 _atom_site_label
 _atom_site_symmetry_multiplicity
 _atom_site_fract_x
 _atom_site_fract_y
 _atom_site_fract_z
 _atom_site_occupancy
 _atom_site_hle17_bader_spin_density
 _atom_site_hle17_ddec_charge
 _atom_site_hle17_ddec_spin_density
 _atom_site_hle17_ddec_sum_bond_order
 _atom_site_hle17_magmom
 _atom_site_hse06_10hf_bader_spin_density
 _atom_site_hse06_10hf_ddec_charge
 _atom_site_hse06_10hf_ddec_spin_density
 _atom_site_hse06_10hf_ddec_sum_bond_order
 _atom_site_hse06_10hf_magmom
 _atom_site_hse06_bader_spin_density
 _atom_site_hse06_ddec_charge
 _atom_site_hse06_ddec_spin_density
 _atom_site_hse06_ddec_sum_bond_order
 _atom_site_hse06_magmom
 _atom_site_pbe_bader_spin_density
 _atom_site_pbe_cm5_charge
 _atom_site_pbe_ddec_charge
 _atom_site_pbe_ddec_spin_density
 _atom_site_pbe_ddec_sum_bond_order
 _atom_site_pbe_magmom
Tm  Tm0  1  0.58379745  0.63181844  0.71109742  1  0  2.139207  0  1.797394  0  0  2.069171  0  2.123381  0  0  2.211226  0  1.910061  0  0  1.536495  2.032094  0  2.153074  0
Tm  Tm1  1  0.41620418  0.36818128  0.28890174  1  0  2.139264  0  1.797262  0  0  2.069202  0  2.123281  0  0  2.21123  0  1.910007  0  0  1.536501  2.032121  0  2.15297  0
H  H2  1  0.13854970  0.12055255  0.43443436  1  0  0.089524  0  0.961184  0  0  0.094231  0  1.034687  0  0  0.094872  0  1.035741  0  0  0.109174  0.093843  0  1.03383  0
H  H3  1  0.86145228  0.87944822  0.56556737  1  0  0.089551  0  0.961168  0  0  0.094229  0  1.034714  0  0  0.094873  0  1.035767  0  0  0.109161  0.093841  0  1.033853  0
H  H4  1  0.42515068  0.11701008  0.42281333  1  0  0.129692  0  0.911419  0  0  0.139419  0  0.971778  0  0  0.141661  0  0.969921  0  0  0.128366  0.137932  0  0.972943  0
H  H5  1  0.57485064  0.88298861  0.57718848  1  0  0.129682  0  0.91142  0  0  0.139436  0  0.971756  0  0  0.141682  0  0.969895  0  0  0.12836  0.137947  0  0.972924  0
H  H6  1  0.98310369  0.24237188  0.57868237  1  0  0.110899  0  0.944679  0  0  0.126064  0  0.995974  0  0  0.129568  0  0.993629  0  0  0.106181  0.123645  0  0.997445  0
H  H7  1  0.01689930  0.75763204  0.42132258  1  0  0.110943  0  0.944648  0  0  0.1261  0  0.995951  0  0  0.129603  0  0.993604  0  0  0.106206  0.123681  0  0.997417  0
H  H8  1  0.72892109  0.24837049  0.70863518  1  0  0.122653  0  0.950557  0  0  0.12917  0  1.015805  0  0  0.133756  0  1.011619  0  0  0.108844  0.125908  0  1.018873  0
H  H9  1  0.27107956  0.75163134  0.29136753  1  0  0.122643  0  0.95058  0  0  0.129171  0  1.015805  0  0  0.133756  0  1.011619  0  0  0.108866  0.125911  0  1.018871  0
H  H10  1  0.11082781  0.00348118  0.82985565  1  0  0.104379  0  0.952234  0  0  0.118529  0  1.005935  0  0  0.121535  0  1.004277  0  0  0.10559  0.116432  0  1.007001  0
H  H11  1  0.88916651  0.99651646  0.17014399  1  0  0.104317  0  0.952175  0  0  0.118448  0  1.005911  0  0  0.121451  0  1.004254  0  0  0.10556  0.116352  0  1.006976  0
H  H12  1  0.36539411  0.99734053  0.69992313  1  0  0.127655  0  0.967637  0  0  0.135134  0  1.031029  0  0  0.139961  0  1.027011  0  0  0.106617  0.131813  0  1.033806  0
H  H13  1  0.63460221  0.00265816  0.30007767  1  0  0.127667  0  0.967629  0  0  0.135156  0  1.031008  0  0  0.139982  0  1.02699  0  0  0.106629  0.131836  0  1.033786  0
H  H14  1  0.64043063  0.09602739  0.97082066  1  0  0.10899  0  0.88934  0  0  0.125808  0  0.939526  0  0  0.127377  0  0.938621  0  0  0.123052  0.124807  0  0.939913  0
H  H15  1  0.35956935  0.90397233  0.02917991  1  0  0.108991  0  0.889336  0  0  0.125785  0  0.93953  0  0  0.127352  0  0.938626  0  0  0.123045  0.124785  0  0.939916  0
H  H16  1  0.93092352  0.08660646  0.96914677  1  0  0.093635  0  0.954231  0  0  0.099853  0  1.02669  0  0  0.103279  0  1.022724  0  0  0.105326  0.097554  0  1.029208  0
H  H17  1  0.06907480  0.91339326  0.03085296  1  0  0.093627  0  0.954198  0  0  0.099836  0  1.026654  0  0  0.103263  0  1.022683  0  0  0.105302  0.097536  0  1.029175  0
H  H18  1  0.03004752  0.46075898  0.87381040  1  0  0.10297  0  0.93248  0  0  0.110893  0  0.999165  0  0  0.112049  0  0.99968  0  0  0.114228  0.110173  0  0.998571  0
H  H19  1  0.96995411  0.53924073  0.12618875  1  0  0.103006  0  0.932455  0  0  0.110929  0  0.999134  0  0  0.112088  0  0.999647  0  0  0.114248  0.11021  0  0.99854  0
H  H20  1  0.04059821  0.64015401  0.95776736  1  0  0.109308  0  0.919298  0  0  0.117849  0  0.984352  0  0  0.120083  0  0.982494  0  0  0.119577  0.116397  0  0.985457  0
H  H21  1  0.95940309  0.35984467  0.04223221  1  0  0.109331  0  0.919277  0  0  0.117863  0  0.984327  0  0  0.120098  0  0.982467  0  0  0.11957  0.116411  0  0.98543  0
H  H22  1  0.72867880  0.73224781  0.03821637  1  0  0.115508  0  0.965536  0  0  0.124004  0  1.02945  0  0  0.12683  0  1.027999  0  0  0.106337  0.122115  0  1.030153  0
H  H23  1  0.27132648  0.26775293  0.96178180  1  0  0.115522  0  0.965581  0  0  0.123991  0  1.02954  0  0  0.12682  0  1.02809  0  0  0.106316  0.122101  0  1.030241  0
H  H24  1  0.48218644  0.30005768  0.82217668  1  0  0.120381  0  0.968398  0  0  0.126185  0  1.035862  0  0  0.129057  0  1.034335  0  0  0.109387  0.124106  0  1.037006  0
H  H25  1  0.51781485  0.69994097  0.17781916  1  0  0.120446  0  0.968329  0  0  0.126226  0  1.035814  0  0  0.129081  0  1.034343  0  0  0.109419  0.124155  0  1.03695  0
H  H26  1  0.12483217  0.62040844  0.62311964  1  0  0.44252  0  0.852584  0  0  0.413334  0  0.912256  0  0  0.425221  0  0.895153  0  0  0.302321  0.405103  0  0.924284  0
H  H27  1  0.87516648  0.37959231  0.37687967  1  0  0.44253  0  0.852592  0  0  0.413343  0  0.912264  0  0  0.42523  0  0.89516  0  0  0.302331  0.405112  0  0.924291  0
H  H28  1  0.24255076  0.52945322  0.52518431  1  0  0.424602  0  0.877915  0  0  0.394129  0  0.941807  0  0  0.404971  0  0.926409  0  0  0.301479  0.386287  0  0.953315  0
H  H29  1  0.75744954  0.47054753  0.47481508  1  0  0.424571  0  0.877927  0  0  0.394092  0  0.941848  0  0  0.404932  0  0.926454  0  0  0.301475  0.386252  0  0.953353  0
C  C30  1  0.36713490  0.31800457  0.51729548  1  0  0.747304  0  3.779419  0  0  0.700342  0  4.079805  0  0  0.735461  0  4.073658  0  0  0.238934  0.676935  0  4.087144  0
C  C31  1  0.63286407  0.68199201  0.48270185  1  0  0.747266  0  3.779424  0  0  0.700365  0  4.079737  0  0  0.735487  0  4.073587  0  0  0.238938  0.676965  0  4.087056  0
C  C32  1  0.31382165  0.16079095  0.48072504  1  0  -0.092901  0  3.643174  0  0  -0.148765  0  3.899249  0  0  -0.146385  0  3.900248  0  0  -0.063354  -0.150211  0  3.897494  0
C  C33  1  0.68618033  0.83920983  0.51927743  1  0  -0.092863  0  3.643117  0  0  -0.148762  0  3.899224  0  0  -0.146393  0  3.900229  0  0  -0.063317  -0.150211  0  3.897461  0
C  C34  1  0.19684334  0.12137998  0.63199321  1  0  0.242083  0  3.823926  0  0  0.230461  0  4.091606  0  0  0.239722  0  4.107826  0  0  0.072239  0.22392  0  4.080574  0
C  C35  1  0.80315365  0.87862080  0.36800825  1  0  0.242176  0  3.823974  0  0  0.230538  0  4.091674  0  0  0.239804  0  4.107883  0  0  0.072199  0.223989  0  4.080645  0
C  C36  1  0.01614180  0.19161216  0.63427227  1  0  -0.167631  0  3.751452  0  0  -0.187562  0  4.002661  0  0  -0.190172  0  4.020545  0  0  -0.105291  -0.185553  0  3.99025  0
C  C37  1  0.98385752  0.80839071  0.36573069  1  0  -0.16773  0  3.751478  0  0  -0.187654  0  4.00271  0  0  -0.190265  0  4.020584  0  0  -0.105304  -0.18564  0  3.990293  0
C  C38  1  0.87159081  0.19600103  0.70853589  1  0  -0.148195  0  3.736289  0  0  -0.170691  0  3.997468  0  0  -0.172383  0  4.013821  0  0  -0.101649  -0.169498  0  3.986619  0
C  C39  1  0.12840785  0.80399975  0.29146640  1  0  -0.148177  0  3.736259  0  0  -0.170658  0  3.997392  0  0  -0.172361  0  4.013773  0  0  -0.101666  -0.169465  0  3.986541  0
C  C40  1  0.90537934  0.13118787  0.78080539  1  0  0.229008  0  3.824265  0  0  0.218768  0  4.091483  0  0  0.227178  0  4.108712  0  0  0.065743  0.212843  0  4.079834  0
C  C41  1  0.09461432  0.86881289  0.21919365  1  0  0.229073  0  3.824186  0  0  0.218824  0  4.091404  0  0  0.227244  0  4.108625  0  0  0.065798  0.212898  0  4.079759  0
C  C42  1  0.08216387  0.05778121  0.77643547  1  0  -0.183348  0  3.795591  0  0  -0.200201  0  4.0461  0  0  -0.203235  0  4.064758  0  0  -0.108972  -0.19791  0  4.033154  0
C  C43  1  0.91782880  0.94221645  0.22356632  1  0  -0.18324  0  3.795615  0  0  -0.200091  0  4.046161  0  0  -0.203115  0  4.064804  0  0  -0.108967  -0.1978  0  4.033216  0
C  C44  1  0.22669036  0.05329386  0.70223975  1  0  -0.159088  0  3.745254  0  0  -0.181736  0  4.002766  0  0  -0.183571  0  4.017461  0  0  -0.103444  -0.18039  0  3.992813  0
C  C45  1  0.77331094  0.94670482  0.29776058  1  0  -0.159207  0  3.745402  0  0  -0.181856  0  4.00292  0  0  -0.18369  0  4.017608  0  0  -0.103469  -0.180511  0  3.992973  0
C  C46  1  0.76396299  0.06448838  0.91646888  1  0  -0.066124  0  3.628532  0  0  -0.120697  0  3.888858  0  0  -0.117183  0  3.887564  0  0  -0.065261  -0.122741  0  3.888798  0
C  C47  1  0.23603566  0.93551239  0.08353192  1  0  -0.066113  0  3.628581  0  0  -0.120637  0  3.888815  0  0  -0.117109  0  3.887515  0  0  -0.065251  -0.12268  0  3.888758  0
C  C48  1  0.69353879  0.90822555  0.84676516  1  0  0.640206  0  3.914828  0  0  0.593625  0  4.229343  0  0  0.623843  0  4.23463  0  0  0.185105  0.571835  0  4.233315  0
C  C49  1  0.30645986  0.09177522  0.15323489  1  0  0.640028  0  3.914822  0  0  0.593446  0  4.229327  0  0  0.623663  0  4.234612  0  0  0.185002  0.571654  0  4.233295  0
C  C50  1  0.08771282  0.59784637  0.79303452  1  0  0.753027  0  3.794202  0  0  0.707115  0  4.090897  0  0  0.742443  0  4.084807  0  0  0.245162  0.683514  0  4.098092  0
C  C51  1  0.91228915  0.40215439  0.20696497  1  0  0.753085  0  3.794132  0  0  0.707184  0  4.090794  0  0  0.742513  0  4.084701  0  0  0.245177  0.683581  0  4.097982  0
C  C52  1  0.97908727  0.55718757  0.87476882  1  0  -0.06786  0  3.587113  0  0  -0.120344  0  3.839365  0  0  -0.118334  0  3.841804  0  0  -0.056958  -0.12184  0  3.839418  0
C  C53  1  0.02091436  0.44281215  0.12523034  1  0  -0.068011  0  3.58718  0  0  -0.120471  0  3.839374  0  0  -0.118461  0  3.841809  0  0  -0.057005  -0.121968  0  3.839424  0
C  C54  1  0.61987899  0.51724152  0.92382758  1  0  0.248439  0  3.783826  0  0  0.244652  0  4.043575  0  0  0.251642  0  4.062924  0  0  0.073486  0.239502  0  4.032777  0
C  C55  1  0.38011931  0.48275818  0.07616991  1  0  0.248368  0  3.783824  0  0  0.244578  0  4.043603  0  0  0.251571  0  4.062946  0  0  0.073442  0.23943  0  4.032799  0
C  C56  1  0.63120288  0.63039193  0.02272461  1  0  -0.153164  0  3.743871  0  0  -0.174983  0  3.996632  0  0  -0.177845  0  4.015242  0  0  -0.095381  -0.172744  0  3.983417  0
C  C57  1  0.36880008  0.36960673  0.97727356  1  0  -0.153151  0  3.743813  0  0  -0.174987  0  3.996608  0  0  -0.177856  0  4.015226  0  0  -0.095383  -0.172745  0  3.983386  0
C  C58  1  0.48933974  0.38717380  0.89977674  1  0  -0.132375  0  3.727497  0  0  -0.159093  0  3.984913  0  0  -0.161217  0  4.003198  0  0  -0.090806  -0.157452  0  3.972122  0
C  C59  1  0.51066321  0.61282484  0.10021844  1  0  -0.13238  0  3.727564  0  0  -0.159104  0  3.985013  0  0  -0.161234  0  4.003282  0  0  -0.090829  -0.157467  0  3.972226  0
O  O60  1  0.46877443  0.39642186  0.61392672  1  0  -0.701389  0  2.0248  0  0  -0.669147  0  2.279288  0  0  -0.707405  0  2.262601  0  0  -0.391609  -0.652066  0  2.286136  0
O  O61  1  0.53123087  0.60357892  0.38607593  1  0  -0.701323  0  2.02489  0  0  -0.669076  0  2.279317  0  0  -0.707325  0  2.262627  0  0  -0.391559  -0.652022  0  2.286214  0
O  O62  1  0.30131673  0.36262877  0.44425432  1  0  -0.759529  0  2.089395  0  0  -0.709071  0  2.339347  0  0  -0.74927  0  2.324876  0  0  -0.404787  -0.690136  0  2.347251  0
O  O63  1  0.69868658  0.63737096  0.55574717  1  0  -0.759542  0  2.08929  0  0  -0.709128  0  2.339243  0  0  -0.749327  0  2.324756  0  0  -0.404851  -0.690198  0  2.347145  0
O  O64  1  0.75715521  0.82374395  0.88578242  1  0  -0.692299  0  1.976937  0  0  -0.658007  0  2.223502  0  0  -0.692517  0  2.216154  0  0  -0.375757  -0.64078  0  2.228299  0
O  O65  1  0.24284974  0.17625575  0.11421542  1  0  -0.692166  0  1.97687  0  0  -0.657872  0  2.223431  0  0  -0.692378  0  2.216087  0  0  -0.375655  -0.640646  0  2.228223  0
O  O66  1  0.57159804  0.86342595  0.75120209  1  0  -0.675555  0  2.014311  0  0  -0.635452  0  2.256145  0  0  -0.672275  0  2.249011  0  0  -0.385235  -0.617691  0  2.260587  0
O  O67  1  0.42840028  0.13657378  0.24879838  1  0  -0.675524  0  2.014277  0  0  -0.635432  0  2.256121  0  0  -0.672248  0  2.248987  0  0  -0.385243  -0.617671  0  2.260562  0
O  O68  1  0.35443983  0.11343334  0.56530626  1  0  -0.247871  0  2.362096  0  0  -0.18317  0  2.599379  0  0  -0.199462  0  2.602524  0  0  -0.179575  -0.171469  0  2.596455  0
O  O69  1  0.64556249  0.88656849  0.43469729  1  0  -0.247953  0  2.362144  0  0  -0.183255  0  2.599467  0  0  -0.19954  0  2.602607  0  0  -0.17959  -0.17154  0  2.596539  0
O  O70  1  0.75804666  0.14670347  0.85409550  1  0  -0.268592  0  2.346635  0  0  -0.203899  0  2.587943  0  0  -0.219851  0  2.590979  0  0  -0.185867  -0.192387  0  2.585304  0
O  O71  1  0.24194833  0.85329626  0.14590405  1  0  -0.268601  0  2.346682  0  0  -0.203886  0  2.587938  0  0  -0.219861  0  2.590987  0  0  -0.18583  -0.192375  0  2.585303  0
O  O72  1  0.95762011  0.61138361  0.71707677  1  0  -0.71577  0  2.076271  0  0  -0.667416  0  2.312258  0  0  -0.706304  0  2.297328  0  0  -0.380964  -0.649007  0  2.319866  0
O  O73  1  0.04238020  0.38861715  0.28292262  1  0  -0.715772  0  2.076226  0  0  -0.667434  0  2.312215  0  0  -0.70632  0  2.297284  0  0  -0.380953  -0.649027  0  2.319821  0
O  O74  1  0.30069057  0.61563219  0.80419004  1  0  -0.707416  0  2.057439  0  0  -0.669547  0  2.306023  0  0  -0.710311  0  2.292015  0  0  -0.393391  -0.650324  0  2.310498  0
O  O75  1  0.69931006  0.38436960  0.19580819  1  0  -0.707443  0  2.057347  0  0  -0.669574  0  2.305917  0  0  -0.710334  0  2.29191  0  0  -0.393404  -0.650351  0  2.310389  0
O  O76  1  0.73658298  0.53454574  0.84383721  1  0  -0.370643  0  2.413291  0  0  -0.309332  0  2.660484  0  0  -0.333945  0  2.663518  0  0  -0.232475  -0.298863  0  2.659809  0
O  O77  1  0.26342030  0.46545397  0.15616054  1  0  -0.370565  0  2.413323  0  0  -0.309266  0  2.660516  0  0  -0.333874  0  2.663547  0  0  -0.232402  -0.2988  0  2.659845  0
O  O78  1  0.26049898  0.62086340  0.58804347  1  0  -0.892291  0  1.876087  0  0  -0.849633  0  2.049781  0  0  -0.880074  0  2.010614  0  0  -0.642865  -0.835692  0  2.072087  0
O  O79  1  0.73950099  0.37913631  0.41195560  1  0  -0.892271  0  1.876083  0  0  -0.849592  0  2.049819  0  0  -0.880029  0  2.010656  0  0  -0.642866  -0.835653  0  2.072124  0
