# generated using pymatgen
data_ZnH12C20(NO2)2
_symmetry_space_group_name_H-M   'P 1'
_cell_length_a   15.35088608
_cell_length_b   17.27699691
_cell_length_c   17.27699947
_cell_angle_alpha   90.00005812
_cell_angle_beta   89.99998937
_cell_angle_gamma   89.99993684
_symmetry_Int_Tables_number   1
_chemical_formula_structural   ZnH12C20(NO2)2
_chemical_formula_sum   'Zn8 H96 C160 N16 O32'
_cell_volume   4582.15761865
_cell_formula_units_Z   8
loop_
 _symmetry_equiv_pos_site_id
 _symmetry_equiv_pos_as_xyz
  1  'x, y, z'
loop_
 _atom_site_type_symbol
 _atom_site_label
 _atom_site_symmetry_multiplicity
 _atom_site_fract_x
 _atom_site_fract_y
 _atom_site_fract_z
 _atom_site_occupancy
 _atom_site_pbe_bader_charge
 _atom_site_pbe_bader_spin_density
 _atom_site_pbe_cm5_charge
 _atom_site_pbe_ddec_charge
 _atom_site_pbe_ddec_spin_density
 _atom_site_pbe_ddec_sum_bond_order
 _atom_site_pbe_magmom
Zn  Zn0  1  0.98482018  0.75272190  0.25114518  1  1.251745  0  0.679461  0.746359  0  2.342418  0
Zn  Zn1  1  0.23482014  0.24885460  0.25272049  1  1.251751  0  0.679459  0.746377  0  2.342369  0
Zn  Zn2  1  0.48482129  0.24727865  0.74885523  1  1.251764  0  0.679454  0.746356  0  2.34247  0
Zn  Zn3  1  0.73481893  0.75114561  0.74727881  1  1.251751  0  0.679443  0.746312  0  2.342469  0
Zn  Zn4  1  0.76517975  0.25272075  0.24885404  1  1.251742  0  0.679442  0.746331  0  2.342471  0
Zn  Zn5  1  0.26517959  0.74727827  0.75114526  1  1.251747  0  0.67946  0.746321  0  2.342541  0
Zn  Zn6  1  0.01518000  0.25114529  0.75272169  1  1.251744  0  0.679482  0.746423  0  2.342412  0
Zn  Zn7  1  0.51518019  0.74885513  0.24727823  1  1.25177  0  0.679471  0.746365  0  2.342479  0
H  H8  1  0.94724867  0.35708135  0.15909428  1  0.129328  0  0.105814  0.123203  0  1.035261  0
H  H9  1  0.19724890  0.34090565  0.85708127  1  0.129324  0  0.105801  0.123193  0  1.035288  0
H  H10  1  0.44724796  0.64291923  0.84090499  1  0.129323  0  0.105819  0.123224  0  1.035247  0
H  H11  1  0.69724793  0.65909518  0.14291861  1  0.12933  0  0.105821  0.123219  0  1.035232  0
H  H12  1  0.80275179  0.85708160  0.34090505  1  0.129329  0  0.105811  0.123235  0  1.035225  0
H  H13  1  0.30275175  0.14291912  0.65909482  1  0.129338  0  0.105803  0.123199  0  1.035276  0
H  H14  1  0.05275122  0.15909436  0.35708118  1  0.129319  0  0.105817  0.123229  0  1.035254  0
H  H15  1  0.55275122  0.84090546  0.64291873  1  0.12932  0  0.1058  0.123232  0  1.035288  0
H  H16  1  0.30241875  0.39142508  0.27945263  1  0.096715  0  0.107692  0.117654  0  1.023356  0
H  H17  1  0.55241804  0.22054777  0.89142453  1  0.096702  0  0.107682  0.117637  0  1.023436  0
H  H18  1  0.80241772  0.60857507  0.72054666  1  0.09673  0  0.107679  0.117609  0  1.02341  0
H  H19  1  0.05241798  0.77945262  0.10857538  1  0.096698  0  0.107681  0.117637  0  1.023475  0
H  H20  1  0.44758141  0.89142449  0.22054739  1  0.096724  0  0.107689  0.117634  0  1.02332  0
H  H21  1  0.94758098  0.10857551  0.77945245  1  0.096694  0  0.107675  0.117631  0  1.023438  0
H  H22  1  0.69758102  0.27945236  0.39142511  1  0.096722  0  0.10768  0.117647  0  1.023323  0
H  H23  1  0.19758092  0.72054789  0.60857535  1  0.096716  0  0.107663  0.117617  0  1.02337  0
H  H24  1  0.88896689  0.02759936  0.18442722  1  0.15532  0  0.113284  0.135763  0  0.999223  0
H  H25  1  0.13896697  0.31557298  0.52759871  1  0.155322  0  0.113276  0.135741  0  0.999142  0
H  H26  1  0.38896774  0.97240070  0.81557321  1  0.15534  0  0.11327  0.135713  0  0.999189  0
H  H27  1  0.63896720  0.68442732  0.47240119  1  0.155326  0  0.113275  0.13575  0  0.999145  0
H  H28  1  0.86103267  0.52759895  0.31557293  1  0.15531  0  0.113289  0.135747  0  0.999228  0
H  H29  1  0.36103287  0.47240113  0.68442750  1  0.155313  0  0.113283  0.135752  0  0.999229  0
H  H30  1  0.11103321  0.18442727  0.02759863  1  0.155318  0  0.113264  0.135701  0  0.999188  0
H  H31  1  0.61103318  0.81557307  0.97240127  1  0.155317  0  0.113255  0.135693  0  0.999208  0
H  H32  1  0.03308270  0.09305619  0.20876025  1  0.124305  0  0.109587  0.11668  0  1.027666  0
H  H33  1  0.28308244  0.29123943  0.59305565  1  0.124332  0  0.109604  0.11669  0  1.027672  0
H  H34  1  0.53308259  0.90694422  0.79123966  1  0.124356  0  0.109587  0.116683  0  1.027667  0
H  H35  1  0.78308200  0.70876015  0.40694422  1  0.124308  0  0.109593  0.116668  0  1.027682  0
H  H36  1  0.71691718  0.59305599  0.29123947  1  0.124343  0  0.109601  0.11668  0  1.02769  0
H  H37  1  0.21691745  0.40694424  0.70876041  1  0.124358  0  0.109605  0.116699  0  1.027666  0
H  H38  1  0.96691799  0.20876039  0.09305612  1  0.124348  0  0.109587  0.116678  0  1.027684  0
H  H39  1  0.46691839  0.79123959  0.90694373  1  0.124298  0  0.109583  0.116674  0  1.027679  0
H  H40  1  0.14712258  0.79516430  0.27602749  1  0.086465  0  0.109588  0.127095  0  1.034689  0
H  H41  1  0.39712283  0.22397233  0.29516476  1  0.086468  0  0.10962  0.127119  0  1.034733  0
H  H42  1  0.64712270  0.20483600  0.72397241  1  0.086446  0  0.109609  0.127154  0  1.034719  0
H  H43  1  0.89712290  0.77602772  0.70483567  1  0.086454  0  0.109618  0.127152  0  1.034723  0
H  H44  1  0.60287704  0.29516454  0.22397244  1  0.086451  0  0.109618  0.12715  0  1.034731  0
H  H45  1  0.10287758  0.70483580  0.77602804  1  0.086443  0  0.109608  0.127144  0  1.03475  0
H  H46  1  0.85287690  0.27602770  0.79516476  1  0.086468  0  0.109594  0.127105  0  1.034672  0
H  H47  1  0.35287753  0.72397239  0.20483567  1  0.086458  0  0.109613  0.127142  0  1.034745  0
H  H48  1  0.29191744  0.85346083  0.30486237  1  0.133698  0  0.10108  0.110175  0  1.041664  0
H  H49  1  0.54191775  0.19513799  0.35346131  1  0.133705  0  0.101112  0.110222  0  1.041617  0
H  H50  1  0.79191764  0.14653932  0.69513808  1  0.133694  0  0.101103  0.110219  0  1.04162  0
H  H51  1  0.04191819  0.80486183  0.64653918  1  0.133687  0  0.1011  0.110201  0  1.041627  0
H  H52  1  0.45808211  0.35346061  0.19513761  1  0.133704  0  0.101107  0.110198  0  1.041599  0
H  H53  1  0.95808232  0.64653996  0.80486223  1  0.133681  0  0.101107  0.110233  0  1.041569  0
H  H54  1  0.70808263  0.30486210  0.85346137  1  0.133705  0  0.101085  0.110184  0  1.04166  0
H  H55  1  0.20808200  0.69513814  0.14653909  1  0.133697  0  0.101102  0.110218  0  1.041621  0
H  H56  1  0.34028032  0.52989416  0.30299614  1  0.119269  0  0.109058  0.114548  0  0.99786  0
H  H57  1  0.59028046  0.19700387  0.02989413  1  0.119267  0  0.10905  0.114515  0  0.997885  0
H  H58  1  0.84028012  0.47010595  0.69700256  1  0.119236  0  0.109045  0.114511  0  0.997887  0
H  H59  1  0.09028018  0.80299706  0.97010635  1  0.119214  0  0.109059  0.114536  0  0.99786  0
H  H60  1  0.40971963  0.02989456  0.19700294  1  0.119276  0  0.109057  0.114536  0  0.99786  0
H  H61  1  0.90971944  0.97010606  0.80299633  1  0.119267  0  0.109059  0.114516  0  0.997875  0
H  H62  1  0.65971933  0.30299705  0.52989419  1  0.11925  0  0.109059  0.114526  0  0.997839  0
H  H63  1  0.15971929  0.69700324  0.47010628  1  0.119273  0  0.109057  0.114533  0  0.997852  0
H  H64  1  0.97596027  0.49819905  0.18903763  1  0.122363  0  0.112956  0.121712  0  0.999903  0
H  H65  1  0.22595930  0.31096185  0.99819893  1  0.122351  0  0.112965  0.121722  0  0.999896  0
H  H66  1  0.47595910  0.50180151  0.81096163  1  0.122388  0  0.112969  0.121722  0  0.999945  0
H  H67  1  0.72595962  0.68903895  0.00180095  1  0.122355  0  0.112934  0.121677  0  0.999966  0
H  H68  1  0.77404001  0.99819872  0.31096127  1  0.122426  0  0.112925  0.121633  0  0.999954  0
H  H69  1  0.27404079  0.00180145  0.68903861  1  0.122362  0  0.112961  0.121711  0  0.999909  0
H  H70  1  0.02404079  0.18903830  0.49819887  1  0.122353  0  0.112969  0.121712  0  0.999889  0
H  H71  1  0.52404020  0.81096154  0.50180162  1  0.122364  0  0.112948  0.1217  0  0.999971  0
H  H72  1  0.22914987  0.63218976  0.28318142  1  0.084723  0  0.108876  0.110609  0  1.009506  0
H  H73  1  0.47915004  0.21681876  0.13218969  1  0.084597  0  0.108894  0.110617  0  1.009565  0
H  H74  1  0.72914914  0.36780988  0.71681788  1  0.084717  0  0.108888  0.110614  0  1.009555  0
H  H75  1  0.97914942  0.78318121  0.86781015  1  0.084724  0  0.108882  0.110603  0  1.009525  0
H  H76  1  0.52084996  0.13218949  0.21681834  1  0.084605  0  0.10889  0.110607  0  1.009581  0
H  H77  1  0.02085029  0.86780977  0.78318157  1  0.084492  0  0.10888  0.1106  0  1.009521  0
H  H78  1  0.77084972  0.28318226  0.63218972  1  0.084473  0  0.108881  0.110598  0  1.009589  0
H  H79  1  0.27085033  0.71681734  0.36781016  1  0.084456  0  0.108888  0.110622  0  1.009554  0
H  H80  1  0.06236039  0.26042148  0.19066865  1  0.13676  0  0.120467  0.09128  0  1.006791  0
H  H81  1  0.31236020  0.30933061  0.76042152  1  0.136579  0  0.120456  0.091253  0  1.006814  0
H  H82  1  0.56236048  0.73957948  0.80933126  1  0.136734  0  0.120462  0.091257  0  1.006816  0
H  H83  1  0.81235982  0.69066952  0.23957892  1  0.136575  0  0.120472  0.091303  0  1.006785  0
H  H84  1  0.68763993  0.76042133  0.30933124  1  0.136733  0  0.120484  0.091314  0  1.006792  0
H  H85  1  0.18763976  0.23957893  0.69066923  1  0.136748  0  0.120508  0.091333  0  1.006739  0
H  H86  1  0.93763954  0.19066938  0.26042082  1  0.136558  0  0.120484  0.091298  0  1.00678  0
H  H87  1  0.43763996  0.80933063  0.73957903  1  0.136562  0  0.120483  0.091303  0  1.006794  0
H  H88  1  0.87992062  0.88384309  0.19979896  1  0.129355  0  0.116141  0.080025  0  1.003813  0
H  H89  1  0.12992126  0.30020103  0.38384226  1  0.129349  0  0.11615  0.08006  0  1.003803  0
H  H90  1  0.37992124  0.11615698  0.80020148  1  0.129362  0  0.116147  0.080031  0  1.003806  0
H  H91  1  0.62992079  0.69979871  0.61615706  1  0.129344  0  0.116147  0.080061  0  1.003797  0
H  H92  1  0.87007915  0.38384248  0.30020156  1  0.129363  0  0.11614  0.08003  0  1.003768  0
H  H93  1  0.37007981  0.61615760  0.69979830  1  0.129331  0  0.116156  0.080051  0  1.003787  0
H  H94  1  0.12007950  0.19979900  0.88384280  1  0.129342  0  0.116142  0.080046  0  1.0038  0
H  H95  1  0.62007966  0.80020132  0.11615710  1  0.129342  0  0.116157  0.080065  0  1.003764  0
H  H96  1  0.31154228  0.99648047  0.29486592  1  0.106939  0  0.106959  0.110068  0  1.016527  0
H  H97  1  0.56154265  0.20513401  0.49648094  1  0.10693  0  0.10695  0.110077  0  1.016487  0
H  H98  1  0.81154265  0.00351967  0.70513395  1  0.106924  0  0.106964  0.110064  0  1.016542  0
H  H99  1  0.06154248  0.79486637  0.50351954  1  0.106935  0  0.106944  0.110032  0  1.016568  0
H  H100  1  0.43845775  0.49648027  0.20513422  1  0.106945  0  0.106958  0.11006  0  1.016546  0
H  H101  1  0.93845748  0.50351974  0.79486563  1  0.10694  0  0.106955  0.110067  0  1.016516  0
H  H102  1  0.68845834  0.29486565  0.99648099  1  0.106941  0  0.106965  0.1101  0  1.016487  0
H  H103  1  0.18845709  0.70513403  0.00351947  1  0.106938  0  0.106955  0.110082  0  1.016475  0
C  C104  1  0.20372235  0.10407309  0.25451819  1  1.506804  0  0.196754  0.560982  0  4.19468  0
C  C105  1  0.45372213  0.24548082  0.60407315  1  1.506188  0  0.196716  0.560902  0  4.194636  0
C  C106  1  0.70372226  0.89592715  0.74548170  1  1.506806  0  0.196725  0.560935  0  4.194659  0
C  C107  1  0.95372164  0.75451917  0.39592727  1  1.506198  0  0.196748  0.560974  0  4.19461  0
C  C108  1  0.54627816  0.60407243  0.24548097  1  1.506792  0  0.19679  0.561001  0  4.194569  0
C  C109  1  0.04627844  0.39592681  0.75451894  1  1.506835  0  0.196756  0.561029  0  4.194594  0
C  C110  1  0.79627830  0.25451785  0.10407311  1  1.5068  0  0.196726  0.560877  0  4.194713  0
C  C111  1  0.29627746  0.74548114  0.89592618  1  1.506822  0  0.196786  0.561012  0  4.19459  0
C  C112  1  0.16990717  0.41677444  0.24440259  1  0.376791  0  0.110766  0.194826  0  3.978756  0
C  C113  1  0.41990580  0.25559734  0.91677561  1  0.376973  0  0.110757  0.194813  0  3.978708  0
C  C114  1  0.66990486  0.58322641  0.75559614  1  0.37713  0  0.110764  0.194813  0  3.978715  0
C  C115  1  0.91990539  0.74440327  0.08322482  1  0.376972  0  0.110751  0.19481  0  3.978718  0
C  C116  1  0.58009295  0.91677375  0.25559688  1  0.376815  0  0.110777  0.194778  0  3.978763  0
C  C117  1  0.08009297  0.08322545  0.74440244  1  0.376988  0  0.110773  0.194847  0  3.978708  0
C  C118  1  0.83009260  0.24440281  0.41677439  1  0.376806  0  0.110797  0.194889  0  3.978657  0
C  C119  1  0.33009312  0.75559615  0.58322547  1  0.376771  0  0.110769  0.194806  0  3.978755  0
C  C120  1  0.12862608  0.55447837  0.24841956  1  0.023921  0  -0.007368  -0.05755  0  3.935742  0
C  C121  1  0.37862489  0.25158118  0.05447831  1  0.0236  0  -0.007393  -0.05758  0  3.935781  0
C  C122  1  0.62862394  0.44552137  0.75158091  1  0.023904  0  -0.007408  -0.057627  0  3.935713  0
C  C123  1  0.87862429  0.74842005  0.94552155  1  0.023591  0  -0.007393  -0.057524  0  3.935695  0
C  C124  1  0.62137580  0.05447804  0.25158012  1  0.023612  0  -0.007391  -0.057565  0  3.935761  0
C  C125  1  0.12137474  0.94552112  0.74841920  1  0.023568  0  -0.007353  -0.057512  0  3.935675  0
C  C126  1  0.87137489  0.24841976  0.55447886  1  0.023527  0  -0.007388  -0.057601  0  3.935717  0
C  C127  1  0.37137479  0.75157974  0.44552100  1  0.023561  0  -0.007404  -0.05763  0  3.93571  0
C  C128  1  0.08696703  0.90489693  0.24819864  1  0.407352  0  0.113037  0.199395  0  3.962488  0
C  C129  1  0.33696667  0.25180075  0.40489737  1  0.407331  0  0.113049  0.1994  0  3.962445  0
C  C130  1  0.58696728  0.09510285  0.75180068  1  0.407372  0  0.113018  0.199393  0  3.962449  0
C  C131  1  0.83696745  0.74819879  0.59510365  1  0.407377  0  0.11303  0.199397  0  3.962349  0
C  C132  1  0.66303246  0.40489714  0.25180082  1  0.40737  0  0.112972  0.199342  0  3.96241  0
C  C133  1  0.16303314  0.59510372  0.74819907  1  0.40731  0  0.11306  0.199471  0  3.962373  0
C  C134  1  0.91303304  0.24819882  0.90489734  1  0.407381  0  0.113034  0.199398  0  3.962457  0
C  C135  1  0.41303301  0.75180122  0.09510251  1  0.407367  0  0.113054  0.19945  0  3.962414  0
C  C136  1  0.00863117  0.37704710  0.18363914  1  -0.047369  0  -0.092775  -0.14733  0  3.99857  0
C  C137  1  0.25863169  0.31636085  0.87704653  1  -0.047342  0  -0.092767  -0.147346  0  3.998689  0
C  C138  1  0.50863141  0.62295391  0.81636078  1  -0.047335  0  -0.092863  -0.147474  0  3.998637  0
C  C139  1  0.75863134  0.68364049  0.12295335  1  -0.047369  0  -0.092771  -0.147324  0  3.998598  0
C  C140  1  0.74136901  0.87704690  0.31636029  1  -0.047438  0  -0.092817  -0.14748  0  3.998515  0
C  C141  1  0.24136833  0.12295389  0.68363958  1  -0.047327  0  -0.092826  -0.147429  0  3.998562  0
C  C142  1  0.99136868  0.18363926  0.37704639  1  -0.04733  0  -0.092848  -0.147503  0  3.998574  0
C  C143  1  0.49136846  0.81636070  0.62295461  1  -0.047331  0  -0.092853  -0.147549  0  3.99868  0
C  C144  1  0.06186377  0.61783316  0.24582945  1  1.577369  0  0.1981  0.568088  0  4.212745  0
C  C145  1  0.31186326  0.25417197  0.11783306  1  1.577634  0  0.198089  0.567996  0  4.212832  0
C  C146  1  0.56186497  0.38216548  0.75417393  1  1.577285  0  0.198178  0.568194  0  4.21257  0
C  C147  1  0.81186333  0.74583048  0.88216680  1  1.577698  0  0.198089  0.567985  0  4.212763  0
C  C148  1  0.68813738  0.11783335  0.25417030  1  1.577653  0  0.198045  0.568007  0  4.212762  0
C  C149  1  0.18813640  0.88216575  0.74582959  1  1.577659  0  0.198073  0.568003  0  4.212732  0
C  C150  1  0.93813846  0.24582961  0.61783360  1  1.577661  0  0.198083  0.568048  0  4.212762  0
C  C151  1  0.43813642  0.75417040  0.38216509  1  1.577697  0  0.198076  0.568092  0  4.212694  0
C  C152  1  0.25421565  0.43689828  0.27109125  1  0.020116  0  -0.087448  -0.167805  0  3.958571  0
C  C153  1  0.50421626  0.22890922  0.93689713  1  0.019931  0  -0.087457  -0.16779  0  3.958463  0
C  C154  1  0.75421467  0.56310249  0.72890689  1  0.019762  0  -0.08744  -0.167736  0  3.958484  0
C  C155  1  0.00421621  0.77109179  0.06310336  1  0.01993  0  -0.087489  -0.167866  0  3.958486  0
C  C156  1  0.49578446  0.93689939  0.22890824  1  0.020067  0  -0.08747  -0.167747  0  3.958582  0
C  C157  1  0.99578344  0.06310288  0.77109044  1  0.019912  0  -0.087458  -0.167787  0  3.95853  0
C  C158  1  0.74578410  0.27109153  0.43689944  1  0.020107  0  -0.087501  -0.167885  0  3.958565  0
C  C159  1  0.24578465  0.72890809  0.56310218  1  0.020108  0  -0.087427  -0.167769  0  3.958562  0
C  C160  1  0.94666589  0.99482357  0.20127149  1  -0.109133  0  -0.085645  -0.137239  0  3.973124  0
C  C161  1  0.19666593  0.29872800  0.49482275  1  -0.108507  0  -0.085657  -0.137168  0  3.973052  0
C  C162  1  0.44666664  0.00517701  0.79872836  1  -0.109117  0  -0.085646  -0.137184  0  3.973095  0
C  C163  1  0.69666614  0.70127167  0.50517714  1  -0.109108  0  -0.085677  -0.137248  0  3.972956  0
C  C164  1  0.80333570  0.49482302  0.29872856  1  -0.109124  0  -0.085648  -0.137127  0  3.973051  0
C  C165  1  0.30333585  0.50517770  0.70127131  1  -0.109089  0  -0.085673  -0.137215  0  3.973008  0
C  C166  1  0.05333480  0.20127157  0.99482215  1  -0.109111  0  -0.085642  -0.137131  0  3.973054  0
C  C167  1  0.55333499  0.79872882  0.00517776  1  -0.10911  0  -0.085637  -0.137146  0  3.973034  0
C  C168  1  0.09822040  0.98721099  0.24070606  1  0.015709  0  0.00377  0.023042  0  3.939803  0
C  C169  1  0.34822008  0.25929282  0.48721202  1  0.015753  0  0.003753  0.023007  0  3.939792  0
C  C170  1  0.59822075  0.01278877  0.75929210  1  0.015973  0  0.003772  0.023014  0  3.939799  0
C  C171  1  0.84822088  0.74070728  0.51278900  1  0.015993  0  0.003717  0.02293  0  3.939792  0
C  C172  1  0.65177964  0.48721122  0.25929348  1  0.015714  0  0.003752  0.023032  0  3.939788  0
C  C173  1  0.15177977  0.51278907  0.74070641  1  0.015746  0  0.003737  0.02297  0  3.939825  0
C  C174  1  0.90177896  0.24070682  0.98721140  1  0.015696  0  0.003735  0.023016  0  3.939799  0
C  C175  1  0.40177959  0.75929265  0.01278845  1  0.015735  0  0.003759  0.023039  0  3.93978  0
C  C176  1  0.02527342  0.03087352  0.21557796  1  -0.004924  0  -0.061765  -0.06287  0  3.92231  0
C  C177  1  0.27527248  0.28442167  0.53087355  1  -0.005555  0  -0.061793  -0.062931  0  3.922359  0
C  C178  1  0.52527323  0.96912632  0.78442196  1  -0.004949  0  -0.061772  -0.062893  0  3.922302  0
C  C179  1  0.77527332  0.71557850  0.46912632  1  -0.004936  0  -0.06177  -0.062831  0  3.922275  0
C  C180  1  0.72472588  0.53087446  0.28442170  1  -0.004923  0  -0.061798  -0.062968  0  3.922285  0
C  C181  1  0.22472608  0.46912634  0.71557760  1  -0.004934  0  -0.061788  -0.06292  0  3.922259  0
C  C182  1  0.97472666  0.21557809  0.03087402  1  -0.004899  0  -0.061782  -0.062941  0  3.922301  0
C  C183  1  0.47472641  0.78442188  0.96912582  1  -0.004924  0  -0.061785  -0.06293  0  3.922288  0
C  C184  1  0.15740208  0.85731572  0.27114994  1  0.015888  0  -0.08046  -0.148749  0  3.929868  0
C  C185  1  0.40740236  0.22884936  0.35731560  1  0.015964  0  -0.080492  -0.148735  0  3.929889  0
C  C186  1  0.65740293  0.14268515  0.72884996  1  0.015855  0  -0.080448  -0.148767  0  3.929843  0
C  C187  1  0.90740310  0.77115068  0.64268483  1  0.015914  0  -0.080454  -0.148748  0  3.929897  0
C  C188  1  0.59259747  0.35731482  0.22884948  1  0.015873  0  -0.080462  -0.148795  0  3.929904  0
C  C189  1  0.09259808  0.64268553  0.77114985  1  0.015918  0  -0.080412  -0.148716  0  3.929835  0
C  C190  1  0.84259736  0.27115015  0.85731560  1  0.015963  0  -0.080444  -0.148742  0  3.929825  0
C  C191  1  0.34259800  0.72884995  0.14268484  1  0.015967  0  -0.080463  -0.148774  0  3.92988  0
C  C192  1  0.23726585  0.88990700  0.28736515  1  -0.094286  0  -0.08311  -0.057492  0  3.985513  0
C  C193  1  0.48726551  0.21263356  0.38990805  1  -0.094282  0  -0.083102  -0.057538  0  3.985505  0
C  C194  1  0.73726609  0.11009263  0.71263358  1  -0.094257  0  -0.083132  -0.057577  0  3.985533  0
C  C195  1  0.98726624  0.78736583  0.61009295  1  -0.094276  0  -0.083102  -0.057516  0  3.985629  0
C  C196  1  0.51273496  0.38990790  0.21263372  1  -0.094308  0  -0.083041  -0.057384  0  3.985653  0
C  C197  1  0.01273366  0.61009369  0.78736619  1  -0.094245  0  -0.083183  -0.05765  0  3.985414  0
C  C198  1  0.76273420  0.28736599  0.88990808  1  -0.094299  0  -0.083113  -0.057489  0  3.985561  0
C  C199  1  0.26273422  0.71263361  0.11009237  1  -0.09429  0  -0.083122  -0.057564  0  3.985649  0
C  C200  1  0.27507889  0.51347814  0.28403972  1  -0.073105  0  -0.077454  -0.050565  0  3.988805  0
C  C201  1  0.52507900  0.21596147  0.01347868  1  -0.073097  0  -0.077432  -0.050512  0  3.988763  0
C  C202  1  0.77507736  0.48652204  0.71595957  1  -0.07306  0  -0.077467  -0.050564  0  3.988944  0
C  C203  1  0.02507809  0.78403952  0.98652123  1  -0.073042  0  -0.077454  -0.050535  0  3.988811  0
C  C204  1  0.47492174  0.01347676  0.21596050  1  -0.073105  0  -0.077461  -0.050588  0  3.988888  0
C  C205  1  0.97492088  0.98652206  0.78403876  1  -0.073094  0  -0.077435  -0.050522  0  3.988769  0
C  C206  1  0.72492144  0.28404059  0.51347756  1  -0.073136  0  -0.077395  -0.050438  0  3.988728  0
C  C207  1  0.22492203  0.71596021  0.48652175  1  -0.073093  0  -0.077436  -0.050503  0  3.988764  0
C  C208  1  0.02479371  0.45381217  0.19985380  1  -0.061062  0  -0.059863  -0.060856  0  3.927545  0
C  C209  1  0.27479362  0.30014684  0.95381274  1  -0.061059  0  -0.059887  -0.060893  0  3.927545  0
C  C210  1  0.52479469  0.54618940  0.80014612  1  -0.061077  0  -0.059878  -0.060878  0  3.927649  0
C  C211  1  0.77479262  0.69985391  0.04618771  1  -0.061042  0  -0.05987  -0.06085  0  3.927538  0
C  C212  1  0.72520442  0.95381024  0.30014513  1  -0.061101  0  -0.059851  -0.060751  0  3.92763  0
C  C213  1  0.22520644  0.04618767  0.69985359  1  -0.061057  0  -0.059904  -0.060888  0  3.927502  0
C  C214  1  0.97520673  0.19985393  0.45381262  1  -0.061056  0  -0.059856  -0.060803  0  3.927473  0
C  C215  1  0.47520654  0.80014605  0.54618722  1  -0.061048  0  -0.059845  -0.060802  0  3.927517  0
C  C216  1  0.21234306  0.57196633  0.27235428  1  -0.054166  0  -0.075449  -0.086398  0  3.956738  0
C  C217  1  0.46234385  0.22764643  0.07196686  1  -0.054141  0  -0.075432  -0.086368  0  3.956807  0
C  C218  1  0.71234421  0.42803390  0.72764445  1  -0.054093  0  -0.07538  -0.086316  0  3.956723  0
C  C219  1  0.96234322  0.77235529  0.92803414  1  -0.054141  0  -0.075398  -0.086344  0  3.956776  0
C  C220  1  0.53765684  0.07196722  0.22764542  1  -0.054124  0  -0.07541  -0.086332  0  3.956684  0
C  C221  1  0.03765580  0.92803376  0.77235391  1  -0.054085  0  -0.075455  -0.086403  0  3.956723  0
C  C222  1  0.78765593  0.27235511  0.57196745  1  -0.05403  0  -0.075448  -0.086402  0  3.956714  0
C  C223  1  0.28765717  0.72764447  0.42803300  1  -0.054085  0  -0.075426  -0.086394  0  3.956724  0
C  C224  1  0.10618704  0.47605213  0.23155086  1  0.017895  0  0.002726  0.021323  0  3.955214  0
C  C225  1  0.35618764  0.26844917  0.97605211  1  0.017848  0  0.002765  0.021372  0  3.955318  0
C  C226  1  0.60618675  0.52394821  0.76844847  1  0.01788  0  0.002744  0.021384  0  3.955232  0
C  C227  1  0.85618791  0.73155150  0.02394832  1  0.017877  0  0.00279  0.021377  0  3.95527  0
C  C228  1  0.64381302  0.97605197  0.26844868  1  0.017856  0  0.002757  0.021372  0  3.9553  0
C  C229  1  0.14381245  0.02394833  0.73155064  1  0.017892  0  0.002771  0.021363  0  3.95521  0
C  C230  1  0.89381271  0.23155162  0.47605204  1  0.017894  0  0.002731  0.021316  0  3.955243  0
C  C231  1  0.39381322  0.76844786  0.52394840  1  0.017894  0  0.00274  0.021384  0  3.955215  0
C  C232  1  0.07298645  0.32191481  0.20110684  1  0.460703  0  0.057968  0.114512  0  3.943278  0
C  C233  1  0.32298630  0.29889248  0.82191483  1  0.460689  0  0.057972  0.114578  0  3.943342  0
C  C234  1  0.57298596  0.67808614  0.79889249  1  0.46084  0  0.058022  0.114611  0  3.943302  0
C  C235  1  0.82298526  0.70110822  0.17808503  1  0.460691  0  0.057961  0.114456  0  3.943341  0
C  C236  1  0.67701250  0.82191407  0.29889138  1  0.46099  0  0.057996  0.114529  0  3.943284  0
C  C237  1  0.17701240  0.17808562  0.70110735  1  0.460705  0  0.057987  0.114585  0  3.943157  0
C  C238  1  0.92701278  0.20110700  0.32191414  1  0.460853  0  0.058006  0.1146  0  3.943265  0
C  C239  1  0.42701322  0.79889245  0.67808571  1  0.460836  0  0.058018  0.114606  0  3.943374  0
C  C240  1  0.94107278  0.91416720  0.21070596  1  0.483571  0  0.056053  0.109654  0  3.958888  0
C  C241  1  0.19107279  0.28929345  0.41416696  1  0.483568  0  0.056086  0.109589  0  3.958918  0
C  C242  1  0.44107277  0.08583281  0.78929389  1  0.483551  0  0.056085  0.109684  0  3.958823  0
C  C243  1  0.69107296  0.71070681  0.58583351  1  0.483579  0  0.056113  0.109634  0  3.95883  0
C  C244  1  0.80892631  0.41416779  0.28929343  1  0.483556  0  0.056098  0.109629  0  3.958924  0
C  C245  1  0.30892701  0.58583350  0.71070643  1  0.483567  0  0.056069  0.109646  0  3.958905  0
C  C246  1  0.05892732  0.21070661  0.91416694  1  0.483551  0  0.056109  0.109647  0  3.958908  0
C  C247  1  0.55892685  0.78929319  0.08583297  1  0.48355  0  0.056095  0.109634  0  3.958942  0
C  C248  1  0.24878957  0.97048986  0.28118761  1  0.006074  0  -0.076378  -0.083268  0  3.962102  0
C  C249  1  0.49878926  0.21881117  0.47049033  1  0.006066  0  -0.076392  -0.083298  0  3.962072  0
C  C250  1  0.74878991  0.02950976  0.71881111  1  0.00605  0  -0.076404  -0.083252  0  3.962119  0
C  C251  1  0.99878936  0.78118878  0.52951066  1  0.00605  0  -0.076408  -0.083262  0  3.962217  0
C  C252  1  0.50121049  0.47048846  0.21881134  1  0.005936  0  -0.076422  -0.083331  0  3.96229  0
C  C253  1  0.00121059  0.52951024  0.78118800  1  0.006077  0  -0.076366  -0.083224  0  3.962134  0
C  C254  1  0.75121043  0.28118788  0.97048978  1  0.006053  0  -0.076387  -0.08333  0  3.96209  0
C  C255  1  0.25121111  0.71881116  0.02951068  1  0.006055  0  -0.076406  -0.083284  0  3.962192  0
C  C256  1  0.18195428  0.01943687  0.25826822  1  -0.036626  0  -0.01188  -0.071298  0  3.932105  0
C  C257  1  0.43195336  0.24173014  0.51943751  1  -0.036631  0  -0.011869  -0.071247  0  3.932068  0
C  C258  1  0.68195409  0.98056339  0.74172993  1  -0.036869  0  -0.011883  -0.07127  0  3.932088  0
C  C259  1  0.93195480  0.75826988  0.48056350  1  -0.036868  0  -0.011856  -0.071238  0  3.932013  0
C  C260  1  0.56804634  0.51943676  0.24173143  1  -0.03649  0  -0.011871  -0.071257  0  3.932033  0
C  C261  1  0.06804521  0.48056361  0.75826848  1  -0.036625  0  -0.011857  -0.071271  0  3.932112  0
C  C262  1  0.81804643  0.25826845  0.01943689  1  -0.036638  0  -0.011873  -0.071241  0  3.932017  0
C  C263  1  0.31804557  0.74172994  0.98056298  1  -0.03661  0  -0.011878  -0.071292  0  3.932023  0
N  N264  1  0.00800353  0.87059123  0.23289736  1  -1.240136  0  -0.323875  -0.281877  0  3.544318  0
N  N265  1  0.25800379  0.26710204  0.37059108  1  -1.240148  0  -0.323904  -0.281877  0  3.544316  0
N  N266  1  0.50800439  0.12940920  0.76710197  1  -1.240125  0  -0.323894  -0.2819  0  3.544317  0
N  N267  1  0.75800328  0.73289815  0.62940937  1  -1.240167  0  -0.323893  -0.281857  0  3.544307  0
N  N268  1  0.74199665  0.37059138  0.26710206  1  -1.240108  0  -0.323893  -0.281874  0  3.544255  0
N  N269  1  0.24199729  0.62940941  0.73289782  1  -1.240171  0  -0.323899  -0.281902  0  3.544331  0
N  N270  1  0.99199527  0.23289807  0.87059044  1  -1.240146  0  -0.323904  -0.281901  0  3.544269  0
N  N271  1  0.49199717  0.76710131  0.12940881  1  -1.240147  0  -0.323917  -0.28192  0  3.544357  0
N  N272  1  0.15016374  0.34037228  0.23067158  1  -1.229912  0  -0.325874  -0.279075  0  3.548178  0
N  N273  1  0.40016362  0.26932771  0.84037230  1  -1.229893  0  -0.32588  -0.279122  0  3.548138  0
N  N274  1  0.65016328  0.65962860  0.76932658  1  -1.230104  0  -0.325869  -0.279079  0  3.548288  0
N  N275  1  0.90016386  0.73067350  0.15962813  1  -1.229902  0  -0.325877  -0.279052  0  3.548151  0
N  N276  1  0.59983714  0.84037101  0.26932724  1  -1.230118  0  -0.325888  -0.27906  0  3.548313  0
N  N277  1  0.09983510  0.15962876  0.73067151  1  -1.229959  0  -0.325903  -0.279177  0  3.548159  0
N  N278  1  0.84983676  0.23067063  0.34037165  1  -1.230084  0  -0.325888  -0.279107  0  3.548194  0
N  N279  1  0.34983724  0.76932657  0.65962937  1  -1.230067  0  -0.325873  -0.279065  0  3.548207  0
O  O280  1  0.28316336  0.12347805  0.25199750  1  -1.155372  0  -0.316338  -0.534539  0  2.184226  0
O  O281  1  0.53316184  0.24800149  0.62347871  1  -1.155322  0  -0.316295  -0.534485  0  2.184265  0
O  O282  1  0.78316329  0.87652270  0.74800295  1  -1.155363  0  -0.316317  -0.534513  0  2.184249  0
O  O283  1  0.03316370  0.75199950  0.37652236  1  -1.155352  0  -0.316312  -0.534523  0  2.184202  0
O  O284  1  0.46683648  0.62347804  0.24800167  1  -1.155354  0  -0.316333  -0.53453  0  2.184213  0
O  O285  1  0.96683573  0.37652078  0.75199932  1  -1.155368  0  -0.31634  -0.534566  0  2.184185  0
O  O286  1  0.71683728  0.25199779  0.12347811  1  -1.155346  0  -0.316308  -0.534472  0  2.18424  0
O  O287  1  0.21683644  0.74800128  0.87652120  1  -1.155386  0  -0.316333  -0.53454  0  2.184242  0
O  O288  1  0.98498574  0.60488487  0.26708422  1  -1.168414  0  -0.320359  -0.551363  0  2.139143  0
O  O289  1  0.23498563  0.23291715  0.10488405  1  -1.168417  0  -0.320338  -0.551319  0  2.139215  0
O  O290  1  0.48498471  0.39511336  0.73292199  1  -1.168341  0  -0.320376  -0.551386  0  2.138966  0
O  O291  1  0.73498632  0.76708537  0.89511525  1  -1.168437  0  -0.32031  -0.551263  0  2.139161  0
O  O292  1  0.76501503  0.10488603  0.23291601  1  -1.168452  0  -0.320296  -0.551285  0  2.139139  0
O  O293  1  0.26501469  0.89511415  0.76708502  1  -1.168433  0  -0.320308  -0.551289  0  2.139078  0
O  O294  1  0.01501324  0.26708433  0.60488700  1  -1.168432  0  -0.320316  -0.551308  0  2.139248  0
O  O295  1  0.51501538  0.73291552  0.39511350  1  -1.168434  0  -0.320316  -0.55134  0  2.139061  0
O  O296  1  0.14309064  0.15596061  0.25605958  1  -1.154063  0  -0.325416  -0.560593  0  2.25186  0
O  O297  1  0.39308849  0.24393895  0.65596122  1  -1.153527  0  -0.325407  -0.56055  0  2.25178  0
O  O298  1  0.64309062  0.84403911  0.74394090  1  -1.15407  0  -0.325384  -0.560554  0  2.251882  0
O  O299  1  0.89308996  0.75605937  0.34403980  1  -1.153475  0  -0.325428  -0.560604  0  2.251904  0
O  O300  1  0.60690981  0.65595989  0.24393963  1  -1.154071  0  -0.325453  -0.56063  0  2.251834  0
O  O301  1  0.10690885  0.34403871  0.75605911  1  -1.154086  0  -0.325421  -0.560639  0  2.251899  0
O  O302  1  0.85691062  0.25605921  0.15596001  1  -1.154097  0  -0.325406  -0.560549  0  2.251922  0
O  O303  1  0.35690914  0.74393915  0.84403869  1  -1.154095  0  -0.32543  -0.560604  0  2.251911  0
O  O304  1  0.08928430  0.68543227  0.22416774  1  -1.160444  0  -0.328682  -0.55813  0  2.30303  0
O  O305  1  0.33928381  0.27583374  0.18543162  1  -1.160393  0  -0.328699  -0.558097  0  2.303006  0
O  O306  1  0.58928558  0.31456635  0.77583448  1  -1.160459  0  -0.328733  -0.558205  0  2.303033  0
O  O307  1  0.83928457  0.72416752  0.81456767  1  -1.160433  0  -0.328715  -0.558139  0  2.302972  0
O  O308  1  0.66071611  0.18543251  0.27583208  1  -1.160382  0  -0.328699  -0.558162  0  2.30301  0
O  O309  1  0.16071718  0.81456662  0.72416723  1  -1.160435  0  -0.328721  -0.55812  0  2.303023  0
O  O310  1  0.91071595  0.22416560  0.68543272  1  -1.160424  0  -0.328727  -0.55815  0  2.302933  0
O  O311  1  0.41071715  0.77583213  0.31456656  1  -1.160443  0  -0.328705  -0.558148  0  2.303057  0
