# generated using pymatgen
data_Zn2H12C11(N8O)2
_symmetry_space_group_name_H-M   'P 1'
_cell_length_a   9.71712516
_cell_length_b   9.71715395
_cell_length_c   19.97237133
_cell_angle_alpha   90.00131407
_cell_angle_beta   89.99877050
_cell_angle_gamma   120.00055775
_symmetry_Int_Tables_number   1
_chemical_formula_structural   Zn2H12C11(N8O)2
_chemical_formula_sum   'Zn6 H36 C33 N48 O6'
_cell_volume   1633.18244377
_cell_formula_units_Z   3
loop_
 _symmetry_equiv_pos_site_id
 _symmetry_equiv_pos_as_xyz
  1  'x, y, z'
loop_
 _atom_site_type_symbol
 _atom_site_label
 _atom_site_symmetry_multiplicity
 _atom_site_fract_x
 _atom_site_fract_y
 _atom_site_fract_z
 _atom_site_occupancy
 _atom_site_pbe_bader_charge
 _atom_site_pbe_bader_spin_density
 _atom_site_pbe_cm5_charge
 _atom_site_pbe_ddec_charge
 _atom_site_pbe_ddec_spin_density
 _atom_site_pbe_ddec_sum_bond_order
 _atom_site_pbe_magmom
Zn  Zn0  1  0.96602220  0.52080700  0.41640160  1  1.192997  0  0.748307  0.666334  0  2.617018  0
Zn  Zn1  1  0.47920741  0.44522707  0.74973669  1  1.192036  0  0.748363  0.666445  0  2.617046  0
Zn  Zn2  1  0.55477224  0.03397362  0.08307707  1  1.194211  0  0.748301  0.666296  0  2.617016  0
Zn  Zn3  1  0.52080760  0.96601948  0.58359586  1  1.193074  0  0.748294  0.666289  0  2.617039  0
Zn  Zn4  1  0.44523024  0.47921075  0.25026107  1  1.192001  0  0.748397  0.666481  0  2.617053  0
Zn  Zn5  1  0.03397459  0.55476453  0.91692307  1  1.194179  0  0.748275  0.666267  0  2.617093  0
H  H6  1  0.00937261  0.66543223  0.55636773  1  0.504944  0  0.281256  0.276793  0  1.043856  0
H  H7  1  0.33457149  0.34394521  0.88970424  1  0.504347  0  0.281269  0.276782  0  1.043781  0
H  H8  1  0.65606256  0.99063519  0.22302519  1  0.504918  0  0.281278  0.276842  0  1.043687  0
H  H9  1  0.66543625  0.00936184  0.44363395  1  0.504959  0  0.281227  0.276738  0  1.04373  0
H  H10  1  0.34395229  0.33457446  0.11029644  1  0.503936  0  0.281265  0.276821  0  1.043606  0
H  H11  1  0.99063619  0.65606110  0.77697233  1  0.504887  0  0.281273  0.276823  0  1.043703  0
H  H12  1  0.15678967  0.83532938  0.59402243  1  0.496846  0  0.286676  0.285447  0  1.018765  0
H  H13  1  0.16465255  0.32142081  0.92734750  1  0.484586  0  0.286664  0.285493  0  1.018622  0
H  H14  1  0.67857011  0.84324066  0.26068277  1  0.495053  0  0.286704  0.285585  0  1.018386  0
H  H15  1  0.83533125  0.15678919  0.40597436  1  0.496986  0  0.286642  0.285409  0  1.018677  0
H  H16  1  0.32141946  0.16465223  0.07265261  1  0.485133  0  0.286735  0.285665  0  1.018462  0
H  H17  1  0.84323383  0.67856702  0.73931670  1  0.493213  0  0.286681  0.285494  0  1.018567  0
H  H18  1  0.95429712  0.06382927  0.24350078  1  0.467917  0  0.302178  0.3059  0  0.96204  0
H  H19  1  0.93617897  0.89048286  0.57683995  1  0.455721  0  0.302268  0.306049  0  0.961996  0
H  H20  1  0.10950332  0.04567829  0.91017904  1  0.460771  0  0.302256  0.30605  0  0.961998  0
H  H21  1  0.06382841  0.95430455  0.75649502  1  0.467989  0  0.3022  0.305962  0  0.961982  0
H  H22  1  0.89048211  0.93617898  0.42316515  1  0.455708  0  0.302189  0.305903  0  0.962088  0
H  H23  1  0.04568267  0.10950225  0.08982296  1  0.460817  0  0.302221  0.305988  0  0.962187  0
H  H24  1  0.14086693  0.16826836  0.21131863  1  0.456868  0  0.297483  0.293105  0  0.989318  0
H  H25  1  0.83172782  0.97258709  0.54466500  1  0.458039  0  0.297409  0.293002  0  0.989113  0
H  H26  1  0.02740591  0.85912397  0.87799702  1  0.459116  0  0.297449  0.293057  0  0.989512  0
H  H27  1  0.16827057  0.14086457  0.78867791  1  0.457509  0  0.29746  0.293065  0  0.989377  0
H  H28  1  0.97258091  0.83172839  0.45533809  1  0.457435  0  0.297482  0.293153  0  0.989353  0
H  H29  1  0.85912793  0.02741487  0.12200373  1  0.459211  0  0.297465  0.293114  0  0.989469  0
H  H30  1  0.32009153  0.75695225  0.30675180  1  0.094192  0  0.109574  0.136429  0  0.971407  0
H  H31  1  0.24305331  0.56313617  0.64009962  1  0.084798  0  0.109575  0.136487  0  0.971512  0
H  H32  1  0.43683609  0.67989307  0.97341772  1  0.093127  0  0.109541  0.136312  0  0.971345  0
H  H33  1  0.75694585  0.32007905  0.69324852  1  0.094122  0  0.109603  0.136486  0  0.97142  0
H  H34  1  0.56313844  0.24305003  0.35989910  1  0.084822  0  0.109556  0.136456  0  0.971502  0
H  H35  1  0.67989215  0.43683971  0.02658312  1  0.093081  0  0.109528  0.136305  0  0.971377  0
H  H36  1  0.44830301  0.69824601  0.34369284  1  0.113477  0  0.110023  0.128771  0  1.035291  0
H  H37  1  0.30177147  0.75007029  0.67703588  1  0.115729  0  0.110046  0.128835  0  1.035276  0
H  H38  1  0.24990935  0.55168017  0.01036759  1  0.123097  0  0.110068  0.128795  0  1.035094  0
H  H39  1  0.69825239  0.44830317  0.65630651  1  0.113457  0  0.110039  0.128786  0  1.035265  0
H  H40  1  0.75007141  0.30177606  0.32296193  1  0.115541  0  0.110017  0.128765  0  1.035299  0
H  H41  1  0.55167185  0.24991214  0.98963464  1  0.122992  0  0.110035  0.128738  0  1.035053  0
C  C42  1  0.21489301  0.78214116  0.50351580  1  1.473723  0  0.31423  0.515564  0  4.101701  0
C  C43  1  0.21784538  0.43272383  0.83684181  1  1.446772  0  0.314386  0.515993  0  4.101581  0
C  C44  1  0.56726464  0.78512610  0.17018301  1  1.443955  0  0.314279  0.515782  0  4.101944  0
C  C45  1  0.78214037  0.21488273  0.49648199  1  1.47396  0  0.314201  0.515631  0  4.101801  0
C  C46  1  0.43273473  0.21785223  0.16315885  1  1.446297  0  0.314364  0.515998  0  4.101351  0
C  C47  1  0.78511823  0.56725728  0.82981991  1  1.443926  0  0.314264  0.51571  0  4.101877  0
C  C48  1  0.31281714  0.74150200  0.41352725  1  1.011525  0  0.207748  0.342992  0  4.021779  0
C  C49  1  0.25850035  0.57130568  0.74686608  1  0.983609  0  0.207892  0.343294  0  4.021416  0
C  C50  1  0.42868406  0.68718201  0.08019037  1  0.987382  0  0.207721  0.343065  0  4.021441  0
C  C51  1  0.74150492  0.31281522  0.58647456  1  1.011498  0  0.20779  0.34308  0  4.021788  0
C  C52  1  0.57131229  0.25850850  0.25313065  1  0.983871  0  0.207965  0.343307  0  4.021662  0
C  C53  1  0.68717874  0.42867700  0.91980846  1  0.987475  0  0.207767  0.342998  0  4.021829  0
C  C54  1  0.32774226  0.68158179  0.34632751  1  -0.032122  0  -0.141203  -0.331236  0  3.94548  0
C  C55  1  0.31842487  0.64616863  0.67966735  1  0.002457  0  -0.141198  -0.331405  0  3.945269  0
C  C56  1  0.35381936  0.67225371  0.01300336  1  -0.021622  0  -0.141102  -0.33103  0  3.945482  0
C  C57  1  0.68158996  0.32774330  0.65367078  1  -0.032397  0  -0.141233  -0.331227  0  3.945444  0
C  C58  1  0.64617325  0.31843551  0.32033143  1  0.002586  0  -0.141214  -0.331333  0  3.945393  0
C  C59  1  0.67225393  0.35382193  0.98699845  1  -0.021517  0  -0.141117  -0.330954  0  3.945243  0
C  C60  1  0.20739244  0.51184801  0.33108914  1  1.038025  0  0.216722  0.353294  0  3.989917  0
C  C61  1  0.48817063  0.69554506  0.66442519  1  1.024672  0  0.216784  0.353331  0  3.989636  0
C  C62  1  0.30443855  0.79259471  0.99776667  1  1.034028  0  0.216631  0.353128  0  3.990302  0
C  C63  1  0.51184887  0.20739030  0.66890754  1  1.038342  0  0.216781  0.353303  0  3.989934  0
C  C64  1  0.69555449  0.48817378  0.33557367  1  1.024565  0  0.216786  0.353272  0  3.989708  0
C  C65  1  0.79259651  0.30443661  0.00223716  1  1.033827  0  0.216689  0.353005  0  3.990116  0
C  C66  1  0.09274405  0.27817513  0.28708265  1  1.496041  0  0.312073  0.516587  0  4.122508  0
C  C67  1  0.72184913  0.81457848  0.62043787  1  1.487508  0  0.311981  0.516784  0  4.121849  0
C  C68  1  0.18543582  0.90725990  0.95376414  1  1.491576  0  0.311935  0.516697  0  4.122645  0
C  C69  1  0.27818251  0.09274318  0.71291391  1  1.495989  0  0.312018  0.516624  0  4.12249  0
C  C70  1  0.81458156  0.72184998  0.37956562  1  1.487551  0  0.311989  0.516719  0  4.121884  0
C  C71  1  0.90726324  0.18544018  0.04623519  1  1.491404  0  0.311986  0.516741  0  4.122463  0
C  C72  1  0.21242052  0.00000345  0.33332787  1  2.097545  0  0.346879  0.698747  0  4.197489  0
C  C73  1  0.00003243  0.21244275  0.66666463  1  2.09762  0  0.346956  0.698764  0  4.197664  0
C  C74  1  0.78754792  0.78758321  0.00000028  1  2.098563  0  0.346999  0.698689  0  4.197799  0
N  N75  1  0.37374882  0.86662056  0.50790351  1  -0.811747  0  -0.295494  -0.318471  0  3.527938  0
N  N76  1  0.13334018  0.50707323  0.84123273  1  -0.803681  0  -0.295632  -0.318655  0  3.528176  0
N  N77  1  0.49290593  0.62625397  0.17456407  1  -0.800152  0  -0.295547  -0.318582  0  3.528048  0
N  N78  1  0.86663018  0.37375442  0.49209337  1  -0.81178  0  -0.295523  -0.318529  0  3.52786  0
N  N79  1  0.50707630  0.13334755  0.15876743  1  -0.803787  0  -0.295697  -0.318764  0  3.528228  0
N  N80  1  0.62625546  0.49290721  0.82543677  1  -0.79859  0  -0.295605  -0.31868  0  3.527962  0
N  N81  1  0.43682639  0.84117793  0.44992845  1  -0.778514  0  -0.250493  -0.290301  0  3.220752  0
N  N82  1  0.15880411  0.59561670  0.78326601  1  -0.755714  0  -0.250382  -0.290209  0  3.220782  0
N  N83  1  0.40436382  0.56316146  0.11660110  1  -0.745114  0  -0.250426  -0.290354  0  3.220258  0
N  N84  1  0.84119015  0.43683333  0.55006543  1  -0.777938  0  -0.250471  -0.290357  0  3.220624  0
N  N85  1  0.59561407  0.15880555  0.21673569  1  -0.755873  0  -0.250389  -0.290173  0  3.220925  0
N  N86  1  0.56316040  0.40436403  0.88340218  1  -0.746799  0  -0.250455  -0.290224  0  3.220254  0
N  N87  1  0.17187339  0.70305584  0.44433733  1  -1.269161  0  -0.385538  -0.475768  0  3.474811  0
N  N88  1  0.29694682  0.46880534  0.77766886  1  -1.255028  0  -0.385694  -0.476141  0  3.474816  0
N  N89  1  0.53117211  0.82812566  0.11100118  1  -1.259764  0  -0.385546  -0.475818  0  3.474797  0
N  N90  1  0.70305702  0.17187364  0.55566341  1  -1.269543  0  -0.38552  -0.47581  0  3.474821  0
N  N91  1  0.46881593  0.29696027  0.22232784  1  -1.254769  0  -0.385684  -0.476106  0  3.475033  0
N  N92  1  0.82812324  0.53116424  0.88899874  1  -1.260234  0  -0.38552  -0.475789  0  3.474985  0
N  N93  1  0.10719433  0.77785310  0.54959199  1  -1.316271  0  -0.588309  -0.665679  0  3.291219  0
N  N94  1  0.22214010  0.32931520  0.88291637  1  -1.300367  0  -0.58846  -0.665977  0  3.291069  0
N  N95  1  0.67065143  0.89280745  0.21623669  1  -1.312557  0  -0.588391  -0.665952  0  3.291795  0
N  N96  1  0.77785759  0.10720381  0.45041377  1  -1.316418  0  -0.588248  -0.66563  0  3.29153  0
N  N97  1  0.32931407  0.22213749  0.11708026  1  -1.300165  0  -0.588493  -0.666169  0  3.290441  0
N  N98  1  0.89280805  0.67064974  0.78376030  1  -1.310071  0  -0.588309  -0.665763  0  3.291654  0
N  N99  1  0.23507204  0.41787080  0.28923416  1  -1.248555  0  -0.377833  -0.465782  0  3.459869  0
N  N100  1  0.58216566  0.81722622  0.62257356  1  -1.248052  0  -0.377841  -0.465855  0  3.459291  0
N  N101  1  0.18278468  0.76492313  0.95590832  1  -1.254485  0  -0.377766  -0.465799  0  3.459796  0
N  N102  1  0.41787607  0.23507326  0.71076401  1  -1.248737  0  -0.377916  -0.465902  0  3.459806  0
N  N103  1  0.81722428  0.58216414  0.37742588  1  -1.24813  0  -0.377858  -0.465849  0  3.459429  0
N  N104  1  0.76492417  0.18278227  0.04409546  1  -1.254283  0  -0.377786  -0.465677  0  3.459692  0
N  N105  1  0.05837833  0.43385294  0.35279146  1  -0.84599  0  -0.284605  -0.257402  0  3.596503  0
N  N106  1  0.56615359  0.62452768  0.68612837  1  -0.847352  0  -0.28466  -0.257486  0  3.596394  0
N  N107  1  0.37545729  0.94158999  0.01946867  1  -0.862135  0  -0.284501  -0.257168  0  3.596207  0
N  N108  1  0.43386594  0.05838285  0.64720514  1  -0.846098  0  -0.284575  -0.257269  0  3.596414  0
N  N109  1  0.62453689  0.56616006  0.31387149  1  -0.847224  0  -0.284688  -0.257422  0  3.596285  0
N  N110  1  0.94159121  0.37546028  0.98053073  1  -0.86215  0  -0.284477  -0.257039  0  3.596024  0
N  N111  1  0.98257792  0.28249740  0.32557172  1  -0.759052  0  -0.26468  -0.35483  0  3.158671  0
N  N112  1  0.71753104  0.70010179  0.65892092  1  -0.761988  0  -0.264667  -0.354817  0  3.158594  0
N  N113  1  0.29990939  0.01741273  0.99224977  1  -0.752967  0  -0.264755  -0.35508  0  3.158874  0
N  N114  1  0.28250335  0.98257504  0.67442466  1  -0.759137  0  -0.264739  -0.354982  0  3.158678  0
N  N115  1  0.70010610  0.71752978  0.34107903  1  -0.762023  0  -0.264721  -0.354949  0  3.158576  0
N  N116  1  0.01741871  0.29991316  0.00775028  1  -0.753105  0  -0.264824  -0.35518  0  3.158767  0
N  N117  1  0.07004324  0.14680484  0.25212975  1  -1.264806  0  -0.585444  -0.654941  0  3.302901  0
N  N118  1  0.85324637  0.92327651  0.58548200  1  -1.247998  0  -0.585409  -0.655093  0  3.302093  0
N  N119  1  0.07674736  0.92995475  0.91880854  1  -1.256028  0  -0.585438  -0.65507  0  3.302761  0
N  N120  1  0.14680591  0.07004824  0.74786575  1  -1.265403  0  -0.585392  -0.654951  0  3.30278  0
N  N121  1  0.92327770  0.85323891  0.41451957  1  -1.247581  0  -0.585334  -0.65496  0  3.302463  0
N  N122  1  0.92996385  0.07674696  0.08119226  1  -1.255953  0  -0.585462  -0.655126  0  3.302722  0
O  O123  1  0.26932676  0.10631943  0.37159202  1  -1.070842  0  -0.186102  -0.356168  0  2.188837  0
O  O124  1  0.89371969  0.16304484  0.70493508  1  -1.068517  0  -0.186148  -0.356216  0  2.188809  0
O  O125  1  0.83693127  0.73066509  0.03826407  1  -1.069675  0  -0.186153  -0.35611  0  2.189134  0
O  O126  1  0.10631958  0.26933053  0.62840254  1  -1.070938  0  -0.186134  -0.35611  0  2.189498  0
O  O127  1  0.16302164  0.89370233  0.29506823  1  -1.068559  0  -0.186101  -0.356144  0  2.189312  0
O  O128  1  0.73067213  0.83700256  0.96174043  1  -1.070684  0  -0.186189  -0.356159  0  2.189305  0
