# generated using pymatgen
data_CdH16C16S2N4O7
_symmetry_space_group_name_H-M   'P 1'
_cell_length_a   8.32763482
_cell_length_b   10.13134287
_cell_length_c   12.66444571
_cell_angle_alpha   100.94231333
_cell_angle_beta   99.30972459
_cell_angle_gamma   106.84234350
_symmetry_Int_Tables_number   1
_chemical_formula_structural   CdH16C16S2N4O7
_chemical_formula_sum   'Cd2 H32 C32 S4 N8 O14'
_cell_volume   976.99491980
_cell_formula_units_Z   2
loop_
 _symmetry_equiv_pos_site_id
 _symmetry_equiv_pos_as_xyz
  1  'x, y, z'
loop_
 _atom_site_type_symbol
 _atom_site_label
 _atom_site_symmetry_multiplicity
 _atom_site_fract_x
 _atom_site_fract_y
 _atom_site_fract_z
 _atom_site_occupancy
 _atom_site_hle17_bader_spin_density
 _atom_site_hle17_ddec_charge
 _atom_site_hle17_ddec_spin_density
 _atom_site_hle17_ddec_sum_bond_order
 _atom_site_hle17_magmom
 _atom_site_hse06_10hf_bader_spin_density
 _atom_site_hse06_10hf_ddec_charge
 _atom_site_hse06_10hf_ddec_spin_density
 _atom_site_hse06_10hf_ddec_sum_bond_order
 _atom_site_hse06_10hf_magmom
 _atom_site_hse06_bader_spin_density
 _atom_site_hse06_ddec_charge
 _atom_site_hse06_ddec_spin_density
 _atom_site_hse06_ddec_sum_bond_order
 _atom_site_hse06_magmom
 _atom_site_pbe_bader_spin_density
 _atom_site_pbe_cm5_charge
 _atom_site_pbe_ddec_charge
 _atom_site_pbe_ddec_spin_density
 _atom_site_pbe_ddec_sum_bond_order
 _atom_site_pbe_magmom
Cd  Cd0  1  0.57193890  0.56120702  0.21990780  1  0  1.221886  0  1.595662  0  0  1.038738  0  2.032553  0  0  1.088862  0  1.982935  0  0  0.818835  1.00345  0  2.066238  0
Cd  Cd1  1  0.42806702  0.43879333  0.78009378  1  0  1.221884  0  1.595663  0  0  1.038695  0  2.032569  0  0  1.088822  0  1.982946  0  0  0.818811  1.003409  0  2.066258  0
H  H2  1  0.96735564  0.23568953  0.22474889  1  0  0.314438  0  0.841433  0  0  0.308323  0  0.879718  0  0  0.314058  0  0.8767  0  0  0.346554  0.30429  0  0.881935  0
H  H3  1  0.03264413  0.76430766  0.77524445  1  0  0.31449  0  0.841453  0  0  0.308368  0  0.879741  0  0  0.314099  0  0.876721  0  0  0.346574  0.304336  0  0.88196  0
H  H4  1  0.05375497  0.77145603  0.21663379  1  0  0.3213  0  0.842706  0  0  0.313163  0  0.882727  0  0  0.319423  0  0.87878  0  0  0.342001  0.308695  0  0.885687  0
H  H5  1  0.94625590  0.22854748  0.78337196  1  0  0.321346  0  0.842858  0  0  0.313229  0  0.882811  0  0  0.319492  0  0.878862  0  0  0.342012  0.308763  0  0.885768  0
H  H6  1  0.28662798  0.32157230  0.21406802  1  0  0.420132  0  0.86104  0  0  0.390421  0  0.932694  0  0  0.400481  0  0.917772  0  0  0.296692  0.383223  0  0.943378  0
H  H7  1  0.71337190  0.67842814  0.78593055  1  0  0.420147  0  0.860999  0  0  0.390435  0  0.932669  0  0  0.400495  0  0.917748  0  0  0.296717  0.383241  0  0.943345  0
H  H8  1  0.35575270  0.37543687  0.34743744  1  0  0.427614  0  0.874354  0  0  0.394576  0  0.941567  0  0  0.405129  0  0.926103  0  0  0.28975  0.387161  0  0.952418  0
H  H9  1  0.64424266  0.62456149  0.65255954  1  0  0.427606  0  0.874359  0  0  0.394586  0  0.941543  0  0  0.405136  0  0.926083  0  0  0.289755  0.387171  0  0.952393  0
H  H10  1  0.32525171  0.12299837  0.77225197  1  0  0.108191  0  0.968704  0  0  0.116821  0  1.033845  0  0  0.120092  0  1.0313  0  0  0.103213  0.114349  0  1.035906  0
H  H11  1  0.67475148  0.87700415  0.22774727  1  0  0.108213  0  0.968635  0  0  0.116817  0  1.033817  0  0  0.12009  0  1.031266  0  0  0.103189  0.114321  0  1.035895  0
H  H12  1  0.49424627  0.96924599  0.71183457  1  0  0.084553  0  0.995796  0  0  0.093998  0  1.059127  0  0  0.094904  0  1.061615  0  0  0.094778  0.093289  0  1.057529  0
H  H13  1  0.50575647  0.03075548  0.28816446  1  0  0.084516  0  0.995875  0  0  0.093967  0  1.059194  0  0  0.094872  0  1.061685  0  0  0.094769  0.093259  0  1.057594  0
H  H14  1  0.63936494  0.86695938  0.84248659  1  0  0.104339  0  0.983831  0  0  0.114212  0  1.045149  0  0  0.118041  0  1.041788  0  0  0.102356  0.111419  0  1.04768  0
H  H15  1  0.36063646  0.13303889  0.15751104  1  0  0.10431  0  0.983815  0  0  0.114157  0  1.045167  0  0  0.117985  0  1.041807  0  0  0.102346  0.111367  0  1.047698  0
H  H16  1  0.83731659  0.03201046  0.47625597  1  0  0.122655  0  0.964472  0  0  0.129449  0  1.027315  0  0  0.133599  0  1.024005  0  0  0.106909  0.126351  0  1.029945  0
H  H17  1  0.16267198  0.96798908  0.52373965  1  0  0.122551  0  0.964563  0  0  0.129366  0  1.027376  0  0  0.133515  0  1.024068  0  0  0.106865  0.126267  0  1.030009  0
H  H18  1  0.84894376  0.26521427  0.44500845  1  0  0.087862  0  0.982287  0  0  0.096013  0  1.047611  0  0  0.098671  0  1.047677  0  0  0.098197  0.094051  0  1.047662  0
H  H19  1  0.15104820  0.73479064  0.55499860  1  0  0.087891  0  0.982283  0  0  0.09603  0  1.047621  0  0  0.098688  0  1.047689  0  0  0.098217  0.094069  0  1.047672  0
H  H20  1  0.39742606  0.64438249  0.54159652  1  0  0.125604  0  0.950167  0  0  0.134833  0  1.009584  0  0  0.138229  0  1.007753  0  0  0.110816  0.131928  0  1.011537  0
H  H21  1  0.60256500  0.35562028  0.45840932  1  0  0.1256  0  0.950188  0  0  0.134777  0  1.009684  0  0  0.138171  0  1.007858  0  0  0.110821  0.13191  0  1.011588  0
H  H22  1  0.70837307  0.28179827  0.11959803  1  0  0.089438  0  0.977081  0  0  0.097052  0  1.0436  0  0  0.0981  0  1.043374  0  0  0.13446  0.096209  0  1.043839  0
H  H23  1  0.29162921  0.71821069  0.88039968  1  0  0.089409  0  0.977077  0  0  0.097017  0  1.043618  0  0  0.09807  0  1.043377  0  0  0.134462  0.096173  0  1.043856  0
H  H24  1  0.12927793  0.43359426  0.39949851  1  0  0.114259  0  1.007801  0  0  0.121373  0  1.071699  0  0  0.124218  0  1.07035  0  0  0.120214  0.119288  0  1.072799  0
H  H25  1  0.87072441  0.56639756  0.60049906  1  0  0.114317  0  1.007795  0  0  0.121445  0  1.071666  0  0  0.124288  0  1.07032  0  0  0.120248  0.119361  0  1.072769  0
H  H26  1  0.94279209  0.62294504  0.40264367  1  0  0.100724  0  0.99076  0  0  0.105883  0  1.060826  0  0  0.108088  0  1.059851  0  0  0.112985  0.10426  0  1.061581  0
H  H27  1  0.05722016  0.37705308  0.59736065  1  0  0.100821  0  0.990678  0  0  0.10595  0  1.06077  0  0  0.10815  0  1.059806  0  0  0.113039  0.104328  0  1.061524  0
H  H28  1  0.31471375  0.73900230  0.33613431  1  0  0.072001  0  1.010287  0  0  0.080021  0  1.081328  0  0  0.079753  0  1.082977  0  0  0.123649  0.080133  0  1.080153  0
H  H29  1  0.68529640  0.26099370  0.66386868  1  0  0.07206  0  1.010279  0  0  0.080061  0  1.081337  0  0  0.079793  0  1.082985  0  0  0.123668  0.080173  0  1.08016  0
H  H30  1  0.02154026  0.67589137  0.01416757  1  0  0.115561  0  0.986544  0  0  0.120224  0  1.05394  0  0  0.123211  0  1.052355  0  0  0.117779  0.118045  0  1.055161  0
H  H31  1  0.97846803  0.32411753  0.98583711  1  0  0.115522  0  0.986558  0  0  0.120178  0  1.053976  0  0  0.123167  0  1.052385  0  0  0.117751  0.117995  0  1.055205  0
H  H32  1  0.28493686  0.55685774  0.00237013  1  0  0.111642  0  0.988861  0  0  0.116591  0  1.058145  0  0  0.119322  0  1.05631  0  0  0.113813  0.11458  0  1.059564  0
H  H33  1  0.71506723  0.44314692  0.99763031  1  0  0.111646  0  0.988915  0  0  0.116599  0  1.058196  0  0  0.11933  0  1.05636  0  0  0.113792  0.114586  0  1.059617  0
C  C34  1  0.37726625  0.10888671  0.94057191  1  0  -0.167562  0  3.689665  0  0  -0.145232  0  3.937075  0  0  -0.152961  0  3.958744  0  0  -0.021942  -0.140424  0  3.922789  0
C  C35  1  0.62273319  0.89111266  0.05942566  1  0  -0.167663  0  3.689696  0  0  -0.145295  0  3.937034  0  0  -0.153025  0  3.958702  0  0  -0.021956  -0.140486  0  3.922743  0
C  C36  1  0.38639390  0.07672129  0.83118568  1  0  -0.061733  0  3.764332  0  0  -0.092794  0  4.019566  0  0  -0.090441  0  4.038319  0  0  -0.089478  -0.094445  0  4.007241  0
C  C37  1  0.61360916  0.92327801  0.16881228  1  0  -0.061773  0  3.764218  0  0  -0.092837  0  4.019449  0  0  -0.090484  0  4.038198  0  0  -0.089492  -0.094467  0  4.007142  0
C  C38  1  0.48201200  0.98920765  0.79696788  1  0  -0.053151  0  3.764591  0  0  -0.068938  0  4.02481  0  0  -0.071447  0  4.046207  0  0  -0.094333  -0.067289  0  4.010546  0
C  C39  1  0.51799195  0.01079380  0.20303286  1  0  -0.053028  0  3.764557  0  0  -0.068819  0  4.024772  0  0  -0.071326  0  4.046165  0  0  -0.09428  -0.067169  0  4.010502  0
C  C40  1  0.56331236  0.93157969  0.87018130  1  0  -0.098973  0  3.722815  0  0  -0.12518  0  3.977709  0  0  -0.125162  0  3.994172  0  0  -0.089513  -0.125445  0  3.966891  0
C  C41  1  0.43669221  0.06841746  0.12981809  1  0  -0.098943  0  3.722775  0  0  -0.125112  0  3.977677  0  0  -0.125093  0  3.994141  0  0  -0.089487  -0.125382  0  3.966862  0
C  C42  1  0.45224844  0.04552204  0.01851317  1  0  0.049982  0  3.751598  0  0  0.058295  0  3.982792  0  0  0.058863  0  4.006591  0  0  -0.006802  0.058134  0  3.966585  0
C  C43  1  0.54775297  0.95447622  0.98148446  1  0  0.050127  0  3.751602  0  0  0.058469  0  3.982754  0  0  0.059042  0  4.006547  0  0  -0.006733  0.058305  0  3.966549  0
C  C44  1  0.55647680  0.83601262  0.51263138  1  0  -0.172097  0  3.714649  0  0  -0.147554  0  3.958928  0  0  -0.155117  0  3.979541  0  0  -0.020806  -0.142884  0  3.945096  0
C  C45  1  0.44351163  0.16398369  0.48736216  1  0  -0.172124  0  3.714594  0  0  -0.147494  0  3.958808  0  0  -0.155046  0  3.979401  0  0  -0.020809  -0.142815  0  3.944981  0
C  C46  1  0.57321215  0.97586514  0.49832336  1  0  0.043807  0  3.755478  0  0  0.05267  0  3.985588  0  0  0.053107  0  4.009555  0  0  -0.005312  0.052433  0  3.969414  0
C  C47  1  0.42677299  0.02412907  0.50166636  1  0  0.043913  0  3.755419  0  0  0.052687  0  3.985552  0  0  0.05312  0  4.009519  0  0  -0.005332  0.05243  0  3.96939  0
C  C48  1  0.72564060  0.06665882  0.47907654  1  0  -0.092076  0  3.68285  0  0  -0.116641  0  3.934007  0  0  -0.11613  0  3.949839  0  0  -0.08235  -0.116912  0  3.923321  0
C  C49  1  0.27434828  0.93333857  0.52091801  1  0  -0.092034  0  3.682841  0  0  -0.116565  0  3.933931  0  0  -0.116055  0  3.949769  0  0  -0.082292  -0.116833  0  3.923249  0
C  C50  1  0.73332841  0.19878602  0.46284084  1  0  -0.060349  0  3.758066  0  0  -0.072607  0  4.013567  0  0  -0.075154  0  4.032279  0  0  -0.089309  -0.070838  0  4.000698  0
C  C51  1  0.26666057  0.80121462  0.53716130  1  0  -0.060145  0  3.758084  0  0  -0.07239  0  4.013526  0  0  -0.074938  0  4.032239  0  0  -0.089225  -0.070617  0  4.000641  0
C  C52  1  0.40712184  0.75087205  0.53209622  1  0  -0.066037  0  3.738606  0  0  -0.093228  0  3.987893  0  0  -0.090387  0  4.00414  0  0  -0.084738  -0.094708  0  3.977045  0
C  C53  1  0.59286670  0.24912752  0.46790413  1  0  -0.065766  0  3.738383  0  0  -0.092921  0  3.987657  0  0  -0.090082  0  4.003902  0  0  -0.084585  -0.094431  0  3.976793  0
C  C54  1  0.79644219  0.35022563  0.19563713  1  0  0.231934  0  3.652645  0  0  0.176109  0  3.913966  0  0  0.190782  0  3.927731  0  0  0.148147  0.166664  0  3.904223  0
C  C55  1  0.20356070  0.64977904  0.80436160  1  0  0.23206  0  3.65258  0  0  0.176225  0  3.913885  0  0  0.190892  0  3.927647  0  0  0.148167  0.166779  0  3.904143  0
C  C56  1  0.01607303  0.43250652  0.34289237  1  0  -0.023612  0  3.695862  0  0  -0.059572  0  3.95878  0  0  -0.058867  0  3.978112  0  0  -0.003948  -0.059946  0  3.945704  0
C  C57  1  0.98393033  0.56749065  0.65710689  1  0  -0.023807  0  3.69598  0  0  -0.059771  0  3.958913  0  0  -0.059075  0  3.978242  0  0  -0.004029  -0.060146  0  3.945835  0
C  C58  1  0.92253319  0.52389014  0.34384849  1  0  -0.011072  0  3.757047  0  0  -0.045408  0  4.022699  0  0  -0.044383  0  4.045485  0  0  -0.006864  -0.046007  0  4.007221  0
C  C59  1  0.07747545  0.47610802  0.65615387  1  0  -0.011153  0  3.756912  0  0  -0.045481  0  4.02259  0  0  -0.044455  0  4.045376  0  0  -0.006944  -0.046078  0  4.007106  0
C  C60  1  0.27410699  0.70581271  0.24697769  1  0  0.212646  0  3.69971  0  0  0.152715  0  3.968881  0  0  0.166709  0  3.984893  0  0  0.135471  0.14371  0  3.957623  0
C  C61  1  0.72589969  0.29418655  0.75302303  1  0  0.212523  0  3.699872  0  0  0.152561  0  3.969048  0  0  0.166557  0  3.985066  0  0  0.135393  0.143558  0  3.957786  0
C  C62  1  0.12241401  0.67020117  0.07701810  1  0  -0.001989  0  3.671618  0  0  -0.03766  0  3.931724  0  0  -0.036343  0  3.950997  0  0  0.002052  -0.038403  0  3.91872  0
C  C63  1  0.87759746  0.32980660  0.92298519  1  0  -0.001783  0  3.67155  0  0  -0.037489  0  3.931632  0  0  -0.036172  0  3.950908  0  0  0.002166  -0.038232  0  3.918623  0
C  C64  1  0.25188138  0.61242239  0.07275381  1  0  -0.018502  0  3.753867  0  0  -0.054309  0  4.022271  0  0  -0.053286  0  4.044342  0  0  -0.014575  -0.055022  0  4.007367  0
C  C65  1  0.74812558  0.38758330  0.92724788  1  0  -0.018554  0  3.753953  0  0  -0.054384  0  4.022388  0  0  -0.053356  0  4.044448  0  0  -0.014589  -0.0551  0  4.007492  0
S  S66  1  0.30175749  0.25438678  0.98530503  1  0  1.315526  0  5.601472  0  0  1.218185  0  6.117483  0  0  1.266326  0  6.094599  0  0  0.511972  1.185129  0  6.131947  0
S  S67  1  0.69824556  0.74561254  0.01469530  1  0  1.315608  0  5.601531  0  0  1.218209  0  6.117582  0  0  1.266352  0  6.094693  0  0  0.512016  1.185154  0  6.132049  0
S  S68  1  0.72475822  0.76250003  0.49658022  1  0  1.282372  0  5.669292  0  0  1.182758  0  6.191935  0  0  1.230726  0  6.169391  0  0  0.500414  1.149663  0  6.206256  0
S  S69  1  0.27522973  0.23749525  0.50341943  1  0  1.282469  0  5.669275  0  0  1.1828  0  6.191929  0  0  1.230775  0  6.169384  0  0  0.500462  1.149703  0  6.206249  0
N  N70  1  0.78645463  0.47159550  0.25193342  1  0  -0.39044  0  3.240617  0  0  -0.30682  0  3.514866  0  0  -0.329596  0  3.533086  0  0  -0.35907  -0.291164  0  3.501922  0
N  N71  1  0.21355021  0.52840809  0.74806852  1  0  -0.390448  0  3.240558  0  0  -0.306765  0  3.514725  0  0  -0.329543  0  3.532949  0  0  -0.358997  -0.291107  0  3.501779  0
N  N72  1  0.93428139  0.32387069  0.24842698  1  0  -0.269484  0  3.439902  0  0  -0.205352  0  3.673187  0  0  -0.220048  0  3.686804  0  0  -0.371118  -0.195582  0  3.663798  0
N  N73  1  0.06571806  0.67612867  0.75156902  1  0  -0.269504  0  3.439992  0  0  -0.205384  0  3.673299  0  0  -0.220059  0  3.686898  0  0  -0.371143  -0.195617  0  3.663911  0
N  N74  1  0.34627801  0.63593200  0.17914930  1  0  -0.425532  0  3.290413  0  0  -0.338072  0  3.567087  0  0  -0.36217  0  3.586829  0  0  -0.364107  -0.321527  0  3.553145  0
N  N75  1  0.65373110  0.36406722  0.82085010  1  0  -0.425436  0  3.290593  0  0  -0.337969  0  3.567264  0  0  -0.362067  0  3.58701  0  0  -0.364054  -0.321427  0  3.553322  0
N  N76  1  0.13869837  0.72792792  0.18738566  1  0  -0.261908  0  3.450507  0  0  -0.195278  0  3.68109  0  0  -0.210325  0  3.695929  0  0  -0.372067  -0.185265  0  3.670947  0
N  N77  1  0.86131371  0.27207557  0.81261943  1  0  -0.262068  0  3.450625  0  0  -0.19535  0  3.681072  0  0  -0.210403  0  3.695917  0  0  -0.3721  -0.185335  0  3.670924  0
O  O78  1  0.46078237  0.36793627  0.05257352  1  0  -0.705629  0  2.052473  0  0  -0.637761  0  2.328875  0  0  -0.662259  0  2.314505  0  0  -0.346348  -0.620477  0  2.337712  0
O  O79  1  0.53922280  0.63206515  0.94742578  1  0  -0.705712  0  2.052638  0  0  -0.637767  0  2.328999  0  0  -0.662267  0  2.314631  0  0  -0.346351  -0.620483  0  2.337835  0
O  O80  1  0.23367118  0.29022021  0.88301542  1  0  -0.692133  0  1.966621  0  0  -0.635964  0  2.233482  0  0  -0.657081  0  2.216216  0  0  -0.342387  -0.621099  0  2.244729  0
O  O81  1  0.76632836  0.70978240  0.11698738  1  0  -0.692137  0  1.966608  0  0  -0.63596  0  2.233476  0  0  -0.657082  0  2.216218  0  0  -0.342414  -0.621085  0  2.244693  0
O  O82  1  0.17178421  0.21451848  0.04977332  1  0  -0.660826  0  1.893755  0  0  -0.613895  0  2.126028  0  0  -0.633269  0  2.110295  0  0  -0.348213  -0.600156  0  2.136315  0
O  O83  1  0.82822093  0.78548297  0.95022992  1  0  -0.660857  0  1.893774  0  0  -0.613931  0  2.126061  0  0  -0.63331  0  2.110341  0  0  -0.348244  -0.600198  0  2.13635  0
O  O84  1  0.73323142  0.75328196  0.37907414  1  0  -0.694058  0  1.979932  0  0  -0.628891  0  2.247679  0  0  -0.652905  0  2.231073  0  0  -0.349754  -0.611668  0  2.258322  0
O  O85  1  0.26676633  0.24671639  0.62092784  1  0  -0.694044  0  1.979986  0  0  -0.628909  0  2.24779  0  0  -0.652924  0  2.231182  0  0  -0.349734  -0.611685  0  2.258437  0
O  O86  1  0.66527227  0.61940094  0.51705564  1  0  -0.671519  0  2.014062  0  0  -0.610068  0  2.256203  0  0  -0.631405  0  2.24257  0  0  -0.333202  -0.595254  0  2.265853  0
O  O87  1  0.33471448  0.38059435  0.48294231  1  0  -0.671567  0  2.014087  0  0  -0.610047  0  2.256178  0  0  -0.631406  0  2.242563  0  0  -0.33317  -0.595233  0  2.265829  0
O  O88  1  0.88353401  0.85761967  0.57431195  1  0  -0.631994  0  1.880952  0  0  -0.589076  0  2.112411  0  0  -0.609033  0  2.09911  0  0  -0.344909  -0.574483  0  2.120843  0
O  O89  1  0.11644787  0.14237574  0.42569101  1  0  -0.632092  0  1.880862  0  0  -0.589152  0  2.112324  0  0  -0.609107  0  2.099018  0  0  -0.345007  -0.574558  0  2.120757  0
O  O90  1  0.38789480  0.37215171  0.27506842  1  0  -0.848093  0  1.886504  0  0  -0.792476  0  2.092448  0  0  -0.813271  0  2.060198  0  0  -0.590083  -0.777814  0  2.114881  0
O  O91  1  0.61210266  0.62784877  0.72493068  1  0  -0.848092  0  1.886464  0  0  -0.79248  0  2.092424  0  0  -0.813275  0  2.060179  0  0  -0.590106  -0.77782  0  2.114851  0
