# generated using pymatgen
data_CoH32C34Br4(N2O3)2
_symmetry_space_group_name_H-M   'P 1'
_cell_length_a   9.17436599
_cell_length_b   9.57211820
_cell_length_c   11.25358851
_cell_angle_alpha   99.00546888
_cell_angle_beta   94.32258487
_cell_angle_gamma   118.06831339
_symmetry_Int_Tables_number   1
_chemical_formula_structural   CoH32C34Br4(N2O3)2
_chemical_formula_sum   'Co1 H32 C34 Br4 N4 O6'
_cell_volume   848.60180032
_cell_formula_units_Z   1
loop_
 _symmetry_equiv_pos_site_id
 _symmetry_equiv_pos_as_xyz
  1  'x, y, z'
loop_
 _atom_site_type_symbol
 _atom_site_label
 _atom_site_symmetry_multiplicity
 _atom_site_fract_x
 _atom_site_fract_y
 _atom_site_fract_z
 _atom_site_occupancy
 _atom_site_hse06_10hf_ddec_charge
 _atom_site_hse06_10hf_ddec_spin_density
 _atom_site_hse06_10hf_ddec_sum_bond_order
 _atom_site_hse06_10hf_magmom
 _atom_site_hse06_ddec_charge
 _atom_site_hse06_ddec_spin_density
 _atom_site_hse06_ddec_sum_bond_order
 _atom_site_hse06_magmom
 _atom_site_pbe_cm5_charge
 _atom_site_pbe_ddec_charge
 _atom_site_pbe_ddec_spin_density
 _atom_site_pbe_ddec_sum_bond_order
 _atom_site_pbe_magmom
Co  Co0  1  0.49999740  0.00000211  0.99999901  1  0.772922  -1.028698  2.7321  -0.967  0.8567  -1.020648  2.650042  -0.966  0.627622  0.738809  -1.031377  2.775039  -0.957
H  H1  1  0.20080911  0.92943077  0.04795482  1  0.363044  -0.000171  0.984691  0.0  0.374431  -2.8e-05  0.967709  0.0  0.281996  0.355942  -0.000271  0.995033  0.0
H  H2  1  0.79919098  0.07057614  0.95204443  1  0.362976  -0.000171  0.984777  0.0  0.374372  -2.8e-05  0.967789  0.0  0.281957  0.355873  -0.000271  0.995121  0.0
H  H3  1  0.15068411  0.88289016  0.89790977  1  0.341213  -0.000687  1.020146  -0.001  0.353405  -0.000459  1.002882  -0.001  0.274398  0.333827  -0.00081  1.030374  -0.001
H  H4  1  0.84931713  0.11710824  0.10208762  1  0.34119  -0.000687  1.020184  -0.001  0.353385  -0.000459  1.002914  -0.001  0.2744  0.333806  -0.00081  1.030411  -0.001
H  H5  1  0.03912152  0.81075195  0.33512831  1  0.111917  9e-06  1.008628  0.0  0.113384  7e-06  1.008338  0.0  0.093855  0.111379  -2e-06  1.006962  0.0
H  H6  1  0.96088021  0.18924530  0.66487341  1  0.111902  9e-06  1.00862  0.0  0.113364  7e-06  1.008353  0.0  0.093826  0.111365  -2e-06  1.006953  0.0
H  H7  1  0.88701728  0.60884846  0.32175514  1  0.088399  3e-05  1.01624  0.0  0.088877  1.4e-05  1.017233  0.0  0.087138  0.088179  4.7e-05  1.015165  0.0
H  H8  1  0.11298288  0.39115000  0.67824662  1  0.088392  3e-05  1.016237  0.0  0.08887  1.4e-05  1.01723  0.0  0.087141  0.088172  4.7e-05  1.01516  0.0
H  H9  1  0.11325183  0.64375146  0.49243224  1  0.09165  -5e-06  1.079556  0.0  0.094479  -5e-06  1.079453  0.0  0.086109  0.089051  -1.4e-05  1.081316  0.0
H  H10  1  0.88675208  0.35624572  0.50756517  1  0.091692  -5e-06  1.079545  0.0  0.094522  -5e-06  1.079437  0.0  0.086147  0.089091  -1.4e-05  1.081307  0.0
H  H11  1  0.80202257  0.86489800  0.55162882  1  0.109342  7e-06  1.037856  0.0  0.111891  5e-06  1.03811  0.0  0.097082  0.107615  -1e-06  1.037882  0.0
H  H12  1  0.19797548  0.13509203  0.44837621  1  0.109383  7e-06  1.037733  0.0  0.111932  5e-06  1.037986  0.0  0.097088  0.107651  -1e-06  1.037765  0.0
H  H13  1  0.36778403  0.19202207  0.11697644  1  0.095482  0.000349  1.033915  0.0  0.097467  0.000409  1.030717  0.0  0.119341  0.093483  0.000421  1.036638  0.0
H  H14  1  0.63221776  0.80798608  0.88302574  1  0.095414  0.000349  1.033917  0.0  0.097404  0.000409  1.030714  0.0  0.119307  0.093414  0.000421  1.036639  0.0
H  H15  1  0.82192608  0.89892599  0.35095251  1  0.08918  2.7e-05  1.007084  0.0  0.089413  1.7e-05  1.009403  0.0  0.088107  0.088952  3.9e-05  1.005416  0.0
H  H16  1  0.17808138  0.10107611  0.64905108  1  0.089111  2.7e-05  1.007164  0.0  0.089332  1.7e-05  1.009491  0.0  0.088118  0.088887  3.9e-05  1.005497  0.0
H  H17  1  0.66662455  0.69759239  0.34388234  1  0.059295  -1.9e-05  1.045793  0.0  0.060207  -9e-06  1.045662  0.0  0.073519  0.059254  -2.9e-05  1.044342  0.0
H  H18  1  0.33337697  0.30241095  0.65612189  1  0.059303  -1.9e-05  1.045826  0.0  0.060217  -1e-05  1.045689  0.0  0.07351  0.05926  -2.9e-05  1.044375  0.0
H  H19  1  0.78719187  0.29397101  0.95520991  1  0.076966  0.000453  1.052099  0.0  0.079207  0.000516  1.048729  0.0  0.112318  0.07489  0.000492  1.05539  0.0
H  H20  1  0.21279906  0.70602855  0.04478339  1  0.077006  0.000454  1.052193  0.0  0.079251  0.000517  1.048823  0.0  0.112341  0.07493  0.000492  1.055487  0.0
H  H21  1  0.90046234  0.59112514  0.02461000  1  0.121829  0.000107  1.000192  0.0  0.124516  0.000115  0.999869  0.0  0.105515  0.119303  5.1e-05  1.001674  0.0
H  H22  1  0.09952907  0.40887322  0.97538407  1  0.121831  0.000107  1.000213  0.0  0.124518  0.000114  0.999888  0.0  0.105495  0.119304  5.1e-05  1.001697  0.0
H  H23  1  0.87267903  0.89021228  0.77218417  1  0.086726  -0.000165  1.02254  0.0  0.089653  -0.000106  1.01953  0.0  0.108537  0.084224  -0.000124  1.024994  0.0
H  H24  1  0.12732011  0.10977776  0.22782182  1  0.08675  -0.000165  1.022616  0.0  0.089679  -0.000106  1.019611  0.0  0.108558  0.084249  -0.000124  1.025072  0.0
H  H25  1  0.17927511  0.68579519  0.71767793  1  0.071138  3.4e-05  1.028886  0.0  0.073793  3.1e-05  1.026726  0.0  0.101346  0.069511  3.2e-05  1.029817  0.0
H  H26  1  0.82073085  0.31419959  0.28232110  1  0.071017  3.4e-05  1.02899  0.0  0.073669  3.1e-05  1.026831  0.0  0.10128  0.06939  3.2e-05  1.029921  0.0
H  H27  1  0.46196812  0.48258524  0.19117151  1  0.100147  4.4e-05  1.053664  0.0  0.10303  1.6e-05  1.053296  0.0  0.0911  0.098231  5.9e-05  1.053799  0.0
H  H28  1  0.53803449  0.51741815  0.80883725  1  0.100158  4.4e-05  1.053654  0.0  0.103041  1.6e-05  1.053286  0.0  0.09111  0.09824  5.9e-05  1.053787  0.0
H  H29  1  0.67020782  0.77984323  0.14320478  1  0.123858  0.000265  0.981528  0.0  0.125433  0.000163  0.98169  0.0  0.100547  0.121645  0.000471  0.982612  0.0
H  H30  1  0.32980053  0.22016494  0.85679962  1  0.123916  0.000265  0.981463  0.0  0.125492  0.000162  0.981623  0.0  0.100564  0.121704  0.000471  0.982545  0.0
H  H31  1  0.87732938  0.81563566  0.14353994  1  0.109051  -0.000197  0.977505  0.0  0.110714  -0.000122  0.976506  0.0  0.096667  0.107076  -0.000196  0.97906  0.0
H  H32  1  0.12267823  0.18436887  0.85646396  1  0.109056  -0.000197  0.977608  0.0  0.110718  -0.000122  0.976611  0.0  0.096688  0.107081  -0.000196  0.979162  0.0
C  C33  1  0.39071054  0.97656576  0.24141776  1  0.580389  0.001964  4.26327  0.001  0.616987  0.000269  4.255905  -0.001  0.200673  0.556709  0.002755  4.266637  0.002
C  C34  1  0.60928162  0.02343628  0.75857948  1  0.580505  0.001964  4.263163  0.001  0.617104  0.000268  4.255795  -0.001  0.200703  0.556823  0.002755  4.266529  0.002
C  C35  1  0.44634680  0.99036627  0.37587242  1  -0.083874  0.000387  3.96172  0.0  -0.086455  6.9e-05  3.97811  0.0  -0.017163  -0.083423  -0.001237  3.950812  -0.002
C  C36  1  0.55365131  0.00963460  0.62412773  1  -0.083936  0.000387  3.96158  0.0  -0.086513  7.2e-05  3.977967  0.0  -0.017207  -0.083485  -0.001237  3.950673  -0.002
C  C37  1  0.69344018  0.56476639  0.11807009  1  0.180148  0.006033  3.956097  0.004  0.188734  0.003182  3.97642  0.002  0.009692  0.172815  0.009252  3.944398  0.006
C  C38  1  0.30656147  0.43523931  0.88193001  1  0.180112  0.006031  3.956102  0.004  0.188695  0.00318  3.976427  0.002  0.009656  0.172732  0.00925  3.944466  0.006
C  C39  1  0.92004578  0.73405187  0.36473104  1  -0.210678  6.7e-05  3.948389  0.0  -0.212768  3.8e-05  3.961498  0.0  -0.167234  -0.209727  8.1e-05  3.938525  0.0
C  C40  1  0.07995657  0.26594660  0.63527176  1  -0.210561  6.6e-05  3.948312  0.0  -0.212656  4.1e-05  3.961417  0.0  -0.167172  -0.209611  8.1e-05  3.938447  0.0
C  C41  1  0.52330180  0.13911856  0.46089709  1  0.026886  -0.000182  3.97086  0.0  0.030155  -7.5e-05  3.990731  0.0  -0.021089  0.024728  -0.000542  3.957811  -0.001
C  C42  1  0.47669399  0.86087983  0.53909905  1  0.026935  -0.000182  3.970768  0.0  0.030202  -7.7e-05  3.990639  0.0  -0.021036  0.024776  -0.000542  3.957722  -0.001
C  C43  1  0.05836510  0.70057633  0.55152086  1  -0.20589  -3.3e-05  3.991094  0.0  -0.214953  -2.4e-05  4.014946  0.0  -0.101314  -0.200264  -4.1e-05  3.975383  0.0
C  C44  1  0.94163806  0.29941730  0.44848229  1  -0.205903  -3.3e-05  3.991078  0.0  -0.214976  -2.4e-05  4.014957  0.0  -0.101385  -0.200278  -4.1e-05  3.975369  0.0
C  C45  1  0.88413918  0.82031423  0.58304225  1  -0.204646  8e-06  3.984802  0.0  -0.212502  5e-06  4.006786  0.0  -0.09713  -0.199439  -3e-06  3.969081  0.0
C  C46  1  0.11586413  0.17968190  0.41696655  1  -0.204641  8e-06  3.98471  0.0  -0.212498  6e-06  4.006698  0.0  -0.097132  -0.199429  -3e-06  3.968986  0.0
C  C47  1  0.57750489  0.14859048  0.58319427  1  0.032881  -9e-05  3.955948  0.0  0.036089  -2.3e-05  3.975502  0.0  -0.019088  0.030776  -0.000642  3.942234  -0.001
C  C48  1  0.42249554  0.85141272  0.41680010  1  0.032879  -9e-05  3.956063  0.0  0.036088  -2.1e-05  3.97562  0.0  -0.019073  0.030773  -0.000642  3.942353  -0.001
C  C49  1  0.48567172  0.28383395  0.09914321  1  0.091438  0.006853  3.955289  0.004  0.103696  0.004052  3.971427  0.002  0.038575  0.084107  0.007706  3.945421  0.005
C  C50  1  0.51432105  0.71616932  0.90085600  1  0.091426  0.00685  3.955409  0.004  0.103679  0.004048  3.971544  0.002  0.038544  0.084099  0.007703  3.945533  0.005
C  C51  1  0.78641827  0.77174648  0.31453396  1  -0.129658  0.000267  3.934116  0.0  -0.130282  0.000149  3.947782  0.0  -0.167884  -0.129638  0.000579  3.924697  0.0
C  C52  1  0.21358701  0.22825562  0.68546860  1  -0.129625  0.000268  3.934106  0.0  -0.130236  0.000149  3.947754  0.0  -0.167897  -0.129609  0.000579  3.924688  0.0
C  C53  1  0.72006069  0.34093171  0.00921942  1  0.082681  0.005884  3.969531  0.003  0.094215  0.003896  3.986744  0.002  0.036542  0.072704  0.008563  3.961595  0.005
C  C54  1  0.27993489  0.65907281  0.99078190  1  0.082623  0.005885  3.96956  0.003  0.094153  0.003893  3.986772  0.002  0.036528  0.072641  0.008564  3.961628  0.005
C  C55  1  0.95248639  0.75224847  0.50083781  1  0.167949  0.0  3.953347  0.0  0.173037  8e-06  3.975611  0.0  0.006786  0.165612  -8e-06  3.937606  0.0
C  C56  1  0.04751534  0.24774879  0.49916479  1  0.167854  -0.0  3.953617  0.0  0.172938  9e-06  3.97588  0.0  0.006775  0.16552  -8e-06  3.937874  0.0
C  C57  1  0.78182061  0.50697612  0.04828717  1  -0.2016  -0.000424  3.962392  -0.001  -0.210959  -0.000161  3.982521  0.0  -0.092303  -0.195609  -0.000237  3.951256  -0.001
C  C58  1  0.21816930  0.49301503  0.95171035  1  -0.201589  -0.000424  3.962235  -0.001  -0.210952  -0.000157  3.982365  0.0  -0.09226  -0.195581  -0.000237  3.951115  -0.001
C  C59  1  0.92359484  0.83429627  0.70807318  1  0.093638  -3.6e-05  3.993707  0.0  0.100508  -3e-06  4.010271  0.0  0.036667  0.089158  -4.6e-05  3.983052  0.0
C  C60  1  0.07641236  0.16570098  0.29192979  1  0.093526  -3.5e-05  3.993764  0.0  0.10039  -2e-06  4.010336  0.0  0.036597  0.089046  -4.6e-05  3.98311  0.0
C  C61  1  0.09313983  0.72106345  0.67717879  1  0.094239  6.2e-05  4.012276  0.0  0.101316  9e-05  4.029155  0.0  0.031939  0.089893  -4.9e-05  4.000398  0.0
C  C62  1  0.90686149  0.27892648  0.32281934  1  0.094359  6.1e-05  4.011964  0.0  0.101435  9.1e-05  4.028839  0.0  0.032012  0.090013  -4.9e-05  4.00009  0.0
C  C63  1  0.53965858  0.44718292  0.13960891  1  -0.198407  -0.000425  3.991286  -0.001  -0.208257  -0.000144  4.012039  0.0  -0.096227  -0.191906  -0.000244  3.977984  -0.001
C  C64  1  0.46034260  0.55282402  0.86039309  1  -0.198341  -0.000425  3.991204  -0.001  -0.208191  -0.000144  4.011958  0.0  -0.096186  -0.191823  -0.000244  3.977912  -0.001
C  C65  1  0.75915995  0.74083521  0.17401817  1  -0.206877  4.3e-05  3.90711  0.0  -0.209032  2.6e-05  3.917611  0.0  -0.159201  -0.205375  0.000269  3.902262  0.0
C  C66  1  0.24084499  0.25917054  0.82598570  1  -0.206964  4.3e-05  3.907208  0.0  -0.209116  2.8e-05  3.917701  0.0  -0.159234  -0.205449  0.000269  3.902372  0.0
Br  Br67  1  0.55280696  0.32839085  0.40851122  1  -0.004326  2.8e-05  1.736214  0.0  -0.007672  2.3e-05  1.731066  0.0  0.09508  -0.002657  -3.2e-05  1.738024  0.0
Br  Br68  1  0.44719381  0.67160866  0.59147916  1  -0.004327  2.8e-05  1.73626  0.0  -0.007675  2.4e-05  1.731112  0.0  0.095067  -0.00266  -3.2e-05  1.738071  0.0
Br  Br69  1  0.69219199  0.35247702  0.69606585  1  0.007222  4.8e-05  1.669472  0.0  0.004405  4.2e-05  1.662917  0.0  0.096181  0.008858  -4.9e-05  1.672083  0.0
Br  Br70  1  0.30780918  0.64752978  0.30392634  1  0.007212  4.9e-05  1.66948  0.0  0.004394  4.3e-05  1.662924  0.0  0.09617  0.008854  -4.9e-05  1.672087  0.0
N  N71  1  0.57553726  0.22896927  0.03659978  1  -0.20998  0.012137  3.640692  0.008  -0.241294  0.009758  3.66053  0.007  -0.344886  -0.19276  0.013596  3.629299  0.009
N  N72  1  0.42445551  0.77103397  0.96339676  1  -0.209919  0.012138  3.640906  0.008  -0.241229  0.009758  3.660742  0.007  -0.344858  -0.192699  0.013596  3.629511  0.009
N  N73  1  0.02721127  0.78691069  0.75586207  1  -0.271415  -0.000503  3.412988  -0.001  -0.28553  -0.000297  3.427083  -0.001  -0.323245  -0.263627  -0.000666  3.404795  -0.001
N  N74  1  0.97279517  0.21308293  0.24414040  1  -0.271355  -0.000503  3.412801  -0.001  -0.28547  -0.000298  3.426899  -0.001  -0.323194  -0.263567  -0.000666  3.404611  -0.001
O  O75  1  0.23880654  0.95870778  0.97107769  1  -0.776134  -0.020161  2.205514  -0.032  -0.801474  -0.016818  2.168599  -0.027  -0.578211  -0.754851  -0.023779  2.225551  -0.038
O  O76  1  0.76119218  0.04129427  0.02892087  1  -0.776053  -0.020158  2.205517  -0.032  -0.801406  -0.016817  2.168563  -0.027  -0.578183  -0.754772  -0.023776  2.225554  -0.038
O  O77  1  0.24034949  0.93856450  0.20750813  1  -0.559599  0.001501  2.202023  0.001  -0.585479  0.001394  2.192846  0.001  -0.306463  -0.541617  0.001567  2.207051  0.001
O  O78  1  0.75964643  0.06143633  0.79249009  1  -0.559665  0.001501  2.20187  0.001  -0.585545  0.001395  2.192698  0.001  -0.306488  -0.541683  0.001567  2.206896  0.001
O  O79  1  0.50666777  0.00334143  0.17770820  1  -0.520075  0.000838  2.397056  -0.001  -0.560712  0.004303  2.389992  0.003  -0.292084  -0.496421  -0.00127  2.401472  -0.003
O  O80  1  0.49332453  0.99666306  0.82229113  1  -0.520118  0.000838  2.397022  -0.001  -0.560755  0.004302  2.389957  0.003  -0.292085  -0.496463  -0.001269  2.401435  -0.003
