# generated using pymatgen
data_Cd2H23C34(N3O5)2
_symmetry_space_group_name_H-M   'P 1'
_cell_length_a   9.85419727
_cell_length_b   16.45398326
_cell_length_c   21.96324284
_cell_angle_alpha   89.99524974
_cell_angle_beta   91.51753709
_cell_angle_gamma   90.00088684
_symmetry_Int_Tables_number   1
_chemical_formula_structural   Cd2H23C34(N3O5)2
_chemical_formula_sum   'Cd8 H92 C136 N24 O40'
_cell_volume   3559.88867143
_cell_formula_units_Z   4
loop_
 _symmetry_equiv_pos_site_id
 _symmetry_equiv_pos_as_xyz
  1  'x, y, z'
loop_
 _atom_site_type_symbol
 _atom_site_label
 _atom_site_symmetry_multiplicity
 _atom_site_fract_x
 _atom_site_fract_y
 _atom_site_fract_z
 _atom_site_occupancy
 _atom_site_pbe_bader_charge
 _atom_site_pbe_bader_spin_density
 _atom_site_pbe_cm5_charge
 _atom_site_pbe_ddec_charge
 _atom_site_pbe_ddec_spin_density
 _atom_site_pbe_ddec_sum_bond_order
 _atom_site_pbe_magmom
Cd  Cd0  1  0.67996264  0.09033074  0.75302731  1  1.261516  0  0.785594  0.858695  0  2.23822  0
Cd  Cd1  1  0.32002707  0.59033391  0.74699070  1  1.261692  0  0.785672  0.85859  0  2.238539  0
Cd  Cd2  1  0.32011223  0.90967082  0.24698067  1  1.261888  0  0.785533  0.858521  0  2.237887  0
Cd  Cd3  1  0.67995906  0.40966826  0.25300008  1  1.261583  0  0.78578  0.858722  0  2.23898  0
Cd  Cd4  1  0.33914934  0.00450426  0.79069655  1  1.275916  0  0.787351  0.882247  0  2.22531  0
Cd  Cd5  1  0.66082248  0.50450530  0.70928477  1  1.275747  0  0.787291  0.882435  0  2.224303  0
Cd  Cd6  1  0.66087454  0.99551188  0.20931682  1  1.275763  0  0.78732  0.882261  0  2.225161  0
Cd  Cd7  1  0.33913611  0.49550781  0.29068179  1  1.275655  0  0.787377  0.882358  0  2.225039  0
H  H8  1  0.96837633  0.86133114  0.73039150  1  0.101216  0  0.100635  0.108375  0  1.034894  0
H  H9  1  0.03168819  0.36140773  0.76959068  1  0.101437  0  0.100677  0.108246  0  1.034924  0
H  H10  1  0.03165628  0.13858412  0.26957832  1  0.102431  0  0.100765  0.108401  0  1.034795  0
H  H11  1  0.96832042  0.63862482  0.23039643  1  0.10158  0  0.100702  0.108361  0  1.034786  0
H  H12  1  0.66813291  0.93667341  0.65326712  1  0.127719  0  0.123347  0.102065  0  0.992786  0
H  H13  1  0.33190967  0.43665088  0.84674779  1  0.127725  0  0.123371  0.102092  0  0.992632  0
H  H14  1  0.33191495  0.06332572  0.34672986  1  0.127748  0  0.123339  0.102027  0  0.992815  0
H  H15  1  0.66805308  0.56331786  0.15327077  1  0.12781  0  0.123344  0.102062  0  0.992662  0
H  H16  1  0.01194726  0.09456704  0.64471040  1  0.093035  0  0.093164  0.089758  0  1.042102  0
H  H17  1  0.98805367  0.59459708  0.85531038  1  0.09258  0  0.093119  0.089694  0  1.042196  0
H  H18  1  0.98803959  0.90539927  0.35531546  1  0.092484  0  0.093126  0.08968  0  1.042218  0
H  H19  1  0.01185894  0.40540934  0.14471814  1  0.092684  0  0.093096  0.089629  0  1.042349  0
H  H20  1  0.65092988  0.88885057  0.33810592  1  0.087754  0  0.11392  0.085083  0  1.011807  0
H  H21  1  0.34908286  0.38878614  0.16187279  1  0.087119  0  0.113871  0.085144  0  1.011563  0
H  H22  1  0.34906564  0.11117712  0.66187821  1  0.087513  0  0.113954  0.085186  0  1.011565  0
H  H23  1  0.65088852  0.61120570  0.83813228  1  0.087694  0  0.11389  0.085192  0  1.011493  0
H  H24  1  0.66492940  0.91217912  0.54264741  1  0.082331  0  0.114358  0.121263  0  0.992405  0
H  H25  1  0.33513884  0.41216129  0.95736452  1  0.082433  0  0.114247  0.121118  0  0.992249  0
H  H26  1  0.33512050  0.08782852  0.45734916  1  0.082458  0  0.114331  0.121238  0  0.992275  0
H  H27  1  0.66488195  0.58783298  0.04265016  1  0.082361  0  0.114309  0.121185  0  0.992296  0
H  H28  1  0.07869560  0.69734966  0.76027263  1  0.113921  0  0.1059  0.106672  0  1.038678  0
H  H29  1  0.92136908  0.19735192  0.73974219  1  0.113893  0  0.105882  0.106706  0  1.038807  0
H  H30  1  0.92135244  0.30268533  0.23971935  1  0.111445  0  0.105799  0.106754  0  1.038777  0
H  H31  1  0.07859257  0.80264964  0.26025131  1  0.111255  0  0.105873  0.106731  0  1.038623  0
H  H32  1  0.84554396  0.70376223  0.79898409  1  0.111804  0  0.116094  0.135041  0  0.987258  0
H  H33  1  0.15445868  0.20371012  0.70098416  1  0.111795  0  0.115975  0.134736  0  0.987436  0
H  H34  1  0.15448938  0.29623750  0.20102081  1  0.11171  0  0.116113  0.135002  0  0.987305  0
H  H35  1  0.84552043  0.79628719  0.29903152  1  0.114231  0  0.115932  0.134627  0  0.98751  0
H  H36  1  0.99494275  0.02919844  0.54390091  1  0.121418  0  0.101816  0.11401  0  1.069328  0
H  H37  1  0.00500683  0.52918762  0.95610077  1  0.121094  0  0.101802  0.114018  0  1.069322  0
H  H38  1  0.00512079  0.97080555  0.45611141  1  0.121328  0  0.101899  0.11409  0  1.069304  0
H  H39  1  0.99503263  0.47080483  0.04390334  1  0.120795  0  0.101787  0.113995  0  1.069281  0
H  H40  1  0.94645607  0.79503279  0.63026044  1  0.058432  0  0.109076  0.128947  0  1.002375  0
H  H41  1  0.05346689  0.29504701  0.86972416  1  0.059963  0  0.109052  0.12905  0  1.002309  0
H  H42  1  0.05351571  0.20495236  0.36970638  1  0.058714  0  0.109051  0.129056  0  1.002295  0
H  H43  1  0.94649013  0.70495759  0.13025741  1  0.058396  0  0.108998  0.128918  0  1.002392  0
H  H44  1  0.65588254  0.89811927  0.45024706  1  0.109478  0  0.109182  0.114114  0  1.00301  0
H  H45  1  0.34411915  0.39810018  0.04973694  1  0.10875  0  0.109256  0.114212  0  1.00293  0
H  H46  1  0.34411503  0.10188655  0.54973665  1  0.109044  0  0.109152  0.114119  0  1.003068  0
H  H47  1  0.65586931  0.60188497  0.95027301  1  0.109295  0  0.109169  0.114124  0  1.00307  0
H  H48  1  0.19643718  0.89606219  0.87952476  1  0.132484  0  0.112088  0.115022  0  1.012856  0
H  H49  1  0.80362904  0.39607629  0.62047188  1  0.132958  0  0.11199  0.114945  0  1.01266  0
H  H50  1  0.80362059  0.10389682  0.12053343  1  0.133433  0  0.111966  0.11498  0  1.012848  0
H  H51  1  0.19637170  0.60391737  0.37950825  1  0.133142  0  0.112061  0.11509  0  1.012622  0
H  H52  1  0.69563659  0.13763877  0.31959078  1  0.108407  0  0.11487  0.083931  0  1.01521  0
H  H53  1  0.30441703  0.63757552  0.18041784  1  0.108688  0  0.114864  0.084052  0  1.014801  0
H  H54  1  0.30443335  0.86238284  0.68041346  1  0.107997  0  0.114919  0.084084  0  1.014983  0
H  H55  1  0.69559285  0.36241449  0.81958979  1  0.108529  0  0.114889  0.084182  0  1.01477  0
H  H56  1  0.69597505  0.15922805  0.42938006  1  0.085498  0  0.115404  0.124794  0  0.994546  0
H  H57  1  0.30406720  0.65920192  0.07062695  1  0.08555  0  0.11535  0.124604  0  0.994593  0
H  H58  1  0.30410590  0.84078141  0.57062849  1  0.085942  0  0.115375  0.124795  0  0.994722  0
H  H59  1  0.69590518  0.34079113  0.92937859  1  0.085702  0  0.115326  0.124585  0  0.994643  0
H  H60  1  0.67362073  0.18624111  0.62860846  1  0.088011  0  0.110971  0.077523  0  1.042877  0
H  H61  1  0.32622931  0.68621966  0.87137718  1  0.088798  0  0.111002  0.077454  0  1.043107  0
H  H62  1  0.32632710  0.81375984  0.37140162  1  0.088368  0  0.111025  0.077487  0  1.042859  0
H  H63  1  0.67371627  0.31375698  0.12861145  1  0.088176  0  0.111023  0.07751  0  1.043067  0
H  H64  1  0.96436051  0.90355056  0.91738133  1  0.120611  0  0.11897  0.138295  0  0.988204  0
H  H65  1  0.03568500  0.40357213  0.58263280  1  0.119471  0  0.118989  0.138391  0  0.98826  0
H  H66  1  0.03564225  0.09645465  0.08262661  1  0.120343  0  0.118972  0.13828  0  0.988145  0
H  H67  1  0.96434222  0.59645982  0.41740021  1  0.119687  0  0.119014  0.1385  0  0.988149  0
H  H68  1  0.67809911  0.17329665  0.51756161  1  0.078018  0  0.116154  0.124444  0  0.992513  0
H  H69  1  0.32175404  0.67327312  0.98243740  1  0.078324  0  0.116297  0.124659  0  0.992324  0
H  H70  1  0.32184453  0.82671645  0.48245202  1  0.078298  0  0.116181  0.124494  0  0.992433  0
H  H71  1  0.67823782  0.32671568  0.01756305  1  0.078065  0  0.116245  0.124646  0  0.992382  0
H  H72  1  0.03506125  0.76139375  0.53131194  1  0.105414  0  0.098925  0.108536  0  1.038016  0
H  H73  1  0.96494150  0.26137348  0.96868022  1  0.105205  0  0.098849  0.1084  0  1.038108  0
H  H74  1  0.96489221  0.23857803  0.46868321  1  0.104519  0  0.098916  0.108539  0  1.0378  0
H  H75  1  0.03507927  0.73858189  0.03130759  1  0.104969  0  0.098886  0.108556  0  1.037824  0
H  H76  1  0.93615124  0.78476338  0.46387456  1  0.06768  0  0.098977  0.106858  0  1.013043  0
H  H77  1  0.06380733  0.28475655  0.03612446  1  0.067425  0  0.098914  0.106729  0  1.013129  0
H  H78  1  0.06376834  0.21519320  0.53613041  1  0.067422  0  0.098995  0.106843  0  1.012993  0
H  H79  1  0.93619417  0.71520794  0.96386252  1  0.067192  0  0.098889  0.106798  0  1.013102  0
H  H80  1  0.85407050  0.76863006  0.53485360  1  0.075724  0  0.101578  0.107756  0  0.990711  0
H  H81  1  0.14593390  0.26862666  0.96515604  1  0.075732  0  0.101543  0.107654  0  0.990635  0
H  H82  1  0.14589136  0.23135934  0.46516175  1  0.0761  0  0.101562  0.107737  0  0.991099  0
H  H83  1  0.85408375  0.73136274  0.03483399  1  0.07628  0  0.101605  0.107784  0  0.990847  0
H  H84  1  0.76625404  0.86927127  0.96233572  1  0.105435  0  0.105403  0.123868  0  1.031251  0
H  H85  1  0.23375086  0.36928929  0.53764588  1  0.105145  0  0.105338  0.123653  0  1.031496  0
H  H86  1  0.23376850  0.13070172  0.03765941  1  0.105496  0  0.105389  0.123806  0  1.031163  0
H  H87  1  0.76626022  0.63070376  0.46235677  1  0.10522  0  0.105315  0.12367  0  1.031601  0
H  H88  1  0.60566121  0.85591349  0.92266598  1  0.097962  0  0.114608  0.130629  0  0.956249  0
H  H89  1  0.39436811  0.35592711  0.57730165  1  0.097558  0  0.114474  0.13048  0  0.956188  0
H  H90  1  0.39434787  0.14408990  0.07733572  1  0.09791  0  0.114584  0.130524  0  0.956303  0
H  H91  1  0.60563962  0.64405743  0.42270913  1  0.098735  0  0.114464  0.130503  0  0.956369  0
H  H92  1  0.72817719  0.92474666  0.89291630  1  0.107772  0  0.110335  0.124  0  0.977577  0
H  H93  1  0.27187580  0.42476455  0.60705334  1  0.107762  0  0.11026  0.123924  0  0.977525  0
H  H94  1  0.27181797  0.07527738  0.10710471  1  0.108134  0  0.110206  0.123883  0  0.9776  0
H  H95  1  0.72813853  0.57523762  0.39294390  1  0.107706  0  0.110276  0.123928  0  0.977474  0
H  H96  1  0.99455223  0.12277455  0.93963695  1  0.639455  0  0.283065  0.334662  0  1.022179  0
H  H97  1  0.00550470  0.62280995  0.56035226  1  0.639922  0  0.283158  0.334932  0  1.021955  0
H  H98  1  0.00543642  0.87722275  0.06039532  1  0.639448  0  0.283107  0.335006  0  1.021754  0
H  H99  1  0.99443777  0.37724206  0.43963813  1  0.640383  0  0.283201  0.33492  0  1.021915  0
C  C100  1  0.99416762  0.98219568  0.69481197  1  -0.025266  0  -0.020108  -0.012444  0  4.024566  0
C  C101  1  0.00585366  0.48223724  0.80519053  1  -0.025567  0  -0.019947  -0.012433  0  4.024641  0
C  C102  1  0.00583389  0.01777063  0.30520233  1  -0.025866  0  -0.020018  -0.012043  0  4.025315  0
C  C103  1  0.99410185  0.51778437  0.19480420  1  -0.027392  0  -0.020018  -0.012001  0  4.025068  0
C  C104  1  0.07399510  0.06086056  0.84505446  1  0.390662  0  0.065161  -0.017202  0  4.049164  0
C  C105  1  0.92605926  0.56082020  0.65491827  1  0.391202  0  0.065672  -0.017272  0  4.049593  0
C  C106  1  0.92606059  0.93919570  0.15495042  1  0.391738  0  0.06553  -0.017242  0  4.049376  0
C  C107  1  0.07393892  0.43915219  0.34504906  1  0.39102  0  0.065311  -0.017142  0  4.049181  0
C  C108  1  0.00129561  0.02161865  0.75499571  1  1.017338  0  0.216587  0.323987  0  4.004905  0
C  C109  1  0.99872825  0.52163307  0.74499544  1  1.015267  0  0.216826  0.324201  0  4.004407  0
C  C110  1  0.99873233  0.97837804  0.24501774  1  1.015993  0  0.216555  0.323356  0  4.005832  0
C  C111  1  0.00123479  0.47837274  0.25498806  1  1.016169  0  0.21671  0.323499  0  4.005365  0
C  C112  1  0.29066681  0.79642341  0.79399667  1  0.895001  0  0.208728  0.293327  0  4.030121  0
C  C113  1  0.70933872  0.29643019  0.70600860  1  0.895005  0  0.208826  0.293616  0  4.029314  0
C  C114  1  0.70934138  0.20359335  0.20600183  1  0.89527  0  0.208776  0.293361  0  4.030453  0
C  C115  1  0.29065105  0.70357501  0.29399364  1  0.896128  0  0.208713  0.293261  0  4.029662  0
C  C116  1  0.49351818  0.83955592  0.77373072  1  0.442383  0  0.102903  0.041471  0  3.923178  0
C  C117  1  0.50646067  0.33954306  0.72626760  1  0.442847  0  0.10288  0.041863  0  3.922805  0
C  C118  1  0.50647424  0.16046266  0.22625471  1  0.442715  0  0.102985  0.041491  0  3.922609  0
C  C119  1  0.49351772  0.66044756  0.27373988  1  0.441633  0  0.102871  0.041726  0  3.922604  0
C  C120  1  0.97719985  0.89792646  0.68957690  1  -0.026058  0  -0.080013  -0.064496  0  3.959411  0
C  C121  1  0.02282691  0.39797038  0.81041753  1  -0.027882  0  -0.080265  -0.064316  0  3.958832  0
C  C122  1  0.02280861  0.10203560  0.31041431  1  -0.02898  0  -0.080274  -0.06457  0  3.959289  0
C  C123  1  0.97715713  0.60205063  0.18957503  1  -0.0279  0  -0.080263  -0.064603  0  3.959174  0
C  C124  1  0.60627711  0.89997161  0.76978666  1  1.603591  0  0.202266  0.538252  0  4.267676  0
C  C125  1  0.39367222  0.39994127  0.73021576  1  1.605011  0  0.201872  0.537464  0  4.26824  0
C  C126  1  0.39373234  0.10003481  0.23020503  1  1.603434  0  0.201989  0.538043  0  4.267191  0
C  C127  1  0.60629118  0.60005604  0.26975819  1  1.604853  0  0.202003  0.537862  0  4.267941  0
C  C128  1  0.17176370  0.06922033  0.89730353  1  1.587615  0  0.203949  0.560162  0  4.244574  0
C  C129  1  0.82827428  0.56922719  0.60268036  1  1.58758  0  0.204338  0.560805  0  4.243635  0
C  C130  1  0.82825976  0.93078122  0.10272121  1  1.586958  0  0.203755  0.560091  0  4.24424  0
C  C131  1  0.17171757  0.43079443  0.39729323  1  1.587407  0  0.20379  0.56012  0  4.244686  0
C  C132  1  0.67363538  0.03026978  0.45153990  1  0.036467  0  0.011609  0.09664  0  3.973618  0
C  C133  1  0.32637014  0.53024331  0.04845924  1  0.036073  0  0.011884  0.096827  0  3.973677  0
C  C134  1  0.32638600  0.96974150  0.54845884  1  0.03606  0  0.011746  0.096838  0  3.973241  0
C  C135  1  0.67362663  0.46974853  0.95154586  1  0.034928  0  0.011903  0.096988  0  3.973402  0
C  C136  1  0.67146924  0.04058950  0.51845845  1  -0.027632  0  0.016457  0.104144  0  3.959795  0
C  C137  1  0.32850717  0.54057099  0.98154279  1  -0.027724  0  0.016502  0.104404  0  3.959874  0
C  C138  1  0.32853986  0.95942057  0.48154279  1  -0.027422  0  0.016356  0.103897  0  3.960059  0
C  C139  1  0.67148864  0.45942328  0.01846093  1  -0.02747  0  0.016573  0.104278  0  3.960071  0
C  C140  1  0.66687297  0.98772595  0.62156066  1  0.527328  0  0.056188  0.107591  0  3.931749  0
C  C141  1  0.33313604  0.48770918  0.87844911  1  0.527491  0  0.056277  0.107629  0  3.931655  0
C  C142  1  0.33316249  0.01227440  0.37844200  1  0.527491  0  0.056353  0.107643  0  3.931359  0
C  C143  1  0.66683728  0.51227050  0.12155827  1  0.527695  0  0.056418  0.107773  0  3.931297  0
C  C144  1  0.99947351  0.02891001  0.64156974  1  -0.113939  0  -0.096293  -0.099306  0  4.027157  0
C  C145  1  0.00052776  0.52893819  0.85843477  1  -0.113429  0  -0.096486  -0.099501  0  4.027719  0
C  C146  1  0.00051991  0.97105995  0.35844349  1  -0.112353  0  -0.09637  -0.099387  0  4.027808  0
C  C147  1  0.99942330  0.47106824  0.14157036  1  -0.111028  0  -0.096353  -0.099437  0  4.02786  0
C  C148  1  0.97060136  0.90808933  0.58023997  1  0.395826  0  0.079482  0.245137  0  4.080495  0
C  C149  1  0.02938212  0.40809257  0.91975319  1  0.396144  0  0.079641  0.245305  0  4.080525  0
C  C150  1  0.02939710  0.09189886  0.41974695  1  0.392799  0  0.079635  0.245388  0  4.080508  0
C  C151  1  0.97059264  0.59189805  0.08024284  1  0.396362  0  0.07968  0.245264  0  4.080498  0
C  C152  1  0.66207559  0.94764082  0.36053378  1  0.554523  0  0.044137  0.094762  0  3.970987  0
C  C153  1  0.33794984  0.44758991  0.13945946  1  0.555829  0  0.0444  0.095283  0  3.971503  0
C  C154  1  0.33793282  0.05238019  0.63945879  1  0.555134  0  0.044272  0.095001  0  3.971092  0
C  C155  1  0.66203681  0.55240071  0.86054454  1  0.555192  0  0.044412  0.095183  0  3.971285  0
C  C156  1  0.66640081  0.97462544  0.55891346  1  -0.029883  0  -0.073388  -0.160842  0  3.929653  0
C  C157  1  0.33361489  0.47460691  0.94109518  1  -0.029897  0  -0.073347  -0.160792  0  3.929166  0
C  C158  1  0.33363167  0.02538220  0.44108732  1  -0.030163  0  -0.073445  -0.160724  0  3.929707  0
C  C159  1  0.66638176  0.52538431  0.05891310  1  -0.029858  0  -0.073459  -0.160796  0  3.929568  0
C  C160  1  0.15511741  0.79669555  0.81674304  1  -0.056293  0  -0.000624  0.005232  0  3.99879  0
C  C161  1  0.84491013  0.29670502  0.68327129  1  -0.056202  0  -0.000716  0.005042  0  3.998677  0
C  C162  1  0.84490757  0.20331694  0.18326807  1  -0.056487  0  -0.000658  0.005051  0  3.999544  0
C  C163  1  0.15507182  0.70329654  0.31672260  1  -0.056452  0  -0.000752  0.005262  0  3.998872  0
C  C164  1  0.05452159  0.74105440  0.79556887  1  -0.007373  0  -0.076523  -0.087154  0  3.952184  0
C  C165  1  0.94551534  0.24106248  0.70444123  1  -0.006108  0  -0.076425  -0.087193  0  3.952409  0
C  C166  1  0.94550480  0.25896357  0.20443180  1  -0.004642  0  -0.07642  -0.087128  0  3.952752  0
C  C167  1  0.05446435  0.75894211  0.29555899  1  -0.00399  0  -0.076318  -0.08712  0  3.952274  0
C  C168  1  0.92443896  0.74400728  0.81713287  1  -0.003182  0  -0.080219  -0.168105  0  3.92587  0
C  C169  1  0.07559160  0.24399876  0.68286013  1  -0.003703  0  -0.080244  -0.167843  0  3.925845  0
C  C170  1  0.07558746  0.25600096  0.18286688  1  -0.003542  0  -0.080242  -0.168145  0  3.926021  0
C  C171  1  0.92439783  0.75600584  0.31715121  1  -0.005674  0  -0.080252  -0.16772  0  3.926005  0
C  C172  1  0.98932411  0.99248501  0.58488015  1  0.023331  0  -0.112842  -0.20847  0  4.016914  0
C  C173  1  0.01066214  0.49248884  0.91511805  1  0.023958  0  -0.112796  -0.208499  0  4.017295  0
C  C174  1  0.01069305  0.00750257  0.41512307  1  0.022674  0  -0.112904  -0.208742  0  4.017421  0
C  C175  1  0.98932462  0.50750361  0.08488322  1  0.023599  0  -0.112819  -0.208471  0  4.017378  0
C  C176  1  0.96449027  0.86024543  0.63275749  1  0.033092  0  -0.108402  -0.220055  0  3.980505  0
C  C177  1  0.03548762  0.36026479  0.86723172  1  0.033973  0  -0.10836  -0.220405  0  3.980225  0
C  C178  1  0.03549618  0.13973607  0.36722464  1  0.038235  0  -0.108243  -0.220202  0  3.980309  0
C  C179  1  0.96447931  0.63974041  0.13275641  1  0.035058  0  -0.108284  -0.220056  0  3.980217  0
C  C180  1  0.66362660  0.95364940  0.42366558  1  -0.073584  0  -0.078897  -0.163868  0  3.941543  0
C  C181  1  0.33638783  0.45361914  0.07632855  1  -0.072993  0  -0.079265  -0.164469  0  3.942323  0
C  C182  1  0.33638382  0.04636371  0.57632749  1  -0.073616  0  -0.079147  -0.164286  0  3.941938  0
C  C183  1  0.66360388  0.54637087  0.92367600  1  -0.073291  0  -0.079196  -0.164313  0  3.942007  0
C  C184  1  0.11899360  0.85481557  0.86126840  1  -0.02559  0  -0.065946  -0.056601  0  3.921391  0
C  C185  1  0.88105338  0.35482616  0.63874242  1  -0.02662  0  -0.065877  -0.056309  0  3.921208  0
C  C186  1  0.88104487  0.14517383  0.13876256  1  -0.027446  0  -0.065925  -0.056553  0  3.921572  0
C  C187  1  0.11893970  0.64517600  0.36125259  1  -0.026127  0  -0.065991  -0.056755  0  3.92142  0
C  C188  1  0.68482828  0.08564916  0.34980044  1  0.466105  0  0.050516  0.103722  0  3.967362  0
C  C189  1  0.31520759  0.58559518  0.15019962  1  0.466367  0  0.050553  0.10366  0  3.966835  0
C  C190  1  0.31521639  0.91437185  0.65020058  1  0.466656  0  0.050585  0.103693  0  3.967233  0
C  C191  1  0.68479035  0.41439848  0.84980141  1  0.466492  0  0.050494  0.103535  0  3.966962  0
C  C192  1  0.88960913  0.80298002  0.86116869  1  0.47745  0  0.117121  0.291534  0  4.01035  0
C  C193  1  0.11044358  0.30298348  0.63883037  1  0.475925  0  0.116972  0.291519  0  4.009977  0
C  C194  1  0.11040738  0.19703613  0.13882450  1  0.476404  0  0.117092  0.29145  0  4.010017  0
C  C195  1  0.88956090  0.69702598  0.36118581  1  0.475545  0  0.116882  0.291124  0  4.01046  0
C  C196  1  0.68551287  0.09731354  0.41247045  1  -0.040971  0  -0.075756  -0.163184  0  3.921001  0
C  C197  1  0.31451725  0.59728076  0.08753126  1  -0.040094  0  -0.07573  -0.162828  0  3.920669  0
C  C198  1  0.31453883  0.90270018  0.58753252  1  -0.040831  0  -0.07585  -0.163223  0  3.921178  0
C  C199  1  0.68547253  0.40271350  0.91247051  1  -0.040321  0  -0.075834  -0.163086  0  3.920893  0
C  C200  1  0.67257518  0.12629968  0.60771994  1  0.496946  0  0.041635  0.089387  0  3.983432  0
C  C201  1  0.32733436  0.62628433  0.89227538  1  0.496451  0  0.041547  0.089387  0  3.983267  0
C  C202  1  0.32740733  0.87370005  0.39228625  1  0.497427  0  0.041567  0.089377  0  3.983159  0
C  C203  1  0.67263125  0.37369595  0.10772092  1  0.497027  0  0.041468  0.089388  0  3.983729  0
C  C204  1  0.98875416  0.85872444  0.88292497  1  0.014262  0  -0.088602  -0.193371  0  3.924553  0
C  C205  1  0.01129294  0.35873667  0.61708613  1  0.01562  0  -0.088647  -0.193778  0  3.924634  0
C  C206  1  0.01126570  0.14127833  0.11708741  1  0.016065  0  -0.088565  -0.19337  0  3.924416  0
C  C207  1  0.98871360  0.64127704  0.38292918  1  0.015082  0  -0.088642  -0.193653  0  3.924772  0
C  C208  1  0.67441632  0.11827638  0.54495348  1  -0.043615  0  -0.078681  -0.1648  0  3.932523  0
C  C209  1  0.32549291  0.61825682  0.95504263  1  -0.044195  0  -0.078791  -0.165199  0  3.932627  0
C  C210  1  0.32555910  0.88173248  0.45505212  1  -0.044406  0  -0.078638  -0.164767  0  3.932149  0
C  C211  1  0.67449092  0.38173502  0.04495539  1  -0.043625  0  -0.078785  -0.165188  0  3.932803  0
C  C212  1  0.48031604  0.75672262  0.75455771  1  0.494383  0  0.10892  0.0578  0  3.880707  0
C  C213  1  0.51968506  0.25671495  0.74544737  1  0.494167  0  0.109013  0.05775  0  3.880941  0
C  C214  1  0.51968212  0.24329414  0.24543740  1  0.493304  0  0.108942  0.057836  0  3.880694  0
C  C215  1  0.48034796  0.74328417  0.25459350  1  0.494376  0  0.109042  0.057958  0  3.880968  0
C  C216  1  0.57838997  0.69977095  0.72541136  1  1.6186  0  0.20592  0.554688  0  4.249896  0
C  C217  1  0.42160423  0.19976289  0.77458923  1  1.618438  0  0.205897  0.554713  0  4.249731  0
C  C218  1  0.42161114  0.30025188  0.27458654  1  1.619255  0  0.20584  0.55449  0  4.250402  0
C  C219  1  0.57843356  0.80018822  0.22540528  1  1.617918  0  0.20583  0.554621  0  4.249535  0
C  C220  1  0.93808248  0.08386541  0.83725269  1  0.418241  0  0.059676  -0.035574  0  4.06243  0
C  C221  1  0.06198726  0.58380422  0.66271023  1  0.416066  0  0.059502  -0.035542  0  4.062546  0
C  C222  1  0.06198657  0.91620605  0.16274789  1  0.406843  0  0.059405  -0.035829  0  4.063505  0
C  C223  1  0.93801791  0.41615662  0.33725997  1  0.406992  0  0.059672  -0.035394  0  4.062335  0
C  C224  1  0.94476766  0.79329941  0.51324248  1  0.325472  0  -0.144906  -0.184409  0  3.891108  0
C  C225  1  0.05521877  0.29328823  0.98675436  1  0.32594  0  -0.144728  -0.183952  0  3.890827  0
C  C226  1  0.05519069  0.20667845  0.48675778  1  0.326066  0  -0.144923  -0.184549  0  3.891738  0
C  C227  1  0.94478069  0.70668416  0.01323304  1  0.325514  0  -0.144736  -0.184396  0  3.891333  0
C  C228  1  0.84271430  0.12487241  0.87759648  1  1.546028  0  0.209631  0.555177  0  4.220358  0
C  C229  1  0.15732765  0.62487825  0.62238780  1  1.546149  0  0.20963  0.555188  0  4.220012  0
C  C230  1  0.15732375  0.87515346  0.12241853  1  1.555831  0  0.209617  0.555923  0  4.220138  0
C  C231  1  0.84264535  0.37514579  0.37760090  1  1.555648  0  0.209795  0.555422  0  4.220037  0
C  C232  1  0.71409453  0.86727671  0.91745801  1  0.288855  0  -0.130831  -0.184243  0  3.814966  0
C  C233  1  0.28593883  0.36729638  0.58252104  1  0.289313  0  -0.130595  -0.18382  0  3.814609  0
C  C234  1  0.28591366  0.13272850  0.08254049  1  0.28863  0  -0.130695  -0.18397  0  3.814339  0
C  C235  1  0.71406905  0.63270153  0.41748564  1  0.288072  0  -0.130652  -0.183973  0  3.814744  0
N  N236  1  0.37521176  0.86215080  0.79876168  1  -1.191413  0  -0.346944  -0.378053  0  3.417457  0
N  N237  1  0.62476702  0.36215182  0.70123247  1  -1.192054  0  -0.347015  -0.378381  0  3.416945  0
N  N238  1  0.62478574  0.13787021  0.20122386  1  -1.191449  0  -0.346877  -0.378014  0  3.417066  0
N  N239  1  0.37518493  0.63783515  0.29874854  1  -1.190834  0  -0.346904  -0.37818  0  3.416983  0
N  N240  1  0.11173190  0.02230536  0.79289012  1  -1.210218  0  -0.361133  -0.383481  0  3.495894  0
N  N241  1  0.88829006  0.52230652  0.70709823  1  -1.209243  0  -0.361395  -0.383802  0  3.495886  0
N  N242  1  0.88829908  0.97771200  0.20712384  1  -1.210257  0  -0.361174  -0.383301  0  3.496007  0
N  N243  1  0.11168350  0.47769139  0.29287546  1  -1.209012  0  -0.361037  -0.38333  0  3.495565  0
N  N244  1  0.35288357  0.73164362  0.76688081  1  -1.17875  0  -0.341274  -0.371954  0  3.395089  0
N  N245  1  0.64712057  0.23164196  0.73312815  1  -1.178653  0  -0.341242  -0.371971  0  3.394986  0
N  N246  1  0.64711949  0.26837192  0.23311895  1  -1.17823  0  -0.341364  -0.372012  0  3.395644  0
N  N247  1  0.35291560  0.76837418  0.26691004  1  -1.179654  0  -0.341401  -0.37207  0  3.395371  0
N  N248  1  0.66958862  0.06260898  0.64607710  1  -1.234247  0  -0.323117  -0.24889  0  3.50201  0
N  N249  1  0.33037827  0.56259433  0.85392755  1  -1.234841  0  -0.32318  -0.248738  0  3.502015  0
N  N250  1  0.33043246  0.93738650  0.35392984  1  -1.234745  0  -0.323129  -0.24875  0  3.501727  0
N  N251  1  0.66958319  0.43737928  0.14607095  1  -1.235073  0  -0.323218  -0.248886  0  3.502261  0
N  N252  1  0.67174725  0.01232349  0.32349575  1  -1.226596  0  -0.31598  -0.250815  0  3.457022  0
N  N253  1  0.32827406  0.51226152  0.17649902  1  -1.227611  0  -0.316112  -0.251266  0  3.457368  0
N  N254  1  0.32826817  0.98770238  0.67649969  1  -1.226804  0  -0.316013  -0.251031  0  3.457037  0
N  N255  1  0.67171880  0.48773092  0.82350191  1  -1.227239  0  -0.316119  -0.251332  0  3.457167  0
N  N256  1  0.89496294  0.05956104  0.78010294  1  -1.223177  0  -0.363066  -0.376044  0  3.510602  0
N  N257  1  0.10508837  0.55952522  0.71986842  1  -1.221576  0  -0.363167  -0.375897  0  3.510606  0
N  N258  1  0.10509375  0.94047699  0.21990241  1  -1.2219  0  -0.362873  -0.375536  0  3.511132  0
N  N259  1  0.89489431  0.44045264  0.28010590  1  -1.222788  0  -0.363199  -0.375924  0  3.510838  0
O  O260  1  0.72339271  0.87906779  0.75763277  1  -1.111032  0  -0.282465  -0.478619  0  2.172882  0
O  O261  1  0.27656597  0.37901571  0.74237164  1  -1.111437  0  -0.28194  -0.478108  0  2.173292  0
O  O262  1  0.27662578  0.12092466  0.24238914  1  -1.11105  0  -0.282315  -0.47851  0  2.172608  0
O  O263  1  0.72338563  0.62099618  0.25759160  1  -1.111746  0  -0.282231  -0.47839  0  2.172985  0
O  O264  1  0.29082602  0.04176381  0.89185135  1  -1.15243  0  -0.328298  -0.522958  0  2.156025  0
O  O265  1  0.70917595  0.54182161  0.60814669  1  -1.152328  0  -0.328628  -0.523321  0  2.155478  0
O  O266  1  0.70918001  0.95821100  0.10817807  1  -1.152061  0  -0.328368  -0.522996  0  2.155559  0
O  O267  1  0.29077828  0.45825896  0.39182799  1  -1.152212  0  -0.328428  -0.523173  0  2.155864  0
O  O268  1  0.55260575  0.62350712  0.73626441  1  -1.147626  0  -0.336114  -0.559139  0  2.383441  0
O  O269  1  0.44733998  0.12350317  0.76371124  1  -1.147114  0  -0.336236  -0.559416  0  2.383884  0
O  O270  1  0.44741731  0.37651085  0.26374394  1  -1.147532  0  -0.336196  -0.559177  0  2.383869  0
O  O271  1  0.55280858  0.87646010  0.23628178  1  -1.146632  0  -0.336068  -0.559369  0  2.383718  0
O  O272  1  0.72557030  0.14269228  0.85888038  1  -1.150436  0  -0.316893  -0.50473  0  2.142985  0
O  O273  1  0.27444930  0.64272634  0.64112090  1  -1.149962  0  -0.317005  -0.504942  0  2.142804  0
O  O274  1  0.27444794  0.85729712  0.14114836  1  -1.150271  0  -0.316942  -0.505173  0  2.142986  0
O  O275  1  0.72551095  0.35731229  0.35888304  1  -1.150235  0  -0.317009  -0.505011  0  2.142681  0
O  O276  1  0.76193372  0.80019236  0.88085539  1  -1.048434  0  -0.160636  -0.142836  0  2.563326  0
O  O277  1  0.23811510  0.30020653  0.61913643  1  -1.047312  0  -0.16047  -0.142652  0  2.562982  0
O  O278  1  0.23806823  0.19983473  0.11911976  1  -1.048027  0  -0.160613  -0.142712  0  2.562756  0
O  O279  1  0.76188549  0.69979868  0.38087512  1  -1.04731  0  -0.160381  -0.142411  0  2.562695  0
O  O280  1  0.67244091  0.72613720  0.69481921  1  -1.091282  0  -0.288603  -0.461112  0  2.040976  0
O  O281  1  0.32757883  0.22612855  0.80520213  1  -1.091401  0  -0.288553  -0.461022  0  2.040503  0
O  O282  1  0.32753921  0.27389171  0.30516917  1  -1.091874  0  -0.288537  -0.460977  0  2.041277  0
O  O283  1  0.67233068  0.77375936  0.19474573  1  -1.091532  0  -0.288497  -0.460855  0  2.040247  0
O  O284  1  0.12769993  0.10257764  0.94602130  1  -1.166838  0  -0.320509  -0.528121  0  2.211616  0
O  O285  1  0.87234947  0.60258079  0.55395999  1  -1.167368  0  -0.320741  -0.528492  0  2.211423  0
O  O286  1  0.87230692  0.89738746  0.05401314  1  -1.166179  0  -0.320453  -0.528126  0  2.211751  0
O  O287  1  0.12766159  0.39744083  0.44601579  1  -1.166976  0  -0.32041  -0.528223  0  2.211585  0
O  O288  1  0.88662539  0.14121650  0.93331410  1  -1.171011  0  -0.335267  -0.492761  0  2.291165  0
O  O289  1  0.11340151  0.64128003  0.56668055  1  -1.17167  0  -0.335194  -0.492762  0  2.291468  0
O  O290  1  0.11338587  0.85878080  0.06671086  1  -1.171637  0  -0.335194  -0.49325  0  2.290902  0
O  O291  1  0.88654959  0.35880418  0.43332366  1  -1.172045  0  -0.335525  -0.492974  0  2.291664  0
O  O292  1  0.95657400  0.87931445  0.52206882  1  -1.083042  0  -0.187457  -0.166816  0  2.607522  0
O  O293  1  0.04339131  0.37930388  0.97792159  1  -1.083219  0  -0.187561  -0.166912  0  2.607455  0
O  O294  1  0.04340721  0.12066827  0.47791777  1  -1.082499  0  -0.187574  -0.166706  0  2.608128  0
O  O295  1  0.95656936  0.62067155  0.02207097  1  -1.083  0  -0.187568  -0.166802  0  2.607999  0
O  O296  1  0.56870750  0.97450347  0.78051255  1  -1.150572  0  -0.342706  -0.55886  0  2.405134  0
O  O297  1  0.43122194  0.47448335  0.71949398  1  -1.151156  0  -0.342848  -0.558781  0  2.404934  0
O  O298  1  0.43130380  0.02550539  0.21945685  1  -1.150565  0  -0.3427  -0.558783  0  2.4048  0
O  O299  1  0.56874741  0.52550849  0.28045641  1  -1.150751  0  -0.342759  -0.559005  0  2.405462  0
