# generated using pymatgen
data_Al2H10C24O13
_symmetry_space_group_name_H-M   'P 1'
_cell_length_a   6.67109152
_cell_length_b   18.40004109
_cell_length_c   20.40689757
_cell_angle_alpha   92.59262041
_cell_angle_beta   90.00011659
_cell_angle_gamma   89.99798331
_symmetry_Int_Tables_number   1
_chemical_formula_structural   Al2H10C24O13
_chemical_formula_sum   'Al4 H20 C48 O26'
_cell_volume   2502.34915133
_cell_formula_units_Z   2
loop_
 _symmetry_equiv_pos_site_id
 _symmetry_equiv_pos_as_xyz
  1  'x, y, z'
loop_
 _atom_site_type_symbol
 _atom_site_label
 _atom_site_symmetry_multiplicity
 _atom_site_fract_x
 _atom_site_fract_y
 _atom_site_fract_z
 _atom_site_occupancy
 _atom_site_pbe_bader_charge
 _atom_site_pbe_bader_spin_density
 _atom_site_pbe_cm5_charge
 _atom_site_pbe_ddec_charge
 _atom_site_pbe_ddec_spin_density
 _atom_site_pbe_ddec_sum_bond_order
 _atom_site_pbe_magmom
Al  Al0  1  0.06829731  0.50220967  0.50329920  1  2.503133  0  0.404894  1.647244  0  2.573965  0
Al  Al1  1  0.56829364  0.49778801  0.49670564  1  2.5029  0  0.405029  1.647314  0  2.573459  0
Al  Al2  1  0.68523675  0.99778956  0.99606788  1  2.502595  0  0.407219  1.648828  0  2.570674  0
Al  Al3  1  0.18524096  0.00220738  0.00393003  1  2.502418  0  0.407172  1.648262  0  2.571232  0
H  H4  1  0.19846767  0.59560386  0.77767219  1  0.046522  0  0.10138  0.08679  0  1.018363  0
H  H5  1  0.69842251  0.40439356  0.22231836  1  0.046728  0  0.10141  0.086833  0  1.018558  0
H  H6  1  0.76167440  0.85334830  0.81679101  1  0.045842  0  0.103139  0.107751  0  1.020329  0
H  H7  1  0.26170333  0.14664571  0.18320985  1  0.046109  0  0.103143  0.107739  0  1.020325  0
H  H8  1  0.67476025  0.84978494  0.72449121  1  0.05519  0  0.105893  0.10432  0  1.003317  0
H  H9  1  0.17481233  0.15020805  0.27551116  1  0.055357  0  0.105921  0.104387  0  1.00328  0
H  H10  1  0.51253820  0.83261597  0.61661293  1  0.105138  0  0.115227  0.13231  0  0.971094  0
H  H11  1  0.01261671  0.16737500  0.38339543  1  0.105385  0  0.115248  0.132403  0  0.971168  0
H  H12  1  0.04779224  0.58280070  0.67088000  1  0.050958  0  0.102294  0.108852  0  1.023223  0
H  H13  1  0.54777094  0.41720023  0.32911157  1  0.051141  0  0.102271  0.108819  0  1.023409  0
H  H14  1  0.20938763  0.82900413  0.98095153  1  0.642747  0  0.318203  0.353007  0  0.947605  0
H  H15  1  0.70936704  0.17099297  0.01904491  1  0.642679  0  0.318171  0.352928  0  0.947817  0
H  H16  1  0.29011621  0.61702357  0.86076709  1  0.592883  0  0.32822  0.350097  0  0.909755  0
H  H17  1  0.79003783  0.38298328  0.13921794  1  0.593374  0  0.328299  0.350057  0  0.909881  0
H  H18  1  0.54782953  0.67060944  0.52198614  1  0.637245  0  0.320268  0.361092  0  0.939094  0
H  H19  1  0.04786406  0.32938213  0.47801238  1  0.637543  0  0.320255  0.360503  0  0.938811  0
H  H20  1  0.33266958  0.53528312  0.58131765  1  0.630361  0  0.357649  0.437246  0  0.843587  0
H  H21  1  0.83266992  0.46476127  0.41866753  1  0.630971  0  0.357653  0.43726  0  0.843674  0
H  H22  1  0.41998134  0.96903168  0.91714494  1  0.624653  0  0.361573  0.443529  0  0.833068  0
H  H23  1  0.91998326  0.03095021  0.08285791  1  0.624629  0  0.361642  0.44352  0  0.833215  0
C  C24  1  0.31402447  0.58517230  0.41258028  1  1.670605  0  0.272654  0.695494  0  4.187097  0
C  C25  1  0.81398981  0.41482666  0.58742296  1  1.67024  0  0.272624  0.695078  0  4.187869  0
C  C26  1  0.31208880  0.39025592  0.42822636  1  1.522208  0  0.272507  0.674868  0  4.058961  0
C  C27  1  0.81209252  0.60974575  0.57177637  1  1.522209  0  0.272624  0.674989  0  4.059198  0
C  C28  1  0.14896228  0.70810205  0.86843837  1  0.52357  0  0.07231  0.154169  0  4.052263  0
C  C29  1  0.64892610  0.29190074  0.13155019  1  0.523576  0  0.072266  0.154004  0  4.052354  0
C  C30  1  0.97057326  0.82172154  0.88895130  1  -0.038735  0  -0.031919  -0.164115  0  4.045639  0
C  C31  1  0.47056968  0.17827665  0.11104353  1  -0.038727  0  -0.031961  -0.164253  0  4.045673  0
C  C32  1  0.64340210  0.72743610  0.59557770  1  0.484759  0  0.092117  0.314673  0  4.071118  0
C  C33  1  0.14344911  0.27255579  0.40442715  1  0.484762  0  0.092163  0.31478  0  4.071083  0
C  C34  1  0.61323457  0.79147280  0.63476709  1  0.084217  0  -0.096716  -0.192274  0  3.995714  0
C  C35  1  0.11330268  0.20851845  0.36523925  1  0.083986  0  -0.096659  -0.192541  0  3.996318  0
C  C36  1  0.70465279  0.80012938  0.69507791  1  -0.122486  0  -0.080499  -0.095289  0  4.012137  0
C  C37  1  0.20470462  0.19986442  0.30492592  1  -0.123387  0  -0.080562  -0.09524  0  4.012454  0
C  C38  1  0.83316537  0.74652032  0.71966442  1  0.028957  0  -0.009336  0.018395  0  3.956449  0
C  C39  1  0.33318147  0.25347706  0.28033441  1  0.029552  0  -0.009379  0.018275  0  3.956853  0
C  C40  1  0.87912181  0.68438372  0.67792572  1  0.032254  0  -0.002766  0.084032  0  3.990142  0
C  C41  1  0.37912153  0.31561745  0.32207306  1  0.032305  0  -0.002828  0.083915  0  3.99005  0
C  C42  1  0.91772124  0.75380100  0.78518005  1  0.015227  0  -0.011711  0.036605  0  4.000283  0
C  C43  1  0.41771936  0.24619684  0.21481628  1  0.016264  0  -0.01168  0.036525  0  4.000783  0
C  C44  1  0.05524157  0.69971148  0.80619073  1  0.03359  0  -0.022226  -0.039213  0  4.058483  0
C  C45  1  0.55521572  0.30029003  0.19380279  1  0.031962  0  -0.022107  -0.039046  0  4.05863  0
C  C46  1  0.09663948  0.63846482  0.76286527  1  -0.109607  0  -0.095694  -0.125103  0  4.060572  0
C  C47  1  0.59661086  0.36153713  0.23712578  1  -0.109363  0  -0.09586  -0.125315  0  4.061136  0
C  C48  1  0.01245092  0.63066895  0.70191412  1  -0.016998  0  -0.097022  -0.133074  0  4.006123  0
C  C49  1  0.51242967  0.36933404  0.29807745  1  -0.017029  0  -0.096894  -0.132883  0  4.006097  0
C  C50  1  0.87113691  0.81234530  0.82917755  1  0.067483  0  -0.096068  -0.154621  0  4.01115  0
C  C51  1  0.37114652  0.18765268  0.17082077  1  0.067411  0  -0.096051  -0.154427  0  4.011021  0
C  C52  1  0.11644889  0.77066234  0.90846761  1  0.542678  0  0.076222  0.189289  0  4.059984  0
C  C53  1  0.61642465  0.22933882  0.09152343  1  0.543212  0  0.076225  0.189336  0  4.060383  0
C  C54  1  0.78294876  0.67526258  0.61542462  1  0.001105  0  -0.037069  -0.253872  0  3.945933  0
C  C55  1  0.28296624  0.32473839  0.38457862  1  0.001153  0  -0.037114  -0.253996  0  3.945957  0
C  C56  1  0.93876015  0.13854741  0.86315124  1  0.086433  0  0.00373  -0.129827  0  3.813823  0
C  C57  1  0.43876951  0.86145577  0.13685681  1  0.086154  0  0.003827  -0.129608  0  3.813759  0
C  C58  1  0.91859456  0.18228648  0.82003325  1  -0.202784  0  -0.000578  0.036408  0  4.239773  0
C  C59  1  0.41860587  0.81772268  0.17997967  1  -0.202086  0  -0.000578  0.036279  0  4.239885  0
C  C60  1  0.89324970  0.22960284  0.77270092  1  -0.018542  0  0.008201  0.006328  0  4.173365  0
C  C61  1  0.39325738  0.77041003  0.22731444  1  -0.022928  0  0.008194  0.006395  0  4.173924  0
C  C62  1  0.86579448  0.27254226  0.72886088  1  0.10756  0  0.0052  -0.000147  0  4.177382  0
C  C63  1  0.36578755  0.72746899  0.27114910  1  0.110176  0  0.005157  -0.000245  0  4.177462  0
C  C64  1  0.83938685  0.31937317  0.68120333  1  -0.385333  0  -0.001697  0.037763  0  4.246392  0
C  C65  1  0.33937324  0.68062790  0.31880381  1  -0.383506  0  -0.001619  0.037858  0  4.246322  0
C  C66  1  0.81734004  0.36243095  0.63760424  1  0.260599  0  -0.000908  -0.13818  0  3.823983  0
C  C67  1  0.31732832  0.63757172  0.36239799  1  0.260027  0  -0.000948  -0.138237  0  3.82397  0
C  C68  1  0.44127334  0.11073727  0.06991079  1  1.522542  0  0.274445  0.671169  0  4.059132  0
C  C69  1  0.94127349  0.88926083  0.93008553  1  1.521759  0  0.274447  0.671269  0  4.059237  0
C  C70  1  0.44062680  0.91436080  0.08701821  1  1.683163  0  0.27478  0.696606  0  4.185483  0
C  C71  1  0.94065038  0.08563724  0.91298596  1  1.682224  0  0.274724  0.696652  0  4.185496  0
O  O72  1  0.48497525  0.41710434  0.44004843  1  -1.256779  0  -0.22727  -0.580578  0  2.315972  0
O  O73  1  0.98501605  0.58293578  0.55991463  1  -1.256714  0  -0.227419  -0.580616  0  2.315655  0
O  O74  1  0.14414782  0.56600241  0.43436516  1  -1.227261  0  -0.227474  -0.575193  0  2.274632  0
O  O75  1  0.64411996  0.43394043  0.56560183  1  -1.226437  0  -0.22754  -0.574923  0  2.275212  0
O  O76  1  0.14931813  0.41662132  0.45362752  1  -1.282069  0  -0.240038  -0.625749  0  2.395172  0
O  O77  1  0.64931676  0.58334320  0.54642026  1  -1.282418  0  -0.24007  -0.626028  0  2.395474  0
O  O78  1  0.98614029  0.43752814  0.57032652  1  -1.225365  0  -0.228597  -0.582445  0  2.296325  0
O  O79  1  0.48618945  0.56252851  0.42971247  1  -1.224988  0  -0.228653  -0.58256  0  2.296675  0
O  O80  1  0.32200679  0.50862597  0.53939801  1  -1.431326  0  -0.447567  -0.993414  0  2.195442  0
O  O81  1  0.82201386  0.49137631  0.46060766  1  -1.432219  0  -0.447588  -0.993456  0  2.195603  0
O  O82  1  0.26805559  0.93700502  0.07044107  1  -1.226863  0  -0.226549  -0.579295  0  2.29489  0
O  O83  1  0.76808167  0.06295874  0.92953697  1  -1.226074  0  -0.226461  -0.579476  0  2.294352  0
O  O84  1  0.60389715  0.08373729  0.04528596  1  -1.27022  0  -0.237792  -0.621325  0  2.396868  0
O  O85  1  0.10389054  0.91627949  0.95468238  1  -1.270033  0  -0.237641  -0.62128  0  2.39724  0
O  O86  1  0.60994280  0.93374951  0.06500525  1  -1.231842  0  -0.225946  -0.57487  0  2.275776  0
O  O87  1  0.10995385  0.06628345  0.93501596  1  -1.231996  0  -0.225865  -0.574564  0  2.276166  0
O  O88  1  0.76841883  0.91729194  0.93878335  1  -1.256861  0  -0.229866  -0.577886  0  2.285083  0
O  O89  1  0.26845294  0.08268481  0.06123874  1  -1.257659  0  -0.229763  -0.577722  0  2.285294  0
O  O90  1  0.43086470  0.99173442  0.96076401  1  -1.42392  0  -0.447153  -0.997366  0  2.196592  0
O  O91  1  0.93085796  0.00826229  0.03923429  1  -1.423776  0  -0.447238  -0.997322  0  2.196661  0
O  O92  1  0.22173296  0.77779978  0.96531123  1  -1.141309  0  -0.352546  -0.414829  0  2.273482  0
O  O93  1  0.72171032  0.22219899  0.03467929  1  -1.141447  0  -0.352603  -0.414813  0  2.273868  0
O  O94  1  0.27959425  0.65841827  0.89197595  1  -1.0905  0  -0.348563  -0.405494  0  2.278142  0
O  O95  1  0.77953624  0.34158728  0.10801253  1  -1.091456  0  -0.348559  -0.405311  0  2.27827  0
O  O96  1  0.53733099  0.72149475  0.53892915  1  -1.14456  0  -0.354672  -0.442521  0  2.245842  0
O  O97  1  0.03738103  0.27849247  0.46107628  1  -1.144817  0  -0.354712  -0.441701  0  2.2456  0
