# generated using pymatgen
data_CuH10C7NO4
_symmetry_space_group_name_H-M   'P 1'
_cell_length_a   8.42368916
_cell_length_b   9.79589978
_cell_length_c   11.97363448
_cell_angle_alpha   90.02050157
_cell_angle_beta   90.00890606
_cell_angle_gamma   107.68315683
_symmetry_Int_Tables_number   1
_chemical_formula_structural   CuH10C7NO4
_chemical_formula_sum   'Cu4 H40 C28 N4 O16'
_cell_volume   941.35177826
_cell_formula_units_Z   4
loop_
 _symmetry_equiv_pos_site_id
 _symmetry_equiv_pos_as_xyz
  1  'x, y, z'
loop_
 _atom_site_type_symbol
 _atom_site_label
 _atom_site_symmetry_multiplicity
 _atom_site_fract_x
 _atom_site_fract_y
 _atom_site_fract_z
 _atom_site_occupancy
 _atom_site_pbe_cm5_charge
 _atom_site_pbe_ddec_charge
 _atom_site_pbe_ddec_spin_density
 _atom_site_pbe_ddec_sum_bond_order
 _atom_site_pbe_magmom
Cu  Cu0  1  0.98567267  0.36396440  0.48997480  1  0.654491  0.71837  0.000727  2.376797  0.0
Cu  Cu1  1  0.51428931  0.13448327  0.99020318  1  0.673174  0.749346  -0.69377  2.37348  -0.534
Cu  Cu2  1  0.01435386  0.63623983  0.51003064  1  0.654396  0.718397  -0.000704  2.376439  0.0
Cu  Cu3  1  0.48571036  0.86550691  0.00981141  1  0.673082  0.74912  0.69377  2.373661  0.534
H  H4  1  0.81110390  0.40349253  0.13975574  1  0.09844  0.159212  -9.9e-05  1.029551  0.0
H  H5  1  0.68904599  0.09658765  0.63968787  1  0.098721  0.160152  0.00085  1.028378  0.001
H  H6  1  0.18882792  0.59655184  0.86012440  1  0.098352  0.159373  9.9e-05  1.029359  0.0
H  H7  1  0.31096223  0.90342716  0.36031336  1  0.098694  0.160106  -0.00085  1.028398  -0.001
H  H8  1  0.84920740  0.59591149  0.14814006  1  0.100713  0.158501  1.2e-05  0.980823  0.0
H  H9  1  0.65113559  0.90421391  0.64769006  1  0.100677  0.159089  -0.000828  0.979964  -0.001
H  H10  1  0.15085363  0.40413569  0.85195138  1  0.10079  0.158635  -1.1e-05  0.980945  0.0
H  H11  1  0.34887056  0.09580517  0.35233038  1  0.100726  0.159036  0.000827  0.979851  0.001
H  H12  1  0.66415741  0.47516862  0.20298376  1  0.10074  0.151898  -3e-06  1.008119  0.0
H  H13  1  0.83593278  0.02497897  0.70311564  1  0.100917  0.152571  -8e-05  1.007814  0.0
H  H14  1  0.33584502  0.52485686  0.79701497  1  0.10086  0.152176  3e-06  1.007946  0.0
H  H15  1  0.16407240  0.97504759  0.29689562  1  0.100899  0.152592  8e-05  1.007797  0.0
H  H16  1  0.44089020  0.36977706  0.56451645  1  0.103229  0.163035  5e-06  1.002455  0.0
H  H17  1  0.06015955  0.13015355  0.06498583  1  0.103069  0.163037  9.4e-05  1.002683  0.0
H  H18  1  0.55906674  0.63022681  0.43549730  1  0.103291  0.163107  -5e-06  1.002464  0.0
H  H19  1  0.93983715  0.86984516  0.93501958  1  0.103067  0.163008  -9.4e-05  1.002778  0.0
H  H20  1  0.51531817  0.48852324  0.67828441  1  0.097163  0.151825  4e-06  1.001629  0.0
H  H21  1  0.98496860  0.01138937  0.17854003  1  0.097006  0.152244  -0.00096  1.000686  -0.001
H  H22  1  0.48484028  0.51154470  0.32167007  1  0.097188  0.15189  -3e-06  1.001602  0.0
H  H23  1  0.01502103  0.98860610  0.82146538  1  0.097007  0.152225  0.00096  1.000613  0.001
H  H24  1  0.51003094  0.30393216  0.68865338  1  0.103248  0.164678  -5.1e-05  0.996155  0.0
H  H25  1  0.99019628  0.19598688  0.18888657  1  0.102907  0.164615  0.000871  0.995824  0.001
H  H26  1  0.48983764  0.69607023  0.31138793  1  0.103248  0.16468  5.2e-05  0.995961  0.0
H  H27  1  0.00982368  0.80401729  0.81112385  1  0.102928  0.164599  -0.000871  0.995811  -0.001
H  H28  1  0.19996093  0.20856053  0.57995297  1  0.118344  0.099338  2e-06  1.03196  0.0
H  H29  1  0.30030046  0.29153081  0.08015403  1  0.118551  0.099325  0.0001  1.032337  0.0
H  H30  1  0.80004377  0.79138259  0.42003906  1  0.118405  0.099493  -3e-06  1.031963  0.0
H  H31  1  0.69969439  0.70847966  0.91984553  1  0.118612  0.099437  -0.0001  1.032328  0.0
H  H32  1  0.62439791  0.04309225  0.44583648  1  0.099276  0.143158  2.8e-05  1.008656  0.0
H  H33  1  0.87562199  0.45682910  0.94590073  1  0.099247  0.143219  4e-06  1.008548  0.0
H  H34  1  0.37563534  0.95688525  0.55416224  1  0.099142  0.142952  -2.8e-05  1.008586  0.0
H  H35  1  0.12437241  0.54318350  0.05410468  1  0.099249  0.143243  -4e-06  1.008475  0.0
H  H36  1  0.66626541  0.95141588  0.32658307  1  0.097398  0.145784  -2.7e-05  1.004201  0.0
H  H37  1  0.83363529  0.54840054  0.82667732  1  0.097276  0.14529  -3.7e-05  1.003744  0.0
H  H38  1  0.33373826  0.04855506  0.67341398  1  0.097362  0.145672  2.7e-05  1.004024  0.0
H  H39  1  0.16636104  0.45161421  0.17332475  1  0.097326  0.145354  3.7e-05  1.003778  0.0
H  H40  1  0.75266926  0.14252099  0.33925208  1  0.103057  0.16495  1.7e-05  1.013595  0.0
H  H41  1  0.74730713  0.35729281  0.83928251  1  0.103026  0.165217  2e-06  1.013051  0.0
H  H42  1  0.24737202  0.85745227  0.66075416  1  0.103036  0.165014  -1.7e-05  1.013438  0.0
H  H43  1  0.25268296  0.64271764  0.16072123  1  0.102992  0.165073  -2e-06  1.013233  0.0
C  C44  1  0.87815107  0.49556523  0.30335306  1  0.215259  0.678899  3e-06  4.108975  0.0
C  C45  1  0.62186545  0.00433281  0.80291860  1  0.216118  0.683663  0.000152  4.102697  0.0
C  C46  1  0.12183066  0.50437671  0.69662895  1  0.215594  0.679992  -1e-06  4.107878  0.0
C  C47  1  0.37813750  0.99568733  0.19709182  1  0.215946  0.683587  -0.00015  4.103107  0.0
C  C48  1  0.79797462  0.49258321  0.19012282  1  -0.240595  -0.508234  -8.9e-05  3.86252  0.0
C  C49  1  0.70210739  0.00743640  0.69005126  1  -0.243278  -0.514457  8.8e-05  3.867568  0.0
C  C50  1  0.20201649  0.50739943  0.80986004  1  -0.240751  -0.509107  8.4e-05  3.862389  0.0
C  C51  1  0.29789631  0.99258587  0.30995832  1  -0.243195  -0.514336  -8.6e-05  3.867539  0.0
C  C52  1  0.70516323  0.43512600  0.58325150  1  0.214988  0.675813  -5e-06  4.120111  0.0
C  C53  1  0.79585295  0.06498637  0.08323814  1  0.214995  0.680403  -5.3e-05  4.112763  0.0
C  C54  1  0.29483076  0.56481707  0.41673385  1  0.214708  0.675563  7e-06  4.119937  0.0
C  C55  1  0.20414643  0.93501663  0.91677227  1  0.214892  0.680281  5.3e-05  4.11297  0.0
C  C56  1  0.53182933  0.39675039  0.63309600  1  -0.237379  -0.504215  -3.2e-05  3.839707  0.0
C  C57  1  0.96867228  0.10318456  0.13323629  1  -0.23936  -0.508377  0.000323  3.843548  0.0
C  C58  1  0.46815881  0.60322367  0.36690021  1  -0.237391  -0.504282  2.7e-05  3.839705  0.0
C  C59  1  0.03133185  0.89681846  0.86677162  1  -0.239338  -0.508278  -0.000319  3.843662  0.0
C  C60  1  0.86870273  0.02139224  0.44310311  1  0.127863  0.266902  3.6e-05  3.962922  0.0
C  C61  1  0.63129432  0.47850611  0.94314537  1  0.128237  0.267738  0.000392  3.961782  0.0
C  C62  1  0.13130338  0.97855839  0.55689644  1  0.127995  0.26722  -3.6e-05  3.962719  0.0
C  C63  1  0.36870402  0.52150758  0.05685837  1  0.128331  0.267898  -0.000392  3.961675  0.0
C  C64  1  0.11102728  0.11417643  0.54341746  1  0.050037  -0.010804  3.4e-05  3.907774  0.0
C  C65  1  0.38910713  0.38586012  0.04353380  1  0.050683  -0.008803  0.000478  3.906732  0.0
C  C66  1  0.88896976  0.88577200  0.45657625  1  0.050119  -0.01071  -3.4e-05  3.907702  0.0
C  C67  1  0.61089151  0.61415785  0.95646326  1  0.050562  -0.008989  -0.000478  3.906649  0.0
C  C68  1  0.72042403  0.04036507  0.38426770  1  -0.239147  -0.460099  1e-06  3.911375  0.0
C  C69  1  0.77953522  0.45947962  0.88433228  1  -0.238559  -0.459394  1.9e-05  3.910007  0.0
C  C70  1  0.27958848  0.95960055  0.61572852  1  -0.238911  -0.459889  -1e-06  3.910929  0.0
C  C71  1  0.22045836  0.54053405  0.11567062  1  -0.238614  -0.45943  -2e-05  3.910173  0.0
N  N72  1  0.98310465  0.13616980  0.48770069  1  -0.312497  -0.243956  4.2e-05  3.444586  0.0
N  N73  1  0.51702036  0.36382198  0.98786823  1  -0.311903  -0.247435  0.000396  3.439548  0.0
N  N74  1  0.01690050  0.86378830  0.51229552  1  -0.312849  -0.244104  -4.1e-05  3.445451  0.0
N  N75  1  0.48297880  0.63619065  0.01213384  1  -0.311886  -0.247386  -0.000397  3.439314  0.0
O  O76  1  0.89717579  0.37822910  0.33726069  1  -0.31034  -0.525138  8e-05  2.35149  0.0
O  O77  1  0.60236067  0.12142327  0.83757071  1  -0.31471  -0.533358  -0.056308  2.350853  -0.078
O  O78  1  0.10283724  0.62173118  0.66273302  1  -0.310559  -0.525822  -8.3e-05  2.351445  0.0
O  O79  1  0.39764437  0.87859261  0.16244889  1  -0.314525  -0.533229  0.056304  2.350964  0.078
O  O80  1  0.75743819  0.33105300  0.55489523  1  -0.311995  -0.52228  0.000228  2.325995  0.0
O  O81  1  0.74285553  0.16874087  0.05466508  1  -0.31629  -0.531372  -0.054542  2.32201  -0.076
O  O82  1  0.24257394  0.66891155  0.44506256  1  -0.311785  -0.522443  -0.000231  2.325917  0.0
O  O83  1  0.25713954  0.83125997  0.94534617  1  -0.316203  -0.531235  0.054539  2.321908  0.076
O  O84  1  0.91703964  0.61423949  0.35564734  1  -0.314311  -0.529043  -1.8e-05  2.333549  0.0
O  O85  1  0.58237158  0.88585782  0.85567646  1  -0.318057  -0.536331  0.054893  2.332204  0.076
O  O86  1  0.08288345  0.38570110  0.64433550  1  -0.314438  -0.529221  1.5e-05  2.333291  0.0
O  O87  1  0.41762706  0.11416015  0.14433145  1  -0.318048  -0.536267  -0.054896  2.332132  -0.076
O  O88  1  0.78200581  0.56832561  0.57288145  1  -0.318159  -0.53869  -4.3e-05  2.323069  0.0
O  O89  1  0.71797334  0.93188107  0.07237450  1  -0.322195  -0.546458  0.056681  2.321169  0.079
O  O90  1  0.21795913  0.43162268  0.42711810  1  -0.318167  -0.538312  4e-05  2.322598  0.0
O  O91  1  0.28203347  0.06812625  0.92763257  1  -0.322213  -0.54651  -0.056682  2.321206  -0.079
