# generated using pymatgen
data_LaH10C11NO7
_symmetry_space_group_name_H-M   'P 1'
_cell_length_a   7.84986397
_cell_length_b   8.18327259
_cell_length_c   10.15666203
_cell_angle_alpha   82.03072912
_cell_angle_beta   84.29419388
_cell_angle_gamma   70.64588397
_symmetry_Int_Tables_number   1
_chemical_formula_structural   LaH10C11NO7
_chemical_formula_sum   'La2 H20 C22 N2 O14'
_cell_volume   608.62498025
_cell_formula_units_Z   2
loop_
 _symmetry_equiv_pos_site_id
 _symmetry_equiv_pos_as_xyz
  1  'x, y, z'
loop_
 _atom_site_type_symbol
 _atom_site_label
 _atom_site_symmetry_multiplicity
 _atom_site_fract_x
 _atom_site_fract_y
 _atom_site_fract_z
 _atom_site_occupancy
 _atom_site_hle17_bader_spin_density
 _atom_site_hle17_ddec_charge
 _atom_site_hle17_ddec_spin_density
 _atom_site_hle17_ddec_sum_bond_order
 _atom_site_hle17_magmom
 _atom_site_hse06_10hf_bader_spin_density
 _atom_site_hse06_10hf_ddec_charge
 _atom_site_hse06_10hf_ddec_spin_density
 _atom_site_hse06_10hf_ddec_sum_bond_order
 _atom_site_hse06_10hf_magmom
 _atom_site_hse06_bader_spin_density
 _atom_site_hse06_ddec_charge
 _atom_site_hse06_ddec_spin_density
 _atom_site_hse06_ddec_sum_bond_order
 _atom_site_hse06_magmom
 _atom_site_pbe_bader_spin_density
 _atom_site_pbe_cm5_charge
 _atom_site_pbe_ddec_charge
 _atom_site_pbe_ddec_spin_density
 _atom_site_pbe_ddec_sum_bond_order
 _atom_site_pbe_magmom
La  La0  1  0.22915619  0.08984358  0.53545150  1  0  2.117314  0  1.795322  0  0  1.997975  0  2.313103  0  0  2.101731  0  2.212611  0  0  1.425733  1.919209  0  2.384486  0
La  La1  1  0.77084549  0.91015584  0.46454670  1  0  2.117311  0  1.79539  0  0  1.997978  0  2.31318  0  0  2.101723  0  2.212701  0  0  1.42573  1.919204  0  2.38458  0
H  H2  1  0.86503777  0.08300363  0.84704428  1  0  0.092969  0  0.962905  0  0  0.103909  0  1.024019  0  0  0.106857  0  1.021531  0  0  0.106525  0.101729  0  1.025901  0
H  H3  1  0.13496346  0.91699708  0.15295578  1  0  0.092965  0  0.962927  0  0  0.103932  0  1.024009  0  0  0.106879  0  1.02152  0  0  0.106538  0.101753  0  1.025891  0
H  H4  1  0.91022775  0.18524614  0.05109095  1  0  0.095479  0  0.97294  0  0  0.107297  0  1.032541  0  0  0.109991  0  1.032164  0  0  0.100695  0.10532  0  1.033003  0
H  H5  1  0.08977219  0.81475457  0.94890920  1  0  0.095469  0  0.972914  0  0  0.107288  0  1.032517  0  0  0.109982  0  1.03214  0  0  0.100681  0.105311  0  1.032979  0
H  H6  1  0.33128721  0.34027198  0.14683439  1  0  0.109139  0  0.967276  0  0  0.11817  0  1.030385  0  0  0.122096  0  1.02837  0  0  0.102942  0.11523  0  1.032398  0
H  H7  1  0.66871233  0.65972614  0.85316509  1  0  0.109162  0  0.967227  0  0  0.118174  0  1.030364  0  0  0.122114  0  1.028332  0  0  0.102939  0.115232  0  1.032378  0
H  H8  1  0.29234325  0.23651666  0.94007564  1  0  0.092587  0  0.941324  0  0  0.10505  0  0.998985  0  0  0.108293  0  0.996274  0  0  0.104827  0.102708  0  1.000986  0
H  H9  1  0.70765929  0.76348014  0.05992278  1  0  0.09256  0  0.941386  0  0  0.105039  0  0.999026  0  0  0.108282  0  0.996315  0  0  0.104838  0.102697  0  1.001027  0
H  H10  1  0.37801570  0.53633235  0.24094373  1  0  0.105765  0  0.944207  0  0  0.117953  0  1.009424  0  0  0.11917  0  1.009419  0  0  0.118621  0.116828  0  1.009654  0
H  H11  1  0.62198255  0.46366577  0.75905683  1  0  0.10577  0  0.944228  0  0  0.11796  0  1.009442  0  0  0.119177  0  1.009438  0  0  0.118628  0.116835  0  1.009668  0
H  H12  1  0.53173794  0.54192355  0.35365604  1  0  0.118749  0  0.939877  0  0  0.131317  0  1.000994  0  0  0.133381  0  1.000107  0  0  0.125393  0.129807  0  1.001808  0
H  H13  1  0.46826244  0.45807586  0.64634422  1  0  0.118739  0  0.939882  0  0  0.13131  0  1.001  0  0  0.133374  0  1.000114  0  0  0.12539  0.1298  0  1.001815  0
H  H14  1  0.78697986  0.51715232  0.27352248  1  0  0.122904  0  0.924979  0  0  0.135135  0  0.987686  0  0  0.137589  0  0.9861  0  0  0.129481  0.133422  0  0.98911  0
H  H15  1  0.21302052  0.48284710  0.72647779  1  0  0.122895  0  0.92497  0  0  0.135124  0  0.98768  0  0  0.137578  0  0.986095  0  0  0.129484  0.13341  0  0.989105  0
H  H16  1  0.87996745  0.41899438  0.12851021  1  0  0.10387  0  0.916768  0  0  0.118037  0  0.976491  0  0  0.119921  0  0.974897  0  0  0.118395  0.116815  0  0.977552  0
H  H17  1  0.12003122  0.58100634  0.87148905  1  0  0.103824  0  0.916769  0  0  0.118002  0  0.97648  0  0  0.119887  0  0.974885  0  0  0.118384  0.11678  0  0.977541  0
H  H18  1  0.85644097  0.39355142  0.58642803  1  0  0.437644  0  0.857859  0  0  0.408914  0  0.917175  0  0  0.42111  0  0.899652  0  0  0.301086  0.400204  0  0.929621  0
H  H19  1  0.14355940  0.60644799  0.41357223  1  0  0.437627  0  0.857891  0  0  0.408911  0  0.917182  0  0  0.421104  0  0.899663  0  0  0.301088  0.4002  0  0.929628  0
H  H20  1  0.83642778  0.20893410  0.64307629  1  0  0.421988  0  0.885511  0  0  0.389558  0  0.954252  0  0  0.400761  0  0.938144  0  0  0.298537  0.381531  0  0.965764  0
H  H21  1  0.16357345  0.79106662  0.35692377  1  0  0.421976  0  0.885529  0  0  0.389539  0  0.954283  0  0  0.400742  0  0.938173  0  0  0.298513  0.381512  0  0.965794  0
C  C22  1  0.57358808  0.16311434  0.87404531  1  0  -0.133999  0  3.809323  0  0  -0.115072  0  4.050326  0  0  -0.127959  0  4.073724  0  0  -0.041992  -0.106124  0  4.034589  0
C  C23  1  0.42641403  0.83688378  0.12595300  1  0  -0.134114  0  3.809385  0  0  -0.115191  0  4.050382  0  0  -0.128079  0  4.073778  0  0  -0.042022  -0.106242  0  4.034647  0
C  C24  1  0.74765503  0.14396258  0.91097083  1  0  -0.0441  0  3.779992  0  0  -0.068661  0  4.029945  0  0  -0.062797  0  4.047059  0  0  -0.085782  -0.072127  0  4.017865  0
C  C25  1  0.25234321  0.85603944  0.08902832  1  0  -0.044052  0  3.779965  0  0  -0.068638  0  4.029916  0  0  -0.062772  0  4.047027  0  0  -0.085756  -0.072104  0  4.017834  0
C  C26  1  0.77294530  0.20309009  0.02650674  1  0  -0.195429  0  3.745889  0  0  -0.213956  0  4.00536  0  0  -0.223184  0  4.026397  0  0  -0.107188  -0.207431  0  3.990691  0
C  C27  1  0.22705465  0.79691063  0.97349342  1  0  -0.195403  0  3.74591  0  0  -0.213918  0  4.005408  0  0  -0.223146  0  4.026445  0  0  -0.10718  -0.207395  0  3.990743  0
C  C28  1  0.62267241  0.28749412  0.11003610  1  0  0.233318  0  3.771617  0  0  0.21665  0  4.02766  0  0  0.230239  0  4.046875  0  0  0.114968  0.207425  0  4.014337  0
C  C29  1  0.37732711  0.71250790  0.88996394  1  0  0.233304  0  3.771525  0  0  0.216595  0  4.027622  0  0  0.230181  0  4.046841  0  0  0.114937  0.207369  0  4.014299  0
C  C30  1  0.44927653  0.28947980  0.08032849  1  0  -0.176075  0  3.697466  0  0  -0.195713  0  3.959109  0  0  -0.204255  0  3.97879  0  0  -0.10288  -0.190287  0  3.94673  0
C  C31  1  0.55072385  0.71051961  0.91967177  1  0  -0.176092  0  3.697442  0  0  -0.19571  0  3.959114  0  0  -0.204263  0  3.978788  0  0  -0.102872  -0.190282  0  3.946735  0
C  C32  1  0.42679016  0.23005931  0.96418484  1  0  -0.02381  0  3.75017  0  0  -0.049613  0  4.003218  0  0  -0.044157  0  4.021545  0  0  -0.079938  -0.053478  0  3.99112  0
C  C33  1  0.57321024  0.76994011  0.03581345  1  0  -0.023762  0  3.750308  0  0  -0.049575  0  4.003348  0  0  -0.044119  0  4.021679  0  0  -0.079953  -0.053441  0  3.99125  0
C  C34  1  0.54412024  0.12558063  0.74179316  1  0  0.695657  0  3.855262  0  0  0.648158  0  4.15346  0  0  0.686352  0  4.144028  0  0  0.225915  0.620529  0  4.160755  0
C  C35  1  0.45587587  0.87442010  0.25820628  1  0  0.695659  0  3.855286  0  0  0.648203  0  4.153424  0  0  0.686399  0  4.143991  0  0  0.225922  0.620574  0  4.160722  0
C  C36  1  0.49280402  0.45381440  0.29964917  1  0  -0.171994  0  3.670528  0  0  -0.231574  0  3.913814  0  0  -0.231606  0  3.920395  0  0  -0.05433  -0.231433  0  3.909417  0
C  C37  1  0.50719508  0.54618502  0.70035118  1  0  -0.171982  0  3.670463  0  0  -0.231579  0  3.913758  0  0  -0.231612  0  3.92034  0  0  -0.054335  -0.231438  0  3.90936  0
C  C38  1  0.42127163  0.33685460  0.40374540  1  0  0.709553  0  3.806579  0  0  0.664507  0  4.105149  0  0  0.699776  0  4.097412  0  0  0.22382  0.639889  0  4.110584  0
C  C39  1  0.57872747  0.66314482  0.59625495  1  0  0.709536  0  3.806522  0  0  0.664499  0  4.105073  0  0  0.699769  0  4.097334  0  0  0.223842  0.639883  0  4.110505  0
C  C40  1  0.81416762  0.39659175  0.22706849  1  0  -0.166263  0  3.676043  0  0  -0.229044  0  3.92805  0  0  -0.228746  0  3.933744  0  0  -0.051577  -0.229328  0  3.924175  0
C  C41  1  0.18583276  0.60340766  0.77293178  1  0  -0.166191  0  3.676078  0  0  -0.22897  0  3.928029  0  0  -0.228674  0  3.933723  0  0  -0.051568  -0.229254  0  3.924154  0
C  C42  1  0.95253022  0.25567536  0.31140673  1  0  0.712754  0  3.838417  0  0  0.670893  0  4.138398  0  0  0.705959  0  4.130896  0  0  0.224476  0.646381  0  4.143129  0
C  C43  1  0.04747356  0.74432535  0.68859413  1  0  0.712666  0  3.838535  0  0  0.670849  0  4.138454  0  0  0.705914  0  4.130952  0  0  0.224438  0.646334  0  4.143184  0
N  N44  1  0.64511755  0.36778922  0.21443105  1  0  -0.131539  0  3.473828  0  0  -0.048194  0  3.704106  0  0  -0.066767  0  3.728742  0  0  -0.282835  -0.034489  0  3.686231  0
N  N45  1  0.35488239  0.63221150  0.78557009  1  0  -0.13152  0  3.47374  0  0  -0.048162  0  3.70403  0  0  -0.066734  0  3.728665  0  0  -0.282801  -0.034457  0  3.686155  0
O  O46  1  0.67967406  0.09324909  0.65483818  1  0  -0.732966  0  2.052986  0  0  -0.675514  0  2.304337  0  0  -0.708777  0  2.294926  0  0  -0.37761  -0.65185  0  2.31121  0
O  O47  1  0.32032506  0.90675033  0.34515922  1  0  -0.732936  0  2.053031  0  0  -0.675498  0  2.304378  0  0  -0.708765  0  2.294968  0  0  -0.377582  -0.651834  0  2.311253  0
O  O48  1  0.38507601  0.13468185  0.71546681  1  0  -0.69999  0  2.000885  0  0  -0.65827  0  2.265061  0  0  -0.692094  0  2.254635  0  0  -0.394861  -0.633762  0  2.272444  0
O  O49  1  0.61492394  0.86531887  0.28453334  1  0  -0.699994  0  2.000848  0  0  -0.658304  0  2.265029  0  0  -0.692128  0  2.254601  0  0  -0.394875  -0.633794  0  2.272412  0
O  O50  1  0.28556358  0.40787287  0.47934034  1  0  -0.649652  0  1.96232  0  0  -0.594749  0  2.185545  0  0  -0.6247  0  2.177224  0  0  -0.320642  -0.57292  0  2.191238  0
O  O51  1  0.71443638  0.59212785  0.52065882  1  0  -0.649683  0  1.962322  0  0  -0.594759  0  2.185532  0  0  -0.624708  0  2.177207  0  0  -0.320646  -0.572927  0  2.191218  0
O  O52  1  0.49412633  0.17126154  0.41070161  1  0  -0.743379  0  2.136675  0  0  -0.695739  0  2.411835  0  0  -0.734693  0  2.40621  0  0  -0.415247  -0.666799  0  2.414918  0
O  O53  1  0.50587533  0.82873787  0.58929856  1  0  -0.743349  0  2.136659  0  0  -0.695728  0  2.411841  0  0  -0.734688  0  2.406227  0  0  -0.415273  -0.666791  0  2.414923  0
O  O54  1  0.91677456  0.12003709  0.36850466  1  0  -0.758115  0  2.048537  0  0  -0.70821  0  2.318813  0  0  -0.746  0  2.309311  0  0  -0.41169  -0.680198  0  2.324264  0
O  O55  1  0.08322754  0.87996102  0.63149463  1  0  -0.758068  0  2.048659  0  0  -0.708179  0  2.318906  0  0  -0.745969  0  2.309406  0  0  -0.411652  -0.680168  0  2.324358  0
O  O56  1  0.09733800  0.28448502  0.32574339  1  0  -0.650693  0  1.973602  0  0  -0.606289  0  2.210899  0  0  -0.637526  0  2.203951  0  0  -0.357976  -0.583807  0  2.215164  0
O  O57  1  0.90266067  0.71551570  0.67425586  1  0  -0.650688  0  1.973495  0  0  -0.606312  0  2.210788  0  0  -0.63755  0  2.203842  0  0  -0.357987  -0.583828  0  2.215049  0
O  O58  1  0.92586748  0.27326446  0.62505598  1  0  -0.891668  0  1.825344  0  0  -0.84291  0  2.011066  0  0  -0.86994  0  1.976582  0  0  -0.636863  -0.822974  0  2.035259  0
O  O59  1  0.07413246  0.72673625  0.37494516  1  0  -0.891647  0  1.825382  0  0  -0.842896  0  2.011113  0  0  -0.869922  0  1.976622  0  0  -0.636849  -0.822959  0  2.035306  0
