# generated using pymatgen
data_Zn4H32C58O13
_symmetry_space_group_name_H-M   'P 1'
_cell_length_a   21.65433095
_cell_length_b   21.65434161
_cell_length_c   34.51204241
_cell_angle_alpha   89.99990837
_cell_angle_beta   90.00001178
_cell_angle_gamma   90.00046079
_symmetry_Int_Tables_number   1
_chemical_formula_structural   Zn4H32C58O13
_chemical_formula_sum   'Zn8 H64 C116 O26'
_cell_volume   16183.05145903
_cell_formula_units_Z   2
loop_
 _symmetry_equiv_pos_site_id
 _symmetry_equiv_pos_as_xyz
  1  'x, y, z'
loop_
 _atom_site_type_symbol
 _atom_site_label
 _atom_site_symmetry_multiplicity
 _atom_site_fract_x
 _atom_site_fract_y
 _atom_site_fract_z
 _atom_site_occupancy
 _atom_site_pbe_bader_charge
 _atom_site_pbe_bader_spin_density
 _atom_site_pbe_cm5_charge
 _atom_site_pbe_ddec_charge
 _atom_site_pbe_ddec_spin_density
 _atom_site_pbe_ddec_sum_bond_order
 _atom_site_pbe_magmom
Zn  Zn0  1  0.55252080  0.55252002  0.03257390  1  1.311642  0  0.669266  0.962182  0  2.381337  0
Zn  Zn1  1  0.44747915  0.55251886  0.96742612  1  1.311661  0  0.669309  0.96228  0  2.381317  0
Zn  Zn2  1  0.44747811  0.44747923  0.03257336  1  1.311626  0  0.669288  0.962245  0  2.381276  0
Zn  Zn3  1  0.55252099  0.44747892  0.96742560  1  1.311689  0  0.66941  0.962296  0  2.380829  0
Zn  Zn4  1  0.44747957  0.44747960  0.46742592  1  1.311608  0  0.669356  0.962279  0  2.381084  0
Zn  Zn5  1  0.44747954  0.55252127  0.53257414  1  1.311637  0  0.669409  0.962329  0  2.380778  0
Zn  Zn6  1  0.55251995  0.55252131  0.46742617  1  1.31162  0  0.669245  0.962223  0  2.381567  0
Zn  Zn7  1  0.55252000  0.44747901  0.53257362  1  1.311647  0  0.669325  0.962301  0  2.381294  0
H  H8  1  0.25671897  0.43034701  0.04424378  1  0.104966  0  0.107571  0.112625  0  0.993254  0
H  H9  1  0.14153693  0.43006300  0.04437735  1  0.069534  0  0.102056  0.101786  0  1.000619  0
H  H10  1  0.25671922  0.56965186  0.95575597  1  0.104999  0  0.107586  0.112642  0  0.993233  0
H  H11  1  0.14153765  0.56993587  0.95562326  1  0.069599  0  0.102106  0.101848  0  1.000554  0
H  H12  1  0.05716486  0.50009782  0.93761132  1  0.061155  0  0.10236  0.101803  0  0.999896  0
H  H13  1  0.05716380  0.49990175  0.06238899  1  0.061186  0  0.102358  0.10177  0  0.999937  0
H  H14  1  0.74327855  0.56965359  0.04424432  1  0.10501  0  0.107511  0.112527  0  0.993111  0
H  H15  1  0.85846152  0.56993575  0.04437703  1  0.069664  0  0.102113  0.101849  0  1.000626  0
H  H16  1  0.74328045  0.43034780  0.95575608  1  0.104893  0  0.10755  0.112567  0  0.993445  0
H  H17  1  0.85846295  0.43006241  0.95562193  1  0.069547  0  0.102048  0.101734  0  1.000576  0
H  H18  1  0.94283374  0.50009788  0.06238905  1  0.061123  0  0.102333  0.101775  0  0.999914  0
H  H19  1  0.94283527  0.49990235  0.93761108  1  0.061161  0  0.10236  0.10177  0  0.999932  0
H  H20  1  0.57008458  0.57009470  0.15162740  1  0.10184  0  0.106983  0.115962  0  0.999802  0
H  H21  1  0.61121002  0.61121818  0.21418294  1  0.064021  0  0.104057  0.106174  0  0.991085  0
H  H22  1  0.42991437  0.42990470  0.15162747  1  0.101846  0  0.106954  0.115917  0  0.999819  0
H  H23  1  0.38878987  0.38878106  0.21418304  1  0.063994  0  0.104073  0.106168  0  0.991204  0
H  H24  1  0.42990424  0.42991461  0.34837241  1  0.101822  0  0.106921  0.115882  0  0.999977  0
H  H25  1  0.38878111  0.38879021  0.28581717  1  0.063985  0  0.104077  0.106176  0  0.991192  0
H  H26  1  0.57009477  0.57008568  0.34837264  1  0.101896  0  0.106958  0.115916  0  0.999817  0
H  H27  1  0.61121880  0.61121024  0.28581707  1  0.064016  0  0.10407  0.106204  0  0.991096  0
H  H28  1  0.42991412  0.57009556  0.84837318  1  0.1019  0  0.106964  0.115922  0  0.999794  0
H  H29  1  0.38878855  0.61121887  0.78581731  1  0.064002  0  0.104042  0.106178  0  0.991042  0
H  H30  1  0.57008506  0.42990438  0.84837268  1  0.101847  0  0.106929  0.1159  0  0.999884  0
H  H31  1  0.61120968  0.38878077  0.78581714  1  0.063998  0  0.10407  0.106189  0  0.991132  0
H  H32  1  0.57009518  0.42991340  0.65162715  1  0.101896  0  0.106953  0.115928  0  0.999783  0
H  H33  1  0.61121890  0.38878871  0.71418273  1  0.063999  0  0.104059  0.106192  0  0.99106  0
H  H34  1  0.42990439  0.57008473  0.65162794  1  0.101852  0  0.106922  0.115911  0  0.99987  0
H  H35  1  0.38878069  0.61120972  0.71418318  1  0.064018  0  0.104077  0.106195  0  0.991077  0
H  H36  1  0.42946340  0.25673079  0.04369711  1  0.099654  0  0.107364  0.112399  0  0.993441  0
H  H37  1  0.42926113  0.14154280  0.04387797  1  0.066772  0  0.102163  0.10187  0  1.001238  0
H  H38  1  0.57053417  0.25672927  0.95630379  1  0.09995  0  0.10735  0.112356  0  0.993576  0
H  H39  1  0.57073875  0.14154082  0.95612217  1  0.066828  0  0.102107  0.101792  0  1.000952  0
H  H40  1  0.59943752  0.05716658  0.99993967  1  0.065194  0  0.102442  0.102117  0  0.999115  0
H  H41  1  0.40056121  0.05716659  0.00006085  1  0.065133  0  0.102475  0.102093  0  0.99908  0
H  H42  1  0.42946412  0.74326993  0.95630382  1  0.0996  0  0.107337  0.112392  0  0.993507  0
H  H43  1  0.42926093  0.85845792  0.95612209  1  0.066814  0  0.102142  0.101871  0  1.001042  0
H  H44  1  0.57053552  0.74326935  0.04369659  1  0.099625  0  0.107384  0.112425  0  0.993465  0
H  H45  1  0.57073871  0.85845734  0.04387762  1  0.066792  0  0.102144  0.101816  0  1.001178  0
H  H46  1  0.40056216  0.94283343  0.99993921  1  0.065461  0  0.10246  0.102111  0  0.999163  0
H  H47  1  0.59943815  0.94283366  0.00006099  1  0.065135  0  0.102469  0.102064  0  0.999149  0
H  H48  1  0.56965400  0.74327852  0.45575536  1  0.104998  0  0.10753  0.112562  0  0.99313  0
H  H49  1  0.56993617  0.85846189  0.45562289  1  0.069639  0  0.102088  0.101808  0  1.000659  0
H  H50  1  0.43034840  0.74328108  0.54424360  1  0.104958  0  0.107561  0.112629  0  0.993385  0
H  H51  1  0.43006255  0.85846306  0.54437799  1  0.069535  0  0.102066  0.101765  0  1.000551  0
H  H52  1  0.49990203  0.94283485  0.56238847  1  0.061136  0  0.102355  0.101778  0  0.999969  0
H  H53  1  0.50009782  0.94283363  0.43761058  1  0.061108  0  0.10235  0.101763  0  0.999911  0
H  H54  1  0.43034781  0.25671872  0.45575618  1  0.104966  0  0.107581  0.112675  0  0.993253  0
H  H55  1  0.43006334  0.14153720  0.45562237  1  0.069557  0  0.102069  0.101813  0  1.000556  0
H  H56  1  0.56965252  0.25671917  0.54424414  1  0.10499  0  0.107588  0.112635  0  0.993238  0
H  H57  1  0.56993607  0.14153765  0.54437719  1  0.069573  0  0.10208  0.101808  0  1.000591  0
H  H58  1  0.49990169  0.05716412  0.43761073  1  0.061087  0  0.102372  0.101766  0  0.999936  0
H  H59  1  0.50009843  0.05716489  0.56238863  1  0.06116  0  0.102366  0.101819  0  0.999896  0
H  H60  1  0.74326985  0.57053511  0.45630310  1  0.099652  0  0.107335  0.112351  0  0.993479  0
H  H61  1  0.85845835  0.57073830  0.45612230  1  0.066802  0  0.102137  0.101802  0  1.001236  0
H  H62  1  0.74326930  0.42946398  0.54369614  1  0.099576  0  0.107379  0.112448  0  0.993462  0
H  H63  1  0.85845780  0.42926079  0.54387811  1  0.066798  0  0.102126  0.101807  0  1.001076  0
H  H64  1  0.94283341  0.40056209  0.50006096  1  0.065449  0  0.102462  0.102117  0  0.999154  0
H  H65  1  0.94283282  0.59943768  0.49993917  1  0.065138  0  0.102474  0.102131  0  0.999133  0
H  H66  1  0.25672978  0.57053489  0.54369662  1  0.099931  0  0.107354  0.112389  0  0.993513  0
H  H67  1  0.14154128  0.57073946  0.54387829  1  0.066801  0  0.102144  0.101866  0  1.000997  0
H  H68  1  0.25673058  0.42946398  0.45630313  1  0.099633  0  0.107372  0.112411  0  0.99346  0
H  H69  1  0.14154254  0.42926171  0.45612232  1  0.066808  0  0.102154  0.10187  0  1.001245  0
H  H70  1  0.05716565  0.59943781  0.50006081  1  0.065147  0  0.102473  0.102112  0  0.999131  0
H  H71  1  0.05716624  0.40056176  0.49993921  1  0.065154  0  0.102478  0.102079  0  0.999113  0
C  C72  1  0.49999874  0.66749956  0.99999941  1  1.592077  0  0.226044  0.605756  0  4.169079  0
C  C73  1  0.33249300  0.49999945  0.00000006  1  1.593965  0  0.226067  0.60532  0  4.170064  0
C  C74  1  0.49999716  0.49999815  0.10459863  1  1.545681  0  0.228605  0.610348  0  4.156716  0
C  C75  1  0.50000385  0.33249931  0.99999639  1  1.59212  0  0.226111  0.605865  0  4.168875  0
C  C76  1  0.66750636  0.49999295  0.99999516  1  1.593937  0  0.225998  0.605155  0  4.170349  0
C  C77  1  0.50000468  0.49999437  0.89540173  1  1.545666  0  0.228651  0.61028  0  4.156844  0
C  C78  1  0.33250047  0.50000436  0.50000147  1  1.592129  0  0.22602  0.605787  0  4.169241  0
C  C79  1  0.49999282  0.66750677  0.50000488  1  1.594178  0  0.226014  0.605252  0  4.170035  0
C  C80  1  0.49999490  0.49999639  0.39540176  1  1.545665  0  0.228644  0.610287  0  4.156759  0
C  C81  1  0.66750043  0.49999647  0.50000121  1  1.592118  0  0.226056  0.605892  0  4.169175  0
C  C82  1  0.49999747  0.33249359  0.49999838  1  1.593972  0  0.225975  0.605187  0  4.17028  0
C  C83  1  0.49999539  0.50000305  0.60459831  1  1.545671  0  0.228656  0.610265  0  4.156619  0
C  C84  1  0.26363380  0.49999964  0.99999977  1  0.037611  0  -0.022303  -0.050088  0  3.986286  0
C  C85  1  0.23093488  0.46096065  0.02512435  1  -0.068494  0  -0.082473  -0.081987  0  3.98407  0
C  C86  1  0.16672324  0.46123655  0.02522199  1  -0.09488  0  -0.091726  -0.139716  0  3.989242  0
C  C87  1  0.23093442  0.53903755  0.97487627  1  -0.068556  0  -0.082462  -0.081984  0  3.984234  0
C  C88  1  0.16672417  0.53876159  0.97477833  1  -0.094981  0  -0.091713  -0.139685  0  3.989326  0
C  C89  1  0.13353511  0.49999911  0.00000034  1  0.077941  0  -0.000826  0.081849  0  4.002331  0
C  C90  1  0.06539955  0.49999930  0.99999975  1  -0.082705  0  -0.009002  0.062316  0  4.013766  0
C  C91  1  0.03212046  0.50036368  0.96504087  1  0.055814  0  -0.091228  -0.127767  0  4.00151  0
C  C92  1  0.03211938  0.49963522  0.03496001  1  -0.121921  0  -0.091288  -0.127768  0  4.00153  0
C  C93  1  0.73636510  0.50000292  0.00000211  1  0.037703  0  -0.022253  -0.049962  0  3.986189  0
C  C94  1  0.76906495  0.53903538  0.02512231  1  -0.068693  0  -0.082408  -0.081946  0  3.984477  0
C  C95  1  0.83327382  0.53876410  0.02522286  1  -0.094979  0  -0.091673  -0.139585  0  3.988967  0
C  C96  1  0.76906480  0.46095791  0.97487345  1  -0.068441  0  -0.082503  -0.082092  0  3.983999  0
C  C97  1  0.83327643  0.46123894  0.97477870  1  -0.094935  0  -0.091638  -0.139469  0  3.989593  0
C  C98  1  0.86646378  0.49999698  0.99999807  1  0.077977  0  -0.000889  0.081679  0  4.002249  0
C  C99  1  0.93459888  0.49999956  0.00000039  1  -0.081559  0  -0.008979  0.062403  0  4.01364  0
C  C100  1  0.96787861  0.50036355  0.03495920  1  0.055818  0  -0.091211  -0.12776  0  4.001532  0
C  C101  1  0.96787968  0.49963549  0.96503977  1  -0.121958  0  -0.091319  -0.127794  0  4.001403  0
C  C102  1  0.53967807  0.53968218  0.16805038  1  -0.012216  0  -0.080189  -0.141791  0  3.929326  0
C  C103  1  0.54044652  0.54044919  0.20866490  1  -0.016636  0  -0.007176  0.0759  0  4.043173  0
C  C104  1  0.58050703  0.58051011  0.23022837  1  0.032105  0  -0.090168  -0.133018  0  4.023226  0
C  C105  1  0.46032042  0.46031672  0.16805071  1  -0.012102  0  -0.08008  -0.141661  0  3.929241  0
C  C106  1  0.45955291  0.45955100  0.20866493  1  -0.016673  0  -0.007192  0.075902  0  4.043243  0
C  C107  1  0.41949194  0.41948910  0.23022670  1  0.032109  0  -0.090227  -0.133123  0  4.023218  0
C  C108  1  0.46031583  0.46032020  0.33194944  1  -0.012082  0  -0.08006  -0.141637  0  3.929257  0
C  C109  1  0.45955107  0.45955274  0.29133492  1  -0.016672  0  -0.007173  0.075926  0  4.043176  0
C  C110  1  0.41948872  0.41949135  0.26977319  1  -0.14795  0  -0.090217  -0.133108  0  4.023181  0
C  C111  1  0.53968133  0.53967874  0.33194940  1  -0.012319  0  -0.080165  -0.141721  0  3.929398  0
C  C112  1  0.54044930  0.54044723  0.29133517  1  -0.016626  0  -0.00718  0.075953  0  4.043103  0
C  C113  1  0.58050981  0.58050729  0.26977138  1  -0.147969  0  -0.090244  -0.133235  0  4.023344  0
C  C114  1  0.49999947  0.49999994  0.14791250  1  -0.009957  0  -0.022995  -0.040017  0  4.021423  0
C  C115  1  0.49999949  0.49999983  0.22940956  1  0.068331  0  0.005871  0.006514  0  3.900519  0
C  C116  1  0.49999997  0.50000106  0.35208790  1  -0.009877  0  -0.023011  -0.040027  0  4.021525  0
C  C117  1  0.49999949  0.49999932  0.27059026  1  -0.092197  0  0.00595  0.006607  0  3.900383  0
C  C118  1  0.46032177  0.53968148  0.83194965  1  -0.012177  0  -0.080125  -0.141657  0  3.929352  0
C  C119  1  0.45955194  0.54044950  0.79133571  1  -0.016522  0  -0.00716  0.075886  0  4.043115  0
C  C120  1  0.41949175  0.58050923  0.76977133  1  0.032007  0  -0.09023  -0.133152  0  4.02337  0
C  C121  1  0.53967925  0.46031573  0.83194941  1  -0.012096  0  -0.080094  -0.141733  0  3.929211  0
C  C122  1  0.54044583  0.45955058  0.79133518  1  -0.016608  0  -0.007192  0.075925  0  4.043226  0
C  C123  1  0.58050740  0.41948813  0.76977142  1  0.032108  0  -0.090206  -0.133136  0  4.023265  0
C  C124  1  0.53968153  0.46032102  0.66805068  1  -0.012173  0  -0.080132  -0.141669  0  3.929374  0
C  C125  1  0.54044951  0.45955161  0.70866433  1  -0.016529  0  -0.007136  0.075912  0  4.043122  0
C  C126  1  0.58050924  0.41949141  0.73022870  1  -0.148067  0  -0.090199  -0.133083  0  4.023289  0
C  C127  1  0.46031620  0.53967892  0.66805092  1  -0.012242  0  -0.080057  -0.14168  0  3.929175  0
C  C128  1  0.45955054  0.54044591  0.70866515  1  -0.01661  0  -0.007171  0.075922  0  4.043172  0
C  C129  1  0.41948852  0.58050698  0.73022919  1  -0.147982  0  -0.090187  -0.133069  0  4.023271  0
C  C130  1  0.49999867  0.50000042  0.85208786  1  -0.010067  0  -0.022988  -0.03995  0  4.021441  0
C  C131  1  0.50000004  0.49999868  0.77059022  1  0.068322  0  0.005862  0.006509  0  3.900431  0
C  C132  1  0.50000002  0.49999838  0.64791218  1  -0.009878  0  -0.022989  -0.039998  0  4.021491  0
C  C133  1  0.49999911  0.50000012  0.72941010  1  -0.092231  0  0.005871  0.006518  0  3.900417  0
C  C134  1  0.49999619  0.26364752  0.00000222  1  1.7e-05  0  -0.023089  -0.051171  0  3.986359  0
C  C135  1  0.45994264  0.23094811  0.02448470  1  -0.044782  0  -0.081729  -0.081061  0  3.984314  0
C  C136  1  0.45979599  0.16673790  0.02432218  1  -0.084947  0  -0.091134  -0.139032  0  3.990699  0
C  C137  1  0.54006026  0.23094861  0.97551216  1  -0.045199  0  -0.08168  -0.08096  0  3.983729  0
C  C138  1  0.54019900  0.16673654  0.97568054  1  -0.085204  0  -0.091043  -0.138881  0  3.990957  0
C  C139  1  0.50000259  0.13354659  0.99999881  1  0.065472  0  -0.001993  0.079805  0  4.00287  0
C  C140  1  0.49999816  0.06540044  0.00000087  1  -0.100926  0  -0.008769  0.063365  0  4.013207  0
C  C141  1  0.55572238  0.03212108  0.99977655  1  0.06141  0  -0.091529  -0.128526  0  3.999461  0
C  C142  1  0.44427892  0.03212052  0.00022486  1  -0.116183  0  -0.091469  -0.128222  0  3.999584  0
C  C143  1  0.50000040  0.73635181  0.00000111  1  -0.000195  0  -0.023071  -0.051167  0  3.986436  0
C  C144  1  0.45993988  0.76905054  0.97551334  1  -0.044685  0  -0.08167  -0.080965  0  3.983845  0
C  C145  1  0.45979929  0.83326260  0.97568020  1  -0.085156  0  -0.091107  -0.139035  0  3.991019  0
C  C146  1  0.54005857  0.76905069  0.02448588  1  -0.044727  0  -0.081763  -0.081111  0  3.984072  0
C  C147  1  0.54020245  0.83326276  0.02432098  1  -0.085121  0  -0.091122  -0.138908  0  3.990796  0
C  C148  1  0.49999861  0.86645320  0.99999960  1  0.065631  0  -0.00193  0.079785  0  4.003046  0
C  C149  1  0.50000073  0.93459981  0.00000043  1  -0.100757  0  -0.008768  0.063404  0  4.013292  0
C  C150  1  0.44427685  0.96787940  0.99977607  1  0.061106  0  -0.091545  -0.128502  0  3.999619  0
C  C151  1  0.55572090  0.96787927  0.00022440  1  -0.117466  0  -0.09145  -0.128188  0  3.999614  0
C  C152  1  0.50000418  0.73636548  0.49999731  1  0.037552  0  -0.022205  -0.04986  0  3.98609  0
C  C153  1  0.53903622  0.76906535  0.47487795  1  -0.068679  0  -0.082407  -0.081952  0  3.984598  0
C  C154  1  0.53876540  0.83327372  0.47477708  1  -0.094985  0  -0.091673  -0.1396  0  3.98896  0
C  C155  1  0.46095900  0.76906543  0.52512678  1  -0.068345  0  -0.082551  -0.082273  0  3.983891  0
C  C156  1  0.46124004  0.83327658  0.52522092  1  -0.095032  0  -0.091671  -0.13949  0  3.989584  0
C  C157  1  0.49999731  0.86646411  0.50000217  1  0.078093  0  -0.000863  0.081756  0  4.002258  0
C  C158  1  0.50000035  0.93459917  0.49999895  1  -0.081553  0  -0.008982  0.062319  0  4.01364  0
C  C159  1  0.49963660  0.96787929  0.53496006  1  0.05586  0  -0.091316  -0.127805  0  4.00134  0
C  C160  1  0.50036346  0.96787892  0.46504041  1  0.05579  0  -0.091203  -0.12766  0  4.001587  0
C  C161  1  0.50000135  0.26363396  0.50000073  1  0.037668  0  -0.022261  -0.049967  0  3.986155  0
C  C162  1  0.46096099  0.23093461  0.47487503  1  -0.068474  0  -0.082507  -0.082175  0  3.984103  0
C  C163  1  0.46123827  0.16672347  0.47477828  1  -0.09501  0  -0.091698  -0.139636  0  3.989266  0
C  C164  1  0.53903776  0.23093394  0.52512358  1  -0.068615  0  -0.082449  -0.081959  0  3.984311  0
C  C165  1  0.53876319  0.16672464  0.52522184  1  -0.094975  0  -0.091727  -0.139714  0  3.989277  0
C  C166  1  0.49999944  0.13353487  0.49999906  1  0.078084  0  -0.000836  0.081864  0  4.002198  0
C  C167  1  0.50000009  0.06539981  0.50000025  1  -0.081582  0  -0.009012  0.062231  0  4.013757  0
C  C168  1  0.49963559  0.03211922  0.46503943  1  -0.121848  0  -0.091318  -0.127749  0  4.001538  0
C  C169  1  0.50036479  0.03212052  0.53495908  1  -0.123072  0  -0.091259  -0.127792  0  4.001491  0
C  C170  1  0.73635225  0.50000044  0.49999831  1  3e-05  0  -0.023073  -0.051282  0  3.986503  0
C  C171  1  0.76905164  0.54005723  0.47551409  1  -0.044744  0  -0.081693  -0.08094  0  3.98418  0
C  C172  1  0.83326235  0.54020157  0.47567867  1  -0.085136  0  -0.091151  -0.138987  0  3.990833  0
C  C173  1  0.76905040  0.45993929  0.52448718  1  -0.044914  0  -0.081722  -0.08104  0  3.983865  0
C  C174  1  0.83326250  0.45979916  0.52432028  1  -0.084945  0  -0.091056  -0.138885  0  3.991044  0
C  C175  1  0.86645278  0.49999819  0.50000064  1  0.06541  0  -0.001961  0.07983  0  4.003043  0
C  C176  1  0.93459943  0.50000124  0.50000006  1  -0.100913  0  -0.008672  0.063452  0  4.013266  0
C  C177  1  0.96787892  0.44427721  0.50022378  1  0.061134  0  -0.091567  -0.128512  0  3.999478  0
C  C178  1  0.96787845  0.55572045  0.49977577  1  0.061576  0  -0.091581  -0.128495  0  3.999746  0
C  C179  1  0.26364774  0.49999900  0.49999799  1  -0.000175  0  -0.023061  -0.051178  0  3.986486  0
C  C180  1  0.23094867  0.54006101  0.52448739  1  -0.045023  0  -0.081712  -0.081032  0  3.983828  0
C  C181  1  0.16673750  0.54020068  0.52431991  1  -0.085014  0  -0.09105  -0.138914  0  3.990982  0
C  C182  1  0.23094880  0.45994273  0.47551409  1  -0.044764  0  -0.081747  -0.08106  0  3.984276  0
C  C183  1  0.16673809  0.45979793  0.47567838  1  -0.085103  0  -0.091163  -0.13907  0  3.990849  0
C  C184  1  0.13354628  0.50000263  0.50000088  1  0.065489  0  -0.001963  0.079815  0  4.002958  0
C  C185  1  0.06540010  0.49999866  0.49999972  1  -0.101983  0  -0.008794  0.063319  0  4.013254  0
C  C186  1  0.03212060  0.55572269  0.50022396  1  -0.116289  0  -0.091522  -0.128365  0  3.999556  0
C  C187  1  0.03212062  0.44427945  0.49977548  1  -0.116299  0  -0.091465  -0.128201  0  3.99955  0
O  O188  1  0.49999945  0.49999874  0.99999920  1  -1.224227  0  -0.571937  -1.025864  0  2.535755  0
O  O189  1  0.53730895  0.64072260  0.02327739  1  -1.186505  0  -0.318119  -0.551424  0  2.337845  0
O  O190  1  0.35926994  0.53719501  0.97665305  1  -1.187499  0  -0.317968  -0.551133  0  2.338178  0
O  O191  1  0.46279382  0.46280178  0.08786478  1  -1.177892  0  -0.316876  -0.548305  0  2.336985  0
O  O192  1  0.46269170  0.64072293  0.97672342  1  -1.186561  0  -0.31806  -0.55129  0  2.338073  0
O  O193  1  0.53720326  0.53719871  0.08786301  1  -1.177704  0  -0.316808  -0.548251  0  2.336846  0
O  O194  1  0.35927041  0.46280422  0.02334729  1  -1.187508  0  -0.318007  -0.551135  0  2.338188  0
O  O195  1  0.46268718  0.35927897  0.02327752  1  -1.186422  0  -0.318163  -0.551556  0  2.337393  0
O  O196  1  0.64073158  0.46280644  0.97665427  1  -1.187729  0  -0.317855  -0.5509  0  2.338988  0
O  O197  1  0.53730521  0.35927390  0.97672356  1  -1.186679  0  -0.318044  -0.55127  0  2.338462  0
O  O198  1  0.64072618  0.53719782  0.02334785  1  -1.187322  0  -0.318062  -0.551174  0  2.337494  0
O  O199  1  0.46279380  0.53719874  0.91213819  1  -1.177676  0  -0.316861  -0.548355  0  2.336637  0
O  O200  1  0.53720448  0.46280195  0.91213446  1  -1.177904  0  -0.316878  -0.548234  0  2.33737  0
O  O201  1  0.50000138  0.49999995  0.50000004  1  -1.224217  0  -0.571949  -1.025901  0  2.535769  0
O  O202  1  0.35927787  0.46269050  0.47672208  1  -1.186446  0  -0.318027  -0.551397  0  2.337884  0
O  O203  1  0.46280754  0.64073275  0.52334573  1  -1.187909  0  -0.317866  -0.550965  0  2.338884  0
O  O204  1  0.53719823  0.53720661  0.41213794  1  -1.177698  0  -0.316854  -0.548319  0  2.336632  0
O  O205  1  0.35927449  0.53730919  0.52327507  1  -1.186665  0  -0.318097  -0.55135  0  2.338295  0
O  O206  1  0.46280173  0.46279629  0.41213536  1  -1.177868  0  -0.316896  -0.548255  0  2.337307  0
O  O207  1  0.53719773  0.64072618  0.47665073  1  -1.187318  0  -0.31808  -0.551238  0  2.337307  0
O  O208  1  0.64072164  0.53730946  0.47672264  1  -1.186461  0  -0.318113  -0.551503  0  2.337838  0
O  O209  1  0.53719615  0.35927217  0.52334761  1  -1.187429  0  -0.318038  -0.551195  0  2.337972  0
O  O210  1  0.64072458  0.46269065  0.52327571  1  -1.186647  0  -0.318038  -0.551295  0  2.338311  0
O  O211  1  0.46280594  0.35926870  0.47665376  1  -1.187592  0  -0.317858  -0.550944  0  2.33849  0
O  O212  1  0.46280252  0.53720378  0.58786442  1  -1.17783  0  -0.316879  -0.548254  0  2.33724  0
O  O213  1  0.53719842  0.46279221  0.58786243  1  -1.177729  0  -0.316877  -0.548316  0  2.336519  0
