# generated using pymatgen
data_H4RuC10N(O2F3)2
_symmetry_space_group_name_H-M   'P 1'
_cell_length_a   8.63123110
_cell_length_b   8.77604537
_cell_length_c   9.10905833
_cell_angle_alpha   112.80326894
_cell_angle_beta   93.66181413
_cell_angle_gamma   90.27642038
_symmetry_Int_Tables_number   1
_chemical_formula_structural   H4RuC10N(O2F3)2
_chemical_formula_sum   'H8 Ru2 C20 N2 O8 F12'
_cell_volume   634.43771625
_cell_formula_units_Z   2
loop_
 _symmetry_equiv_pos_site_id
 _symmetry_equiv_pos_as_xyz
  1  'x, y, z'
loop_
 _atom_site_type_symbol
 _atom_site_label
 _atom_site_symmetry_multiplicity
 _atom_site_fract_x
 _atom_site_fract_y
 _atom_site_fract_z
 _atom_site_occupancy
 _atom_site_hle17_ddec_charge
 _atom_site_hle17_ddec_spin_density
 _atom_site_hle17_ddec_sum_bond_order
 _atom_site_hle17_magmom
 _atom_site_hse06_10hf_ddec_charge
 _atom_site_hse06_10hf_ddec_spin_density
 _atom_site_hse06_10hf_ddec_sum_bond_order
 _atom_site_hse06_10hf_magmom
 _atom_site_hse06_ddec_charge
 _atom_site_hse06_ddec_spin_density
 _atom_site_hse06_ddec_sum_bond_order
 _atom_site_hse06_magmom
 _atom_site_pbe_cm5_charge
 _atom_site_pbe_ddec_charge
 _atom_site_pbe_ddec_spin_density
 _atom_site_pbe_ddec_sum_bond_order
 _atom_site_pbe_magmom
H  H0  1  0.29062846  0.26019152  0.28737301  1  0.114128  0.000322  0.987099  0.0  0.120908  0.0005  1.054373  0.0  0.124853  0.000466  1.051882  0.0  0.101176  0.117559  0.000522  1.057041  0.0
H  H1  1  0.70937552  0.73980764  0.71263350  1  0.114075  0.000321  0.987137  0.0  0.12084  0.0005  1.054469  0.0  0.124786  0.000467  1.051976  0.0  0.101144  0.11777  0.000523  1.056558  0.0
H  H2  1  0.50813143  0.30758158  0.49029296  1  0.095834  -0.000113  0.942802  0.0  0.103238  -3.5e-05  1.004926  0.0  0.106442  -3.6e-05  1.00331  0.0  0.09925  0.100658  -3.4e-05  1.006707  0.0
H  H3  1  0.49186793  0.69241880  0.50971264  1  0.095865  -0.000112  0.942708  0.0  0.103241  -3.6e-05  1.004857  0.0  0.106439  -3.6e-05  1.003245  0.0  0.099265  0.100803  -3.4e-05  1.006277  0.0
H  H4  1  0.47995440  0.49589342  0.77376882  1  0.098611  -0.000102  0.942887  0.0  0.105952  -4.2e-05  1.006735  0.0  0.109828  -3.7e-05  1.003666  0.0  0.098572  0.103197  -4.8e-05  1.008795  0.0
H  H5  1  0.52004967  0.50410945  0.22623799  1  0.098595  -0.000102  0.94292  0.0  0.105958  -4.2e-05  1.006743  0.0  0.10984  -3.7e-05  1.003678  0.0  0.098573  0.103196  -4.7e-05  1.008815  0.0
H  H6  1  0.23520093  0.64015368  0.85220452  1  0.115066  0.000391  0.987423  0.0  0.122025  0.000621  1.054018  0.0  0.126381  0.000567  1.050731  0.0  0.101087  0.118725  0.000659  1.056496  0.0
H  H7  1  0.76480091  0.35985291  0.14780027  1  0.115062  0.000392  0.987497  0.0  0.122027  0.000622  1.054078  0.0  0.126382  0.000567  1.050791  0.0  0.101088  0.118721  0.000659  1.056564  0.0
Ru  Ru8  1  0.99480807  0.86957180  0.89549907  1  0.762039  1.020351  3.084807  0.954  0.682655  0.993445  3.68602  0.927  0.722689  1.005433  3.643661  0.948  0.675855  0.658425  0.979595  3.713842  0.905
Ru  Ru9  1  0.00518532  0.13042364  0.10449774  1  0.762689  1.02047  3.084391  0.954  0.682224  0.993284  3.68614  0.927  0.722453  1.005273  3.643674  0.948  0.675779  0.658191  0.979554  3.713984  0.905
C  C10  1  0.73182570  0.93200337  0.08718984  1  0.470546  -0.006236  3.896552  -0.001  0.413437  -0.004836  4.208438  0.0  0.449563  -0.004602  4.199184  0.001  0.205349  0.388451  -0.004899  4.215124  0.0
C  C11  1  0.26817061  0.06801308  0.91282163  1  0.470466  -0.006235  3.896703  -0.001  0.413328  -0.004835  4.20866  0.0  0.449455  -0.004602  4.199405  0.001  0.205359  0.388541  -0.004898  4.214961  0.0
C  C12  1  0.58103633  0.89068705  0.14853013  1  0.689221  -0.001965  3.673782  -0.001  0.615079  -0.001559  4.020128  -0.001  0.643304  -0.001363  3.990051  -0.001  0.303745  0.594031  -0.001689  4.043338  -0.001
C  C13  1  0.41896314  0.10931830  0.85147295  1  0.689202  -0.001968  3.67388  -0.001  0.61508  -0.001558  4.020205  -0.001  0.643318  -0.001364  3.99012  -0.001  0.303783  0.595029  -0.001688  4.041499  -0.001
C  C14  1  0.88023523  0.13174687  0.80488548  1  0.473156  -0.00601  3.885439  -0.001  0.413109  -0.004701  4.200962  0.0  0.449109  -0.004499  4.192206  0.001  0.206158  0.388068  -0.00473  4.207648  0.0
C  C15  1  0.11975924  0.86824611  0.19510499  1  0.473009  -0.006011  3.885691  -0.001  0.413103  -0.004701  4.200931  0.0  0.449106  -0.004501  4.192179  0.001  0.206156  0.387911  -0.004731  4.208033  0.0
C  C16  1  0.82302080  0.20800029  0.68499979  1  0.693483  -0.001967  3.670895  -0.001  0.620563  -0.001549  4.016291  -0.001  0.647751  -0.001361  3.988196  -0.001  0.305075  0.599738  -0.001668  4.039111  -0.001
C  C17  1  0.17698422  0.79199645  0.31499159  1  0.692964  -0.001969  3.671896  -0.001  0.620615  -0.00155  4.016257  -0.001  0.647789  -0.00136  3.988185  -0.001  0.30509  0.599772  -0.001668  4.039104  -0.001
C  C18  1  0.13351374  0.41753201  0.45224481  1  0.182011  0.000644  3.732411  0.001  0.177241  0.00211  3.98528  0.002  0.18343  0.001342  4.003292  0.002  0.117293  0.172384  0.003182  3.974986  0.003
C  C19  1  0.86649022  0.58246716  0.54775840  1  0.181877  0.000635  3.73282  0.001  0.177223  0.002113  3.98552  0.002  0.183414  0.001343  4.003528  0.002  0.117256  0.172366  0.003183  3.975287  0.003
C  C20  1  0.27763091  0.34016942  0.41090567  1  -0.13423  0.000517  3.700941  0.0  -0.159229  0.000558  3.957662  0.0  -0.164191  0.000264  3.977658  0.0  -0.092188  -0.156406  0.000997  3.945734  0.0
C  C21  1  0.72237180  0.65982603  0.58909827  1  -0.134264  0.000529  3.701036  0.0  -0.159259  0.000556  3.957716  0.0  -0.164223  0.000263  3.977709  0.0  -0.092181  -0.156275  0.000995  3.945261  0.0
C  C22  1  0.39870050  0.36831507  0.52418987  1  -0.030138  0.001691  3.748861  0.002  -0.046506  0.002055  4.005236  0.002  -0.047255  0.001375  4.026707  0.001  -0.080229  -0.04633  0.003062  3.991602  0.003
C  C23  1  0.60129991  0.63168161  0.47581330  1  -0.030116  0.001682  3.748696  0.002  -0.046469  0.002058  4.005113  0.002  -0.047211  0.001376  4.026578  0.001  -0.080241  -0.046178  0.003064  3.991125  0.003
C  C24  1  0.38298094  0.47625252  0.68512240  1  -0.036952  0.001421  3.74741  0.001  -0.058777  0.001862  4.009016  0.002  -0.059166  0.001216  4.029222  0.001  -0.083582  -0.058693  0.002823  3.995595  0.002
C  C25  1  0.61702072  0.52374788  0.31487896  1  -0.036881  0.001431  3.747361  0.001  -0.058727  0.00186  4.00899  0.002  -0.059126  0.001215  4.029198  0.001  -0.083578  -0.058656  0.002821  3.995622  0.002
C  C26  1  0.24762975  0.55755458  0.72919721  1  -0.139747  0.000667  3.705657  0.0  -0.161561  0.000754  3.958803  0.0  -0.166236  0.000458  3.978131  0.0  -0.093683  -0.158754  0.001183  3.946704  0.0
C  C27  1  0.75236966  0.44244830  0.27080384  1  -0.139806  0.000656  3.705791  0.0  -0.161605  0.000756  3.958887  0.0  -0.166275  0.000459  3.978214  0.0  -0.093699  -0.158818  0.001186  3.946854  0.0
C  C28  1  0.11967188  0.53360361  0.61499304  1  0.181801  0.001152  3.734575  0.002  0.176356  0.002654  3.986772  0.003  0.182471  0.001836  4.004888  0.002  0.117934  0.171532  0.003809  3.976521  0.004
C  C29  1  0.88032859  0.46639556  0.38500777  1  0.181686  0.001161  3.734805  0.002  0.176323  0.002653  3.986802  0.003  0.182437  0.001833  4.004922  0.002  0.117936  0.1715  0.003808  3.976556  0.004
N  N30  1  0.01252618  0.38337458  0.34076951  1  -0.311899  -0.001486  3.101568  -0.007  -0.273391  0.003981  3.376663  -0.004  -0.283708  0.001299  3.386329  -0.006  -0.296397  -0.267989  0.007756  3.372404  -0.001
N  N31  1  0.98747669  0.61662706  0.65923567  1  -0.311841  -0.001464  3.101638  -0.007  -0.273342  0.003977  3.376703  -0.004  -0.283657  0.001292  3.386363  -0.006  -0.296359  -0.267937  0.007751  3.372487  -0.001
O  O32  1  0.78327764  0.81980462  0.96613656  1  -0.458584  -0.001704  2.229247  -0.002  -0.421382  0.001938  2.499222  0.001  -0.44879  0.000191  2.492854  0.0  -0.284455  -0.402266  0.003282  2.502647  0.002
O  O33  1  0.21672591  0.18017971  0.03385886  1  -0.458347  -0.001696  2.229876  -0.002  -0.421111  0.001937  2.499866  0.001  -0.448523  0.000191  2.493512  0.0  -0.284329  -0.402197  0.003283  2.503789  0.002
O  O34  1  0.20795980  0.92554842  0.83245379  1  -0.463095  -0.002124  2.231768  -0.002  -0.428745  0.001115  2.506078  0.001  -0.457245  -0.000511  2.501848  0.0  -0.285415  -0.409237  0.002453  2.508708  0.002
O  O35  1  0.79203115  0.07444332  0.16753601  1  -0.462842  -0.002117  2.23223  -0.002  -0.428485  0.001115  2.506595  0.001  -0.456989  -0.00051  2.502369  0.0  -0.2852  -0.409306  0.002455  2.509732  0.002
O  O36  1  0.89827756  0.97711683  0.74614263  1  -0.462187  -0.002022  2.250054  -0.001  -0.426081  0.001011  2.526375  0.001  -0.455178  -0.000546  2.523308  0.0  -0.282999  -0.406494  0.002305  2.528925  0.002
O  O37  1  0.10170668  0.02288352  0.25385661  1  -0.462097  -0.002018  2.249622  -0.001  -0.426112  0.00101  2.526112  0.001  -0.455216  -0.000543  2.523031  0.0  -0.283023  -0.406683  0.002304  2.529098  0.002
O  O38  1  0.09190233  0.76962562  0.05076967  1  -0.461282  -0.001677  2.222674  -0.002  -0.422247  0.002264  2.491552  0.002  -0.45011  0.000345  2.484858  0.0  -0.285232  -0.403053  0.003699  2.495596  0.003
O  O39  1  0.90809696  0.23037355  0.94922669  1  -0.461425  -0.001672  2.222451  -0.002  -0.42229  0.002263  2.491381  0.002  -0.450166  0.000347  2.484688  0.0  -0.285248  -0.403078  0.0037  2.4953  0.003
F  F40  1  0.61430690  0.86637301  0.28513619  1  -0.216671  -0.00033  1.180428  0.0  -0.187288  -0.00037  1.350725  0.0  -0.196315  -0.000291  1.334297  0.0  -0.088373  -0.180855  -0.000413  1.362602  0.0
F  F41  1  0.38568793  0.13363232  0.71486662  1  -0.216656  -0.000329  1.18046  0.0  -0.187287  -0.000369  1.350769  0.0  -0.196311  -0.000289  1.334339  0.0  -0.088389  -0.180245  -0.000413  1.362157  0.0
F  F42  1  0.48082050  0.01759567  0.18112970  1  -0.242079  -0.000341  1.171533  0.0  -0.200531  -0.000418  1.335296  0.0  -0.211066  -0.000339  1.320654  0.0  -0.09269  -0.187234  -0.000469  1.339335  0.0
F  F43  1  0.51917998  0.98240475  0.81886610  1  -0.242101  -0.000341  1.17149  0.0  -0.200537  -0.000419  1.335216  0.0  -0.211067  -0.000345  1.320576  0.0  -0.09271  -0.192546  -0.000473  1.345343  0.0
F  F44  1  0.50573044  0.75276881  0.04122003  1  -0.230442  -0.000233  1.175582  0.0  -0.188293  -0.000257  1.333371  0.0  -0.201373  -0.000236  1.321339  0.0  -0.087882  -0.181897  -0.000272  1.344955  0.0
F  F45  1  0.49426310  0.24723157  0.95878085  1  -0.230416  -0.000233  1.175709  0.0  -0.18826  -0.000257  1.333476  0.0  -0.201381  -0.000234  1.321479  0.0  -0.087879  -0.181333  -0.000272  1.344786  0.0
F  F46  1  0.94259359  0.21649088  0.59724877  1  -0.231857  -0.000425  1.158797  0.0  -0.192035  -0.000478  1.313681  0.0  -0.202896  -0.0004  1.300097  0.0  -0.09264  -0.179903  -0.000519  1.319083  0.0
F  F47  1  0.05741593  0.78349966  0.40274932  1  -0.231562  -0.000425  1.158788  0.0  -0.191998  -0.000476  1.31357  0.0  -0.202856  -0.000398  1.299992  0.0  -0.092579  -0.179863  -0.00052  1.318972  0.0
F  F48  1  0.70650352  0.11438019  0.58248805  1  -0.23032  -0.000231  1.182351  0.0  -0.197835  -0.000266  1.347326  0.0  -0.206138  -0.000221  1.329791  0.0  -0.095515  -0.192168  -0.000296  1.360154  0.0
F  F49  1  0.29349379  0.88563261  0.41750454  1  -0.230334  -0.000231  1.182585  0.0  -0.19789  -0.000267  1.34734  0.0  -0.206191  -0.000218  1.329809  0.0  -0.095536  -0.192323  -0.000297  1.360341  0.0
F  F50  1  0.77130129  0.36281403  0.75958664  1  -0.226687  -0.000271  1.165095  0.0  -0.186622  -0.000276  1.318922  0.0  -0.196191  -0.00027  1.303601  0.0  -0.090333  -0.17992  -0.000267  1.329976  0.0
F  F51  1  0.22871091  0.63719140  0.24040512  1  -0.226529  -0.00027  1.165234  0.0  -0.186628  -0.000276  1.318924  0.0  -0.196192  -0.000274  1.303608  0.0  -0.090358  -0.179934  -0.000267  1.329993  0.0
