# generated using pymatgen
data_ZnH16C20N9O5
_symmetry_space_group_name_H-M   'P 1'
_cell_length_a   10.16465545
_cell_length_b   10.77346250
_cell_length_c   12.52917361
_cell_angle_alpha   70.10872572
_cell_angle_beta   80.30138364
_cell_angle_gamma   84.09501693
_symmetry_Int_Tables_number   1
_chemical_formula_structural   ZnH16C20N9O5
_chemical_formula_sum   'Zn2 H32 C40 N18 O10'
_cell_volume   1270.21743781
_cell_formula_units_Z   2
loop_
 _symmetry_equiv_pos_site_id
 _symmetry_equiv_pos_as_xyz
  1  'x, y, z'
loop_
 _atom_site_type_symbol
 _atom_site_label
 _atom_site_symmetry_multiplicity
 _atom_site_fract_x
 _atom_site_fract_y
 _atom_site_fract_z
 _atom_site_occupancy
 _atom_site_pbe_bader_charge
 _atom_site_pbe_bader_spin_density
 _atom_site_pbe_cm5_charge
 _atom_site_pbe_ddec_charge
 _atom_site_pbe_ddec_spin_density
 _atom_site_pbe_ddec_sum_bond_order
 _atom_site_pbe_magmom
Zn  Zn0  1  0.01231002  0.20035904  0.56670333  1  1.257365  0  0.693907  0.775757  0  2.398729  0
Zn  Zn1  1  0.98769044  0.79964334  0.43329449  1  1.257353  0  0.693935  0.775863  0  2.398701  0
H  H2  1  0.06441895  0.67952434  0.70904700  1  0.112913  0  0.118164  0.116205  0  1.029806  0
H  H3  1  0.93558254  0.32047708  0.29095337  1  0.112971  0  0.118159  0.116177  0  1.029836  0
H  H4  1  0.19289602  0.55675505  0.73437301  1  0.11105  0  0.11888  0.106396  0  1.037333  0
H  H5  1  0.80710345  0.44324646  0.26563159  1  0.111007  0  0.118863  0.106369  0  1.037327  0
H  H6  1  0.18407031  0.39541484  0.62699672  1  0.233324  0  0.149289  0.138241  0  0.998961  0
H  H7  1  0.81592957  0.60457683  0.37301400  1  0.23322  0  0.149289  0.138298  0  0.999053  0
H  H8  1  0.76727153  0.38097498  0.65980315  1  0.201119  0  0.141343  0.125788  0  0.991821  0
H  H9  1  0.23272671  0.61903238  0.34019505  1  0.201312  0  0.141341  0.125786  0  0.99187  0
H  H10  1  0.21586509  0.24241093  0.96886585  1  0.098278  0  0.11796  0.100368  0  1.011886  0
H  H11  1  0.78412359  0.75758663  0.03113819  1  0.098416  0  0.117999  0.100427  0  1.011772  0
H  H12  1  0.19751124  0.34007260  0.82865878  1  0.074346  0  0.120013  0.106216  0  0.991172  0
H  H13  1  0.80247957  0.65992198  0.17134508  1  0.074201  0  0.120025  0.106259  0  0.991153  0
H  H14  1  0.45526301  0.23808793  0.01883792  1  0.101581  0  0.132157  0.098475  0  0.995255  0
H  H15  1  0.54473299  0.76190261  0.98116328  1  0.101755  0  0.132153  0.098443  0  0.995223  0
H  H16  1  0.57872373  0.58657367  0.75919007  1  0.128053  0  0.124985  0.090882  0  1.002865  0
H  H17  1  0.42126588  0.41342494  0.24081752  1  0.127938  0  0.12495  0.090833  0  1.002827  0
H  H18  1  0.24958573  0.27972809  0.11725273  1  0.04993  0  0.114046  0.093376  0  1.005713  0
H  H19  1  0.75041458  0.72027821  0.88274153  1  0.04992  0  0.114034  0.093346  0  1.005776  0
H  H20  1  0.15205960  0.31265532  0.23487207  1  0.12969  0  0.123885  0.113589  0  1.032718  0
H  H21  1  0.84794390  0.68734607  0.76512644  1  0.129743  0  0.123882  0.113552  0  1.032736  0
H  H22  1  0.10484543  0.08474609  0.37317578  1  0.255832  0  0.145352  0.134521  0  1.034393  0
H  H23  1  0.89515889  0.91525927  0.62682302  1  0.255873  0  0.145362  0.134539  0  1.034429  0
H  H24  1  0.94446547  0.93641589  0.15352798  1  0.144118  0  0.146004  0.116662  0  0.955807  0
H  H25  1  0.05552769  0.06359350  0.84647188  1  0.144003  0  0.145992  0.11664  0  0.955686  0
H  H26  1  0.50152411  0.23208600  0.57651112  1  0.113367  0  0.101307  0.111605  0  1.023767  0
H  H27  1  0.49849468  0.76793199  0.42347395  1  0.113102  0  0.101262  0.111619  0  1.023764  0
H  H28  1  0.78262045  0.11747640  0.32429709  1  0.101776  0  0.105524  0.122768  0  1.017702  0
H  H29  1  0.21738043  0.88251791  0.67569274  1  0.101478  0  0.105603  0.122868  0  1.017624  0
H  H30  1  0.35938985  0.11043004  0.32480349  1  0.071914  0  0.100465  0.108858  0  1.030026  0
H  H31  1  0.64060415  0.88955874  0.67521128  1  0.071917  0  0.100454  0.108896  0  1.029982  0
H  H32  1  0.53015787  0.01407398  0.22220478  1  0.624313  0  0.334731  0.36567  0  0.875329  0
H  H33  1  0.46983016  0.98591567  0.77780094  1  0.624493  0  0.334728  0.365726  0  0.875293  0
C  C34  1  0.04013947  0.53396323  0.88125694  1  0.015295  0  0.002477  0.02693  0  3.895309  0
C  C35  1  0.95986001  0.46603825  0.11874608  1  0.015114  0  0.002508  0.026953  0  3.89537  0
C  C36  1  0.10809551  0.42902718  0.95662994  1  0.070808  0  0.001577  0.019257  0  3.890315  0
C  C37  1  0.89190206  0.57097233  0.04337392  1  0.07077  0  0.001626  0.019383  0  3.89019  0
C  C38  1  0.06880730  0.39692053  0.07548593  1  -0.018715  0  0.002851  0.02437  0  3.90939  0
C  C39  1  0.93119115  0.60308190  0.92451453  1  -0.018301  0  0.00286  0.024295  0  3.909285  0
C  C40  1  0.08453053  0.57424327  0.75325040  1  0.26593  0  -0.050912  -0.157186  0  3.884915  0
C  C41  1  0.91546997  0.42575816  0.24675010  1  0.266025  0  -0.050946  -0.157164  0  3.884861  0
C  C42  1  0.07758022  0.41609954  0.64588880  1  0.961471  0  0.163134  0.077226  0  3.89466  0
C  C43  1  0.92241842  0.58389803  0.35411790  1  0.961694  0  0.16316  0.077147  0  3.894723  0
C  C44  1  0.86443535  0.41110663  0.66377594  1  0.950485  0  0.154008  0.145796  0  3.950245  0
C  C45  1  0.13556410  0.58889580  0.33622440  1  0.950084  0  0.153981  0.145773  0  3.950236  0
C  C46  1  0.21695952  0.34474386  0.91058227  1  0.290663  0  -0.042697  -0.133968  0  3.911761  0
C  C47  1  0.78303017  0.65525369  0.08942084  1  0.290907  0  -0.042752  -0.134051  0  3.91183  0
C  C48  1  0.45885353  0.33083332  0.94787606  1  0.968762  0  0.142624  0.063339  0  3.978743  0
C  C49  1  0.54114042  0.66915824  0.05212670  1  0.968784  0  0.142659  0.063501  0  3.978866  0
C  C50  1  0.51800189  0.50658594  0.81661684  1  0.948498  0  0.132978  0.138415  0  4.029151  0
C  C51  1  0.48199086  0.49340965  0.18338885  1  0.94891  0  0.133046  0.138545  0  4.028987  0
C  C52  1  0.14621588  0.28925191  0.15720594  1  0.296349  0  -0.044086  -0.142173  0  3.892569  0
C  C53  1  0.85378524  0.71075839  0.84279019  1  0.296331  0  -0.044067  -0.142093  0  3.892735  0
C  C54  1  0.07164092  0.07136296  0.29978505  1  0.962986  0  0.170337  0.097211  0  3.85326  0
C  C55  1  0.92836158  0.92863844  0.70021439  1  0.96302  0  0.170265  0.097095  0  3.853387  0
C  C56  1  0.99255155  0.99961225  0.18507889  1  1.004789  0  0.157702  0.155044  0  3.979677  0
C  C57  1  0.00744481  0.00039218  0.81492205  1  1.004831  0  0.157722  0.155055  0  3.979504  0
C  C58  1  0.41607064  0.17737948  0.45383142  1  -0.006624  0  -0.02078  -0.011132  0  4.019012  0
C  C59  1  0.58393582  0.82262197  0.54617147  1  -0.006699  0  -0.020768  -0.011139  0  4.019073  0
C  C60  1  0.52181143  0.20085103  0.50120626  1  0.012113  0  -0.089701  -0.138042  0  3.974533  0
C  C61  1  0.47819772  0.79915820  0.49878754  1  0.012903  0  -0.089724  -0.138151  0  3.974784  0
C  C62  1  0.65352924  0.17986819  0.45477975  1  -0.021729  0  -0.021523  -0.017948  0  4.004975  0
C  C63  1  0.34647806  0.82013895  0.54520694  1  -0.022342  0  -0.021553  -0.017866  0  4.005189  0
C  C64  1  0.68030934  0.13761664  0.35893958  1  -0.039711  0  -0.088814  -0.184675  0  3.884871  0
C  C65  1  0.31969239  0.86238066  0.64105163  1  -0.039184  0  -0.088928  -0.184906  0  3.884871  0
C  C66  1  0.57426962  0.11249146  0.31237574  1  0.458958  0  0.078521  0.312246  0  4.079619  0
C  C67  1  0.42572409  0.88750599  0.68762208  1  0.458669  0  0.078536  0.312322  0  4.079473  0
C  C68  1  0.44228611  0.13292473  0.35919710  1  -0.0543  0  -0.099169  -0.236702  0  3.972434  0
C  C69  1  0.55771159  0.86707181  0.64080684  1  -0.054204  0  -0.099137  -0.236739  0  3.972378  0
C  C70  1  0.27701714  0.19381058  0.51069563  1  1.549599  0  0.198007  0.564651  0  4.210355  0
C  C71  1  0.72299033  0.80618995  0.48931220  1  1.549425  0  0.198074  0.564736  0  4.210079  0
C  C72  1  0.76207383  0.19238605  0.51747503  1  1.551579  0  0.194118  0.559739  0  4.21352  0
C  C73  1  0.23794160  0.80761895  0.48250405  1  1.552877  0  0.194504  0.560144  0  4.213483  0
N  N74  1  0.98163004  0.35803491  0.62132688  1  -1.237773  0  -0.352929  -0.320393  0  3.587371  0
N  N75  1  0.01836952  0.64196460  0.37867752  1  -1.237823  0  -0.352909  -0.320369  0  3.587289  0
N  N76  1  0.01964755  0.49909366  0.70069881  1  -0.852844  0  -0.130223  0.17633  0  3.731883  0
N  N77  1  0.98035298  0.50090681  0.29930357  1  -0.852872  0  -0.130201  0.176358  0  3.731813  0
N  N78  1  0.88386159  0.49760358  0.71279241  1  -0.641707  0  -0.210794  -0.241356  0  3.104713  0
N  N79  1  0.11613978  0.50240081  0.28720708  1  -0.641601  0  -0.210795  -0.241336  0  3.104738  0
N  N80  1  0.56519820  0.40310191  0.90158107  1  -1.142799  0  -0.351829  -0.342564  0  3.235211  0
N  N81  1  0.43479460  0.59689267  0.09842412  1  -1.143117  0  -0.351807  -0.342633  0  3.235421  0
N  N82  1  0.35266792  0.38880710  0.89298186  1  -0.79683  0  -0.141413  0.150933  0  3.744356  0
N  N83  1  0.64732695  0.61118642  0.10701938  1  -0.797524  0  -0.141424  0.150742  0  3.744746  0
N  N84  1  0.38968829  0.50237486  0.80780398  1  -0.681865  0  -0.229438  -0.275901  0  3.1216  0
N  N85  1  0.61030560  0.49761772  0.19220007  1  -0.681634  0  -0.229522  -0.275902  0  3.121445  0
N  N86  1  0.01184841  0.96793687  0.29678463  1  -1.228765  0  -0.345404  -0.306428  0  3.570621  0
N  N87  1  0.98815109  0.03206456  0.70321521  1  -1.228968  0  -0.345316  -0.306232  0  3.570552  0
N  N88  1  0.08628022  0.16062841  0.19395258  1  -0.825113  0  -0.133876  0.168636  0  3.715461  0
N  N89  1  0.91372524  0.83937395  0.80604538  1  -0.82505  0  -0.133868  0.168695  0  3.715593  0
N  N90  1  0.03708147  0.11651812  0.11901508  1  -0.695372  0  -0.226348  -0.277154  0  3.094285  0
N  N91  1  0.96291795  0.88348527  0.88098337  1  -0.695337  0  -0.226409  -0.277253  0  3.094402  0
O  O92  1  0.17884948  0.18591174  0.45888322  1  -1.186456  0  -0.338207  -0.563148  0  2.318663  0
O  O93  1  0.82115553  0.81409966  0.54112084  1  -1.186606  0  -0.338225  -0.563228  0  2.318662  0
O  O94  1  0.25813409  0.21337444  0.60540621  1  -1.180137  0  -0.328623  -0.563233  0  2.155996  0
O  O95  1  0.74187585  0.78661522  0.39460538  1  -1.179945  0  -0.328665  -0.563246  0  2.155847  0
O  O96  1  0.73265944  0.20286834  0.61533169  1  -1.18277  0  -0.337291  -0.566238  0  2.11782  0
O  O97  1  0.26736448  0.79714751  0.38464457  1  -1.183742  0  -0.337524  -0.566501  0  2.117813  0
O  O98  1  0.88460185  0.18856634  0.46621524  1  -1.177801  0  -0.338817  -0.566679  0  2.331082  0
O  O99  1  0.11541504  0.81142780  0.53376773  1  -1.177893  0  -0.33892  -0.566845  0  2.331157  0
O  O100  1  0.60418215  0.06521937  0.22149099  1  -1.146021  0  -0.363493  -0.46062  0  2.233995  0
O  O101  1  0.39580691  0.93477020  0.77850983  1  -1.14612  0  -0.363487  -0.46069  0  2.234041  0
