# generated using pymatgen
data_CoH20C19(NO)4
_symmetry_space_group_name_H-M   'P 1'
_cell_length_a   9.76447354
_cell_length_b   9.94880475
_cell_length_c   12.15498348
_cell_angle_alpha   82.75270728
_cell_angle_beta   76.51029509
_cell_angle_gamma   61.85751171
_symmetry_Int_Tables_number   1
_chemical_formula_structural   CoH20C19(NO)4
_chemical_formula_sum   'Co2 H40 C38 N8 O8'
_cell_volume   1012.29354784
_cell_formula_units_Z   2
loop_
 _symmetry_equiv_pos_site_id
 _symmetry_equiv_pos_as_xyz
  1  'x, y, z'
loop_
 _atom_site_type_symbol
 _atom_site_label
 _atom_site_symmetry_multiplicity
 _atom_site_fract_x
 _atom_site_fract_y
 _atom_site_fract_z
 _atom_site_occupancy
 _atom_site_hle17_ddec_charge
 _atom_site_hle17_ddec_spin_density
 _atom_site_hle17_ddec_sum_bond_order
 _atom_site_hle17_magmom
 _atom_site_hse06_10hf_ddec_charge
 _atom_site_hse06_10hf_ddec_spin_density
 _atom_site_hse06_10hf_ddec_sum_bond_order
 _atom_site_hse06_10hf_magmom
 _atom_site_hse06_ddec_charge
 _atom_site_hse06_ddec_spin_density
 _atom_site_hse06_ddec_sum_bond_order
 _atom_site_hse06_magmom
 _atom_site_pbe_cm5_charge
 _atom_site_pbe_ddec_charge
 _atom_site_pbe_ddec_spin_density
 _atom_site_pbe_ddec_sum_bond_order
 _atom_site_pbe_magmom
Co  Co0  1  0.40714570  0.97395121  0.19000269  1  0.916444  2.824478  2.020088  2.539  0.855891  2.827114  2.469744  2.595  0.949767  2.872288  2.381618  2.683  0.684114  0.779469  2.781838  2.540357  2.514
Co  Co1  1  0.59285414  0.02604862  0.80999783  1  0.916464  2.824479  2.02001  2.539  0.855906  2.82711  2.46966  2.595  0.949805  2.872285  2.381503  2.683  0.684117  0.779483  2.781838  2.540272  2.514
H  H2  1  0.08501939  0.17527808  0.95546747  1  0.107229  0.000158  0.943885  0.0  0.119239  2.1e-05  1.002043  0.0  0.122842  -1.9e-05  0.999436  0.0  0.108237  0.116388  6.6e-05  1.004082  0.0
H  H3  1  0.91498261  0.82471948  0.04453288  1  0.10723  0.00016  0.943938  0.0  0.119242  2.1e-05  1.002088  0.0  0.122844  -2e-05  0.999483  0.0  0.108248  0.116388  6.6e-05  1.00413  0.0
H  H4  1  0.86225930  0.50320114  0.21930276  1  0.111944  9.1e-05  0.964391  0.0  0.11916  0.000106  1.029675  0.0  0.123521  5.5e-05  1.025859  0.0  0.109565  0.115914  0.000241  1.033015  0.0
H  H5  1  0.13774104  0.49679984  0.78069756  1  0.111931  9.3e-05  0.96439  0.0  0.119152  0.000106  1.029671  0.0  0.123513  5.6e-05  1.025855  0.0  0.109555  0.115905  0.000241  1.033009  0.0
H  H6  1  0.13692697  0.15400675  0.36016871  1  0.301442  -0.000122  0.959043  0.0  0.277293  0.000111  1.026906  0.0  0.286945  7.4e-05  1.01893  0.0  0.313437  0.270491  0.000145  1.032547  0.0
H  H7  1  0.86307336  0.84599423  0.63982996  1  0.301386  -0.000122  0.959159  0.0  0.277296  0.000111  1.026915  0.0  0.286947  7.4e-05  1.01894  0.0  0.31344  0.270492  0.000145  1.032557  0.0
H  H8  1  0.64649470  0.57979364  0.93253119  1  0.092422  0.000141  0.987518  0.0  0.100085  5.4e-05  1.0583  0.0  0.103006  2.7e-05  1.056691  0.0  0.101947  0.098182  8.4e-05  1.058597  0.0
H  H9  1  0.35350724  0.42020621  0.06746894  1  0.092414  0.000143  0.98756  0.0  0.100072  5.4e-05  1.058349  0.0  0.102993  2.7e-05  1.05674  0.0  0.101941  0.098168  8.4e-05  1.058652  0.0
H  H10  1  0.47793834  0.71805167  0.39970340  1  0.118352  -0.000106  0.93989  0.0  0.129745  -9.8e-05  0.996435  0.0  0.132989  -9.9e-05  0.992976  0.0  0.124492  0.127155  -0.000113  0.999378  0.0
H  H11  1  0.52206045  0.28194815  0.60029732  1  0.118355  -0.000105  0.939865  0.0  0.129719  -9.8e-05  0.996443  0.0  0.132963  -9.9e-05  0.992984  0.0  0.12449  0.12714  -0.000113  0.999374  0.0
H  H12  1  0.02107028  0.07044719  0.84741882  1  0.095579  -5e-06  0.965394  0.0  0.115971  2.6e-05  1.028593  0.0  0.117048  2.1e-05  1.029638  0.0  0.082692  0.114224  4e-05  1.02968  0.0
H  H13  1  0.97892851  0.92955263  0.15258107  1  0.095576  -5e-06  0.965372  0.0  0.115966  2.6e-05  1.028578  0.0  0.117044  2.1e-05  1.029621  0.0  0.082693  0.114225  4e-05  1.029658  0.0
H  H14  1  0.89485721  0.10565748  0.75204447  1  0.09175  4.5e-05  0.966272  0.0  0.110012  0.000178  1.03438  0.0  0.110602  0.000118  1.035781  0.0  0.082013  0.109739  0.000249  1.033356  0.0
H  H15  1  0.10514263  0.89434235  0.24795523  1  0.091738  4.5e-05  0.966329  0.0  0.109999  0.000178  1.034437  0.0  0.11059  0.000117  1.035837  0.0  0.082001  0.109724  0.000249  1.033416  0.0
H  H16  1  0.81638563  0.12550275  0.89884137  1  0.103792  -4.1e-05  0.963876  0.0  0.121997  1.2e-05  1.029976  0.0  0.123621  -3e-05  1.030355  0.0  0.083658  0.120856  5.7e-05  1.029663  0.0
H  H17  1  0.18361316  0.87449706  0.10116017  1  0.103802  -4.1e-05  0.963895  0.0  0.121996  1.2e-05  1.03  0.0  0.12362  -3e-05  1.030378  0.0  0.083653  0.120852  5.7e-05  1.02969  0.0
H  H18  1  0.36116813  0.64911789  0.62019908  1  0.08913  3.1e-05  0.906534  0.0  0.110175  2.4e-05  0.956536  0.0  0.110824  -6e-06  0.956458  0.0  0.102804  0.109715  4.4e-05  0.956648  0.0
H  H19  1  0.63882961  0.35088192  0.37980183  1  0.089123  3.1e-05  0.906592  0.0  0.110187  2.4e-05  0.956585  0.0  0.110835  -5e-06  0.956507  0.0  0.102801  0.109721  4.4e-05  0.9567  0.0
H  H20  1  0.16766538  0.77679162  0.68253603  1  0.095993  0.000185  0.933204  0.0  0.110423  7.8e-05  0.994932  0.0  0.111113  3.4e-05  0.995299  0.0  0.099732  0.109898  0.000175  0.994845  0.0
H  H21  1  0.83233335  0.22321049  0.31746365  1  0.095981  0.000185  0.933112  0.0  0.110385  7.8e-05  0.994901  0.0  0.111073  3.3e-05  0.995269  0.0  0.099701  0.109861  0.000175  0.994814  0.0
H  H22  1  0.67803595  0.52459054  0.76078926  1  0.098454  -8e-06  0.958754  0.0  0.11931  -9e-06  1.018269  0.0  0.120497  -1e-05  1.01894  0.0  0.084722  0.118036  -7e-06  1.018919  0.0
H  H23  1  0.32196599  0.47540931  0.23921005  1  0.098444  -8e-06  0.95878  0.0  0.119309  -9e-06  1.018285  0.0  0.120496  -1e-05  1.018957  0.0  0.084724  0.118038  -7e-06  1.018937  0.0
H  H24  1  0.60583197  0.40388263  0.84754125  1  0.095925  -7.2e-05  0.969484  0.0  0.113835  -5.7e-05  1.037122  0.0  0.115036  -6.9e-05  1.037962  0.0  0.080096  0.112946  -5.2e-05  1.036555  0.0
H  H25  1  0.39416836  0.59611835  0.15245906  1  0.09592  -7.2e-05  0.969477  0.0  0.113821  -5.7e-05  1.037137  0.0  0.115023  -6.9e-05  1.037976  0.0  0.080094  0.112929  -5.2e-05  1.036574  0.0
H  H26  1  0.70543815  0.35505946  0.70560843  1  0.094411  -0.000113  0.960133  0.0  0.114401  -6.3e-05  1.024135  0.0  0.11538  -5.7e-05  1.02474  0.0  0.08254  0.113997  -8.6e-05  1.023483  0.0
H  H27  1  0.29456379  0.64494040  0.29439087  1  0.094429  -0.000113  0.96012  0.0  0.114425  -6.2e-05  1.024118  0.0  0.115405  -5.8e-05  1.024721  0.0  0.082562  0.114021  -8.6e-05  1.023467  0.0
H  H28  1  0.05356810  0.08985987  0.57554322  1  0.108471  0.000228  0.963196  0.001  0.121002  0.000178  1.022794  0.0  0.123413  0.00013  1.0207  0.0  0.124848  0.119093  0.00022  1.024561  0.0
H  H29  1  0.94643014  0.91014109  0.42445501  1  0.108465  0.000228  0.963182  0.001  0.120993  0.000178  1.022785  0.0  0.123403  0.00013  1.020691  0.0  0.124851  0.119085  0.00022  1.024554  0.0
H  H30  1  0.96692809  0.45389919  0.71797809  1  0.114892  -2e-06  0.962049  0.0  0.134014  -1e-06  1.023721  0.0  0.1361  -6e-06  1.023006  0.0  0.085929  0.132638  4e-06  1.024194  0.0
H  H31  1  0.03307335  0.54609951  0.28202225  1  0.114889  -2e-06  0.962057  0.0  0.134017  -1e-06  1.023724  0.0  0.136104  -6e-06  1.023007  0.0  0.085928  0.132639  4e-06  1.024197  0.0
H  H32  1  0.99174650  0.29904532  0.64385012  1  0.088102  8e-06  0.964827  0.0  0.110133  -4e-06  1.025094  0.0  0.110977  -4e-06  1.025556  0.0  0.080457  0.109782  -4e-06  1.024431  0.0
H  H33  1  0.00825599  0.70095339  0.35615002  1  0.088113  8e-06  0.964843  0.0  0.110151  -4e-06  1.025101  0.0  0.110995  -4e-06  1.025563  0.0  0.080475  0.109797  -4e-06  1.02444  0.0
H  H34  1  0.11101077  0.26536611  0.74515333  1  0.112172  -1.2e-05  0.961915  0.0  0.130696  -3e-06  1.025539  0.0  0.13269  -1.6e-05  1.02538  0.0  0.085224  0.129442  1.6e-05  1.025526  0.0
H  H35  1  0.88898907  0.73463372  0.25484719  1  0.112183  -1.2e-05  0.961887  0.0  0.130693  -3e-06  1.025526  0.0  0.132687  -1.7e-05  1.025367  0.0  0.085228  0.12944  1.6e-05  1.025512  0.0
H  H36  1  0.45234609  0.82189793  0.95485705  1  0.301511  -1.9e-05  0.93968  0.0  0.278727  0.000193  1.005943  0.0  0.288172  2.5e-05  0.998311  0.0  0.320038  0.272121  0.000386  1.011215  0.001
H  H37  1  0.54765375  0.17810190  0.04514265  1  0.301489  -1.9e-05  0.939694  0.0  0.278703  0.000193  1.005953  0.0  0.288152  2.5e-05  0.998323  0.0  0.320041  0.2721  0.000386  1.011221  0.001
H  H38  1  0.30250862  0.70239801  0.88994861  1  0.101288  0.000128  0.99608  0.0  0.108387  0.000268  1.066965  0.0  0.109421  0.000205  1.068155  0.0  0.117734  0.107937  0.000343  1.065647  0.0
H  H39  1  0.69749017  0.29760181  0.11005047  1  0.101237  0.000129  0.996145  0.0  0.108349  0.000268  1.067013  0.0  0.109381  0.000205  1.068201  0.0  0.117726  0.107903  0.000343  1.065691  0.0
H  H40  1  0.44858609  0.96915362  0.62341852  1  0.108342  -0.000255  0.94209  0.0  0.117919  -5.1e-05  1.003184  0.0  0.119727  -5.7e-05  1.001948  0.0  0.123095  0.116857  -4.2e-05  1.003732  0.0
H  H41  1  0.55141264  0.03084849  0.37658116  1  0.108293  -0.000255  0.942048  0.0  0.117863  -5.1e-05  1.003158  0.0  0.11967  -5.8e-05  1.001922  0.0  0.123071  0.116801  -4.2e-05  1.003698  0.0
C  C42  1  0.98646302  0.28225586  0.98931790  1  -0.085675  -0.00876  3.657415  -0.005  -0.119908  -0.003338  3.902304  -0.002  -0.117027  -0.002428  3.919723  -0.001  -0.072539  -0.119144  -0.000848  3.888831  0.0
C  C43  1  0.01353682  0.71774397  0.01068262  1  -0.085689  -0.008847  3.657443  -0.005  -0.119921  -0.003339  3.902334  -0.002  -0.117039  -0.002426  3.919749  -0.001  -0.072533  -0.119154  -0.000848  3.888863  0.0
C  C44  1  0.74278314  0.55816310  0.07969906  1  -0.076364  0.00317  3.807057  0.004  -0.049579  0.00117  4.041258  0.001  -0.058747  0.000651  4.063661  0.001  -0.023395  -0.044144  0.001329  4.028167  0.001
C  C45  1  0.25721615  0.44183787  0.92030145  1  -0.076338  0.003206  3.807038  0.004  -0.049559  0.001171  4.041256  0.001  -0.058727  0.00065  4.063661  0.001  -0.023391  -0.04411  0.001329  4.028136  0.001
C  C46  1  0.86322511  0.46641733  0.13864097  1  -0.067195  0.000214  3.712986  0.001  -0.105223  0.002143  3.960663  0.003  -0.103076  0.001299  3.980498  0.002  -0.0753  -0.108766  0.000831  3.950314  0.001
C  C47  1  0.13677522  0.53358365  0.86135852  1  -0.067157  0.000149  3.712983  0.001  -0.10519  0.00214  3.960672  0.003  -0.103041  0.001301  3.980506  0.002  -0.075286  -0.10873  0.000831  3.95031  0.001
C  C48  1  0.62222040  0.70751884  0.12976236  1  0.628284  -0.010664  3.877484  -0.008  0.582383  -0.001411  4.169921  -0.002  0.618891  -0.001475  4.16706  -0.001  0.205887  0.555276  -0.00233  4.172429  -0.003
C  C49  1  0.37778105  0.29247986  0.87023798  1  0.62824  -0.010672  3.877528  -0.008  0.582338  -0.001411  4.169966  -0.002  0.618844  -0.001472  4.167109  -0.001  0.205889  0.555226  -0.00233  4.172471  -0.003
C  C50  1  0.98598109  0.32890793  0.09339578  1  -0.075343  0.005124  3.780063  0.008  -0.048452  0.002366  4.014078  0.004  -0.058506  0.001699  4.03822  0.003  -0.019509  -0.04244  0.002427  3.999457  0.004
C  C51  1  0.01401980  0.67109191  0.90660455  1  -0.075395  0.00516  3.780103  0.008  -0.048513  0.002368  4.014129  0.004  -0.058566  0.001698  4.038271  0.003  -0.019535  -0.042504  0.002426  3.999515  0.004
C  C52  1  0.74225588  0.50836857  0.97687298  1  -0.105344  -0.007788  3.686412  -0.005  -0.140596  -0.002747  3.935798  -0.001  -0.138221  -0.001938  3.953631  -0.001  -0.083137  -0.139614  -9.3e-05  3.921245  0.0
C  C53  1  0.25774605  0.49163128  0.02312715  1  -0.105383  -0.00787  3.686445  -0.005  -0.140631  -0.002747  3.935838  -0.001  -0.138256  -0.001939  3.953671  -0.001  -0.083146  -0.139655  -9.3e-05  3.921289  0.0
C  C54  1  0.86293270  0.36941883  0.93050845  1  0.036363  0.001661  3.645277  0.003  0.061062  5.2e-05  3.87368  0.0  0.057833  0.000129  3.897584  0.0  0.000188  0.062137  5.7e-05  3.856638  0.0
C  C55  1  0.13706819  0.63058101  0.06949188  1  0.03644  0.001699  3.645244  0.003  0.061143  5.2e-05  3.873636  0.0  0.057915  0.000131  3.897539  0.0  0.00021  0.062218  5.7e-05  3.856594  0.0
C  C56  1  0.86407365  0.31362883  0.81828013  1  0.203378  -3.3e-05  3.596294  0.0  0.239462  4.5e-05  3.813648  0.0  0.240471  2e-05  3.8339  0.0  -0.013966  0.23909  2.2e-05  3.799696  0.0
C  C57  1  0.13592724  0.68637101  0.18171938  1  0.203357  -3.8e-05  3.596346  0.0  0.239445  4.5e-05  3.813691  0.0  0.240448  1.8e-05  3.833967  0.0  -0.013979  0.239079  2.2e-05  3.799726  0.0
C  C58  1  0.26942531  0.86295833  0.53294018  1  -0.015937  0.004435  3.805324  0.006  0.009405  0.002123  4.056754  0.003  0.001706  0.001501  4.082153  0.002  -0.03074  0.014386  0.002891  4.039801  0.004
C  C59  1  0.73057238  0.13704377  0.46706051  1  -0.015969  0.004434  3.805323  0.006  0.009379  0.002123  4.056763  0.003  0.00168  0.001502  4.08216  0.002  -0.030777  0.014364  0.002891  4.039802  0.004
C  C60  1  0.37101105  0.82235351  0.42635333  1  -0.015167  -0.011  3.706179  -0.006  -0.059581  -0.000898  3.978413  0.001  -0.049765  -0.0009  3.993125  0.001  0.014379  -0.066751  -0.001242  3.968795  0.001
C  C61  1  0.62898879  0.17764632  0.57364637  1  -0.015171  -0.010997  3.706194  -0.006  -0.059556  -0.000897  3.978441  0.001  -0.049741  -0.0009  3.993153  0.001  0.014382  -0.066744  -0.001241  3.968822  0.001
C  C62  1  0.90173281  0.14428544  0.83050351  1  -0.340842  0.000173  3.660489  0.0  -0.419618  0.00052  3.898454  0.0  -0.423419  0.000388  3.910185  0.0  -0.247116  -0.416441  0.000626  3.890736  0.0
C  C63  1  0.09826808  0.85571441  0.16949599  1  -0.340839  0.000174  3.660591  0.0  -0.419606  0.00052  3.898544  0.0  -0.423405  0.000391  3.910274  0.0  -0.247101  -0.416426  0.000626  3.890822  0.0
C  C64  1  0.28346811  0.77017927  0.64074475  1  -0.141434  0.000758  3.766959  0.001  -0.190217  0.000642  4.010657  0.001  -0.189048  0.000441  4.02496  0.001  -0.144954  -0.190726  0.00083  4.00076  0.001
C  C65  1  0.71652748  0.22982280  0.35925716  1  -0.141377  0.000758  3.766849  0.001  -0.190183  0.000641  4.010604  0.001  -0.189014  0.00044  4.024908  0.001  -0.144908  -0.190685  0.00083  4.000701  0.001
C  C66  1  0.70357157  0.40542799  0.78169173  1  -0.343406  -6.5e-05  3.676876  0.0  -0.420066  -9e-06  3.910694  0.0  -0.423252  -3.3e-05  3.921664  0.0  -0.248864  -0.417536  2e-06  3.903591  0.0
C  C67  1  0.29642932  0.59457185  0.21830859  1  -0.34341  -6.4e-05  3.676907  0.0  -0.420081  -9e-06  3.910714  0.0  -0.423265  -3.1e-05  3.921682  0.0  -0.248888  -0.417548  2e-06  3.903613  0.0
C  C68  1  0.15502841  0.01213170  0.51705351  1  -0.00311  -0.004424  3.676294  -0.002  -0.058377  0.00161  3.941155  0.002  -0.049602  0.001044  3.954857  0.002  0.021123  -0.064153  0.002097  3.932371  0.003
C  C69  1  0.84496983  0.98786926  0.48294637  1  -0.00306  -0.004421  3.676288  -0.002  -0.058333  0.001611  3.941143  0.002  -0.049558  0.001044  3.954845  0.002  0.021142  -0.064118  0.002097  3.932364  0.003
C  C70  1  0.99189269  0.33366135  0.72623063  1  -0.346024  8.1e-05  3.644723  0.0  -0.420087  3.5e-05  3.872115  0.0  -0.424004  1.5e-05  3.882663  0.0  -0.245514  -0.416909  6.3e-05  3.86409  0.0
C  C71  1  0.00810980  0.66633736  0.27376952  1  -0.346038  8.3e-05  3.644764  0.0  -0.420103  3.5e-05  3.872168  0.0  -0.424018  1.7e-05  3.882715  0.0  -0.245526  -0.416921  6.3e-05  3.864143  0.0
C  C72  1  0.11181636  0.23460092  0.16082937  1  0.648099  -0.007071  3.88271  -0.006  0.602909  0.000962  4.180725  0.0  0.639492  0.000658  4.174919  0.0  0.213461  0.576503  0.000936  4.185358  0.0
C  C73  1  0.88818502  0.76540007  0.83917157  1  0.648091  -0.007079  3.882717  -0.006  0.60292  0.000961  4.180713  0.0  0.639503  0.000657  4.174906  0.0  0.213478  0.57651  0.000935  4.185352  0.0
C  C74  1  0.34894280  0.77289906  0.83571309  1  0.002839  0.005104  3.646872  0.007  -0.050525  0.005757  3.907697  0.007  -0.042218  0.004511  3.922197  0.006  0.023953  -0.05639  0.007339  3.900094  0.009
C  C75  1  0.65105439  0.22710188  0.16428699  1  0.002874  0.005097  3.646888  0.007  -0.050498  0.005756  3.907698  0.007  -0.042179  0.00451  3.922197  0.006  0.023976  -0.056363  0.007339  3.900098  0.009
C  C76  1  0.34790144  0.81677897  0.72200526  1  -0.013752  0.001935  3.779458  0.003  0.012631  0.000838  4.026102  0.001  0.004368  0.0  4.052285  0.0  -0.02709  0.017915  0.001613  4.010131  0.002
C  C77  1  0.65209576  0.18322198  0.27799400  1  -0.013766  0.001941  3.779432  0.003  0.012622  0.000839  4.026096  0.001  0.004359  4e-06  4.052278  0.0  -0.027093  0.017896  0.001613  4.010134  0.002
C  C78  1  0.42517662  0.90884831  0.70043222  1  -0.005544  -0.002113  3.703349  0.0  -0.051796  0.003109  3.979577  0.005  -0.0431  0.0026  3.997199  0.004  0.018077  -0.057844  0.003444  3.96709  0.006
C  C79  1  0.57482162  0.09115265  0.29956766  1  -0.005426  -0.002125  3.703222  0.0  -0.051668  0.003109  3.979454  0.005  -0.042971  0.002601  3.997073  0.004  0.018162  -0.057709  0.003443  3.966959  0.006
N  N80  1  0.32066756  0.93838321  0.35107415  1  -0.253287  0.039932  3.304568  0.065  -0.226728  0.028282  3.629604  0.038  -0.252125  0.022154  3.646213  0.03  -0.269029  -0.20709  0.033926  3.618267  0.046
N  N81  1  0.67933333  0.06161663  0.64892535  1  -0.253294  0.039931  3.304631  0.065  -0.22675  0.028283  3.629667  0.038  -0.252152  0.022156  3.646275  0.03  -0.269024  -0.207109  0.033927  3.618329  0.046
N  N82  1  0.18933183  0.05269035  0.40819324  1  -0.16092  6.8e-05  3.491412  0.0  -0.097685  0.001395  3.733791  0.002  -0.109483  0.001152  3.754285  0.002  -0.27832  -0.090375  0.001481  3.719752  0.002
N  N83  1  0.81066802  0.94730948  0.59180563  1  -0.160915  6.6e-05  3.491535  0.0  -0.097686  0.001394  3.733849  0.002  -0.109484  0.001152  3.754344  0.002  -0.278326  -0.090374  0.001481  3.719807  0.002
N  N84  1  0.42362120  0.83565481  0.87529907  1  -0.146529  -0.001936  3.478027  -0.002  -0.083236  0.000237  3.720838  0.001  -0.09329  -0.000362  3.737968  0.0  -0.275791  -0.077362  0.001004  3.710317  0.002
N  N85  1  0.57637759  0.16434501  0.12470083  1  -0.146535  -0.001933  3.478008  -0.002  -0.083222  0.000234  3.720807  0.001  -0.093298  -0.000368  3.737958  0.0  -0.275828  -0.077347  0.001004  3.710286  0.002
N  N86  1  0.47140298  0.91889230  0.79400283  1  -0.234188  0.03991  3.28715  0.064  -0.213064  0.028581  3.617432  0.038  -0.23822  0.022056  3.631962  0.028  -0.265894  -0.193013  0.034635  3.607261  0.046
N  N87  1  0.52859686  0.08110752  0.20599770  1  -0.234208  0.039915  3.28713  0.064  -0.213097  0.028583  3.617419  0.038  -0.238241  0.022057  3.631957  0.028  -0.265917  -0.193047  0.034635  3.60725  0.046
O  O88  1  0.63206864  0.74831747  0.22026844  1  -0.587549  0.026947  1.968896  0.052  -0.547466  0.023539  2.203491  0.044  -0.582068  0.016731  2.198648  0.033  -0.293914  -0.51994  0.030426  2.205979  0.055
O  O89  1  0.36793070  0.25168120  0.77973229  1  -0.587543  0.026952  1.968883  0.052  -0.547461  0.02354  2.20348  0.044  -0.582068  0.01673  2.198635  0.033  -0.293915  -0.519937  0.030428  2.205973  0.055
O  O90  1  0.50387500  0.79994202  0.08105318  1  -0.621455  0.048794  2.063676  0.081  -0.576209  0.036818  2.33365  0.056  -0.618522  0.027177  2.323361  0.041  -0.317619  -0.542932  0.045981  2.341179  0.069
O  O91  1  0.49612540  0.20005667  0.91894654  1  -0.621415  0.048794  2.063695  0.081  -0.576168  0.036816  2.33368  0.056  -0.618483  0.027175  2.323391  0.041  -0.317615  -0.542897  0.045978  2.341214  0.069
O  O92  1  0.23403535  0.11687243  0.11299115  1  -0.611758  0.049823  2.067827  0.085  -0.576591  0.037731  2.354553  0.057  -0.617439  0.028718  2.340945  0.043  -0.324627  -0.545056  0.045695  2.365359  0.068
O  O93  1  0.76596449  0.88312740  0.88701102  1  -0.611744  0.049825  2.067827  0.085  -0.576583  0.037731  2.354543  0.057  -0.617436  0.028719  2.340933  0.043  -0.324643  -0.545046  0.045694  2.365347  0.068
O  O94  1  0.08919664  0.27516716  0.26077086  1  -0.615811  0.001051  1.975161  0.003  -0.571274  0.002373  2.196975  0.004  -0.595336  0.001586  2.187118  0.003  -0.317139  -0.553575  0.003255  2.203673  0.006
O  O95  1  0.91080419  0.72483498  0.73922925  1  -0.615767  0.001055  1.97516  0.003  -0.571269  0.002373  2.196961  0.004  -0.595332  0.001585  2.187101  0.003  -0.317132  -0.55357  0.003255  2.203662  0.006
