# generated using pymatgen
data_CsH2C3(SN)3
_symmetry_space_group_name_H-M   'P 1'
_cell_length_a   5.37902871
_cell_length_b   10.98363763
_cell_length_c   14.93573188
_cell_angle_alpha   89.45630354
_cell_angle_beta   87.54666280
_cell_angle_gamma   75.84179575
_symmetry_Int_Tables_number   1
_chemical_formula_structural   CsH2C3(SN)3
_chemical_formula_sum   'Cs4 H8 C12 S12 N12'
_cell_volume   854.83337022
_cell_formula_units_Z   4
loop_
 _symmetry_equiv_pos_site_id
 _symmetry_equiv_pos_as_xyz
  1  'x, y, z'
loop_
 _atom_site_type_symbol
 _atom_site_label
 _atom_site_symmetry_multiplicity
 _atom_site_fract_x
 _atom_site_fract_y
 _atom_site_fract_z
 _atom_site_occupancy
 _atom_site_hle17_bader_spin_density
 _atom_site_hle17_ddec_charge
 _atom_site_hle17_ddec_spin_density
 _atom_site_hle17_ddec_sum_bond_order
 _atom_site_hle17_magmom
 _atom_site_hse06_10hf_bader_spin_density
 _atom_site_hse06_10hf_ddec_charge
 _atom_site_hse06_10hf_ddec_spin_density
 _atom_site_hse06_10hf_ddec_sum_bond_order
 _atom_site_hse06_10hf_magmom
 _atom_site_hse06_bader_spin_density
 _atom_site_hse06_ddec_charge
 _atom_site_hse06_ddec_spin_density
 _atom_site_hse06_ddec_sum_bond_order
 _atom_site_hse06_magmom
 _atom_site_pbe_bader_spin_density
 _atom_site_pbe_cm5_charge
 _atom_site_pbe_ddec_charge
 _atom_site_pbe_ddec_spin_density
 _atom_site_pbe_ddec_sum_bond_order
 _atom_site_pbe_magmom
Cs  Cs0  1  0.62534699  0.02198465  0.75910035  1  0  0.834163  0  0.742257  0  0  0.759846  0  1.024634  0  0  0.773045  0  1.007209  0  0  0.75333  0.749799  0  1.037607  0
Cs  Cs1  1  0.64830569  0.97762806  0.25920668  1  0  0.83477  0  0.740852  0  0  0.760765  0  1.022518  0  0  0.773863  0  1.005261  0  0  0.752834  0.749815  0  1.036511  0
Cs  Cs2  1  0.10463215  0.23072710  0.97356806  1  0  0.865905  0  0.661948  0  0  0.800431  0  0.932956  0  0  0.814207  0  0.913895  0  0  0.647996  0.791076  0  0.945858  0
Cs  Cs3  1  0.33378657  0.76942272  0.47348051  1  0  0.867321  0  0.661531  0  0  0.802961  0  0.931196  0  0  0.816398  0  0.912495  0  0  0.648887  0.791526  0  0.946363  0
H  H4  1  0.93899713  0.79778669  0.06098006  1  0  0.286247  0  0.946542  0  0  0.263179  0  1.023985  0  0  0.273104  0  1.016184  0  0  0.273725  0.256132  0  1.029781  0
H  H5  1  0.73519393  0.20206598  0.56175202  1  0  0.286038  0  0.94711  0  0  0.262886  0  1.02497  0  0  0.272798  0  1.017159  0  0  0.273607  0.255856  0  1.030649  0
H  H6  1  0.21279113  0.61105559  0.77879641  1  0  0.28876  0  0.944308  0  0  0.264667  0  1.022757  0  0  0.274755  0  1.014705  0  0  0.273168  0.257562  0  1.028467  0
H  H7  1  0.82251447  0.38896611  0.27872627  1  0  0.28754  0  0.945938  0  0  0.264026  0  1.023701  0  0  0.274074  0  1.01571  0  0  0.272919  0.256797  0  1.029509  0
H  H8  1  0.53487090  0.60886955  0.90991258  1  0  0.290192  0  0.941612  0  0  0.2659  0  1.020128  0  0  0.276002  0  1.012084  0  0  0.274061  0.258838  0  1.025705  0
H  H9  1  0.14566899  0.39110755  0.40952649  1  0  0.290221  0  0.940606  0  0  0.26605  0  1.01925  0  0  0.276184  0  1.01109  0  0  0.274162  0.259064  0  1.024798  0
H  H10  1  0.82131955  0.42544906  0.61982033  1  0  0.290167  0  0.934409  0  0  0.267706  0  1.010374  0  0  0.277417  0  1.002602  0  0  0.279181  0.260813  0  1.01605  0
H  H11  1  0.24602122  0.57466941  0.11985901  1  0  0.29042  0  0.933323  0  0  0.267734  0  1.009395  0  0  0.277487  0  1.001644  0  0  0.279278  0.260739  0  1.015323  0
C  C12  1  0.99524947  0.53735533  0.69339350  1  0  0.483661  0  3.791206  0  0  0.437745  0  4.087033  0  0  0.46625  0  4.09271  0  0  0.245464  0.41888  0  4.082251  0
C  C13  1  0.53171379  0.46271730  0.19327479  1  0  0.482809  0  3.791386  0  0  0.436408  0  4.087826  0  0  0.465024  0  4.093539  0  0  0.245205  0.417378  0  4.082923  0
C  C14  1  0.63706556  0.91210304  0.99224116  1  0  0.482885  0  3.842143  0  0  0.4469  0  4.134845  0  0  0.474845  0  4.140139  0  0  0.223154  0.428644  0  4.130211  0
C  C15  1  0.54804960  0.08791485  0.49244373  1  0  0.484596  0  3.838865  0  0  0.44943  0  4.130786  0  0  0.477382  0  4.13589  0  0  0.223467  0.430578  0  4.126706  0
C  C16  1  0.41380587  0.80550318  0.90395486  1  0  0.477561  0  3.800349  0  0  0.442886  0  4.0945  0  0  0.470953  0  4.099152  0  0  0.22112  0.424291  0  4.090153  0
C  C17  1  0.21945269  0.19457501  0.40387951  1  0  0.477081  0  3.800277  0  0  0.443616  0  4.093054  0  0  0.471619  0  4.097654  0  0  0.221792  0.425054  0  4.088737  0
C  C18  1  0.09609726  0.31029173  0.69794101  1  0  0.482675  0  3.809299  0  0  0.448296  0  4.104147  0  0  0.476199  0  4.109412  0  0  0.232011  0.429811  0  4.099775  0
C  C19  1  0.40654918  0.68977992  0.19785291  1  0  0.484158  0  3.814075  0  0  0.449589  0  4.108697  0  0  0.477627  0  4.113947  0  0  0.232316  0.430937  0  4.10438  0
C  C20  1  0.31712040  0.41472239  0.78889787  1  0  0.479328  0  3.807608  0  0  0.445653  0  4.100186  0  0  0.473843  0  4.104885  0  0  0.226404  0.426911  0  4.09606  0
C  C21  1  0.73090408  0.58527635  0.28903332  1  0  0.478618  0  3.808682  0  0  0.445465  0  4.100464  0  0  0.473677  0  4.105229  0  0  0.226793  0.42674  0  4.096363  0
C  C22  1  0.75695134  0.68554821  0.99180782  1  0  0.489681  0  3.769951  0  0  0.445157  0  4.06442  0  0  0.47373  0  4.069925  0  0  0.248825  0.426321  0  4.059904  0
C  C23  1  0.44391720  0.31445288  0.49152336  1  0  0.487623  0  3.771696  0  0  0.443222  0  4.066716  0  0  0.471641  0  4.072315  0  0  0.247254  0.424206  0  4.062329  0
S  S24  1  0.04699053  0.17661237  0.65482989  1  0  -0.501689  0  1.964166  0  0  -0.486726  0  2.292227  0  0  -0.502634  0  2.287018  0  0  -0.255751  -0.475486  0  2.295815  0
S  S25  1  0.22480797  0.82332115  0.15448632  1  0  -0.501877  0  1.965536  0  0  -0.487113  0  2.293567  0  0  -0.503105  0  2.288324  0  0  -0.255741  -0.475407  0  2.296961  0
S  S26  1  0.20050389  0.80247127  0.82523678  1  0  -0.483442  0  1.921504  0  0  -0.475053  0  2.240755  0  0  -0.491227  0  2.23601  0  0  -0.217007  -0.464081  0  2.244021  0
S  S27  1  0.00361265  0.19762378  0.32502083  1  0  -0.483505  0  1.920391  0  0  -0.475873  0  2.238912  0  0  -0.491878  0  2.234103  0  0  -0.217226  -0.464283  0  2.242202  0
S  S28  1  0.53590413  0.41559402  0.86627059  1  0  -0.500726  0  1.922535  0  0  -0.495519  0  2.250699  0  0  -0.512013  0  2.246207  0  0  -0.22361  -0.483853  0  2.253244  0
S  S29  1  0.95022839  0.58431709  0.36657976  1  0  -0.501182  0  1.921955  0  0  -0.496127  0  2.250167  0  0  -0.512589  0  2.245494  0  0  -0.224411  -0.484387  0  2.252872  0
S  S30  1  0.69766433  0.04491177  0.03173034  1  0  -0.580897  0  1.974881  0  0  -0.551087  0  2.309769  0  0  -0.567188  0  2.302699  0  0  -0.348162  -0.540486  0  2.314258  0
S  S31  1  0.74146862  0.95498531  0.53157189  1  0  -0.583343  0  1.974241  0  0  -0.55424  0  2.308854  0  0  -0.570252  0  2.301746  0  0  -0.349303  -0.5421  0  2.313987  0
S  S32  1  0.82922995  0.67449536  0.65451150  1  0  -0.467936  0  1.835343  0  0  -0.453771  0  2.140367  0  0  -0.468153  0  2.136435  0  0  -0.207491  -0.443143  0  2.14239  0
S  S33  1  0.50324423  0.32554064  0.15407871  1  0  -0.46769  0  1.835541  0  0  -0.452984  0  2.140684  0  0  -0.467516  0  2.136736  0  0  -0.207899  -0.442965  0  2.143475  0
S  S34  1  0.94517873  0.55015852  0.02527534  1  0  -0.427217  0  1.92072  0  0  -0.422431  0  2.246912  0  0  -0.437336  0  2.242827  0  0  -0.21202  -0.412495  0  2.249505  0
S  S35  1  0.49965235  0.44981985  0.52386400  1  0  -0.42683  0  1.921156  0  0  -0.421892  0  2.247055  0  0  -0.436753  0  2.243163  0  0  -0.211811  -0.411769  0  2.250264  0
N  N36  1  0.27030280  0.30627266  0.76075812  1  0  -0.574305  0  3.086413  0  0  -0.525345  0  3.368087  0  0  -0.548281  0  3.374915  0  0  -0.45977  -0.509702  0  3.362816  0
N  N37  1  0.57627426  0.69374592  0.26083094  1  0  -0.574051  0  3.089666  0  0  -0.525275  0  3.371062  0  0  -0.548225  0  3.377887  0  0  -0.460357  -0.50991  0  3.36651  0
N  N38  1  0.78844086  0.79847299  0.01905631  1  0  -0.414969  0  3.374537  0  0  -0.344973  0  3.603767  0  0  -0.369129  0  3.610778  0  0  -0.380865  -0.329633  0  3.598983  0
N  N39  1  0.58602788  0.20152861  0.51947662  1  0  -0.414867  0  3.373267  0  0  -0.34537  0  3.602359  0  0  -0.369518  0  3.609527  0  0  -0.380633  -0.32909  0  3.597366  0
N  N40  1  0.18056345  0.52758620  0.75466669  1  0  -0.410141  0  3.338407  0  0  -0.336109  0  3.561137  0  0  -0.360292  0  3.567504  0  0  -0.368921  -0.319764  0  3.556353  0
N  N41  1  0.70697880  0.47242359  0.25468650  1  0  -0.407212  0  3.339619  0  0  -0.333674  0  3.561744  0  0  -0.357692  0  3.567913  0  0  -0.369169  -0.317372  0  3.556989  0
N  N42  1  0.56289318  0.69280491  0.93475053  1  0  -0.40771  0  3.329672  0  0  -0.33498  0  3.554044  0  0  -0.358942  0  3.560162  0  0  -0.369764  -0.318581  0  3.549202  0
N  N43  1  0.25681064  0.30722982  0.43456758  1  0  -0.405874  0  3.328055  0  0  -0.333825  0  3.55259  0  0  -0.357658  0  3.558624  0  0  -0.36918  -0.317826  0  3.547873  0
N  N44  1  0.95942110  0.42456620  0.66642334  1  0  -0.413079  0  3.362032  0  0  -0.341791  0  3.588798  0  0  -0.36585  0  3.595546  0  0  -0.372574  -0.326122  0  3.584065  0
N  N45  1  0.38342287  0.57548886  0.16640144  1  0  -0.415069  0  3.364112  0  0  -0.343031  0  3.590317  0  0  -0.367352  0  3.597304  0  0  -0.372669  -0.326773  0  3.585527  0
N  N46  1  0.44900634  0.91476934  0.93513033  1  0  -0.569257  0  3.100388  0  0  -0.521341  0  3.385236  0  0  -0.543897  0  3.391532  0  0  -0.481299  -0.505619  0  3.379685  0
N  N47  1  0.36310454  0.08529279  0.43516050  1  0  -0.569551  0  3.098231  0  0  -0.521987  0  3.3821  0  0  -0.544642  0  3.38867  0  0  -0.481323  -0.506921  0  3.378118  0
