# generated using pymatgen
data_Cu2H9C8I2N3
_symmetry_space_group_name_H-M   'P 1'
_cell_length_a   7.54069253
_cell_length_b   7.65231952
_cell_length_c   11.17365409
_cell_angle_alpha   104.48300594
_cell_angle_beta   104.27304776
_cell_angle_gamma   95.89825904
_symmetry_Int_Tables_number   1
_chemical_formula_structural   Cu2H9C8I2N3
_chemical_formula_sum   'Cu4 H18 C16 I4 N6'
_cell_volume   595.64216198
_cell_formula_units_Z   2
loop_
 _symmetry_equiv_pos_site_id
 _symmetry_equiv_pos_as_xyz
  1  'x, y, z'
loop_
 _atom_site_type_symbol
 _atom_site_label
 _atom_site_symmetry_multiplicity
 _atom_site_fract_x
 _atom_site_fract_y
 _atom_site_fract_z
 _atom_site_occupancy
 _atom_site_hle17_bader_spin_density
 _atom_site_hle17_ddec_charge
 _atom_site_hle17_ddec_spin_density
 _atom_site_hle17_ddec_sum_bond_order
 _atom_site_hle17_magmom
 _atom_site_hse06_10hf_bader_spin_density
 _atom_site_hse06_10hf_ddec_charge
 _atom_site_hse06_10hf_ddec_spin_density
 _atom_site_hse06_10hf_ddec_sum_bond_order
 _atom_site_hse06_10hf_magmom
 _atom_site_hse06_bader_spin_density
 _atom_site_hse06_ddec_charge
 _atom_site_hse06_ddec_spin_density
 _atom_site_hse06_ddec_sum_bond_order
 _atom_site_hse06_magmom
 _atom_site_pbe_bader_spin_density
 _atom_site_pbe_cm5_charge
 _atom_site_pbe_ddec_charge
 _atom_site_pbe_ddec_spin_density
 _atom_site_pbe_ddec_sum_bond_order
 _atom_site_pbe_magmom
Cu  Cu0  1  0.37224712  0.71105762  0.29239010  1  0  0.362087  0  2.217852  0  0  0.282177  0  2.704469  0  0  0.28148  0  2.656251  0  0  0.394819  0.286006  0  2.734435  0
Cu  Cu1  1  0.62775496  0.28894407  0.70760893  1  0  0.362134  0  2.217842  0  0  0.282309  0  2.704433  0  0  0.281603  0  2.656213  0  0  0.394824  0.286122  0  2.734393  0
Cu  Cu2  1  0.49037753  0.07930334  0.41051088  1  0  0.235697  0  2.19053  0  0  0.159903  0  2.656763  0  0  0.174799  0  2.596695  0  0  0.256977  0.152137  0  2.696297  0
Cu  Cu3  1  0.50962328  0.92070659  0.58949203  1  0  0.235596  0  2.190548  0  0  0.159815  0  2.656722  0  0  0.17467  0  2.596647  0  0  0.256877  0.152051  0  2.696258  0
H  H4  1  0.41649030  0.81987648  0.78214815  1  0  0.089952  0  0.972035  0  0  0.102314  0  1.04202  0  0  0.10552  0  1.039887  0  0  0.082994  0.0997  0  1.043735  0
H  H5  1  0.58351829  0.18011562  0.21785480  1  0  0.090031  0  0.972082  0  0  0.10236  0  1.041966  0  0  0.105561  0  1.039849  0  0  0.083014  0.099746  0  1.043683  0
H  H6  1  0.19909068  0.89320716  0.76695679  1  0  0.099954  0  0.930966  0  0  0.11726  0  0.992983  0  0  0.119205  0  0.992748  0  0  0.096708  0.115715  0  0.99309  0
H  H7  1  0.80092099  0.10679455  0.23305458  1  0  0.100056  0  0.93104  0  0  0.117244  0  0.993093  0  0  0.119198  0  0.992847  0  0  0.09671  0.115703  0  0.993196  0
H  H8  1  0.28359760  0.53168150  0.82143226  1  0  0.063464  0  0.963832  0  0  0.081744  0  1.025981  0  0  0.081696  0  1.028433  0  0  0.081303  0.081428  0  1.02505  0
H  H9  1  0.71639324  0.46829551  0.17855085  1  0  0.063397  0  0.963901  0  0  0.081671  0  1.026063  0  0  0.081615  0  1.028533  0  0  0.081284  0.081359  0  1.025127  0
H  H10  1  0.25068013  0.72532721  0.93507498  1  0  0.071567  0  0.965091  0  0  0.086897  0  1.030615  0  0  0.088598  0  1.03117  0  0  0.078087  0.085625  0  1.030097  0
H  H11  1  0.74932987  0.27464981  0.06492294  1  0  0.071641  0  0.964867  0  0  0.08691  0  1.030541  0  0  0.088618  0  1.031084  0  0  0.078051  0.08563  0  1.030029  0
H  H12  1  0.07484000  0.30853420  0.18572730  1  0  0.099079  0  0.944142  0  0  0.115031  0  1.007297  0  0  0.116868  0  1.007812  0  0  0.089534  0.113444  0  1.007099  0
H  H13  1  0.92516805  0.69147025  0.81428035  1  0  0.099075  0  0.944153  0  0  0.115058  0  1.007323  0  0  0.116888  0  1.00784  0  0  0.089554  0.113479  0  1.007125  0
H  H14  1  0.03639225  0.52306946  0.16182498  1  0  0.093593  0  0.947757  0  0  0.107737  0  1.012094  0  0  0.111043  0  1.009759  0  0  0.09282  0.105413  0  1.013331  0
H  H15  1  0.96360314  0.47692537  0.83816550  1  0  0.093594  0  0.947707  0  0  0.10776  0  1.012057  0  0  0.111059  0  1.009725  0  0  0.092849  0.105442  0  1.013293  0
H  H16  1  0.41913264  0.22915569  0.89585141  1  0  0.147163  0  0.96604  0  0  0.156927  0  1.039894  0  0  0.160152  0  1.037783  0  0  0.101884  0.153926  0  1.042474  0
H  H17  1  0.58086837  0.77083230  0.10414958  1  0  0.147208  0  0.96602  0  0  0.156925  0  1.039925  0  0  0.160151  0  1.037812  0  0  0.10192  0.15392  0  1.042512  0
H  H18  1  0.17515920  0.20253308  0.88245823  1  0  0.149803  0  0.953385  0  0  0.164287  0  1.017892  0  0  0.167404  0  1.016214  0  0  0.098452  0.16163  0  1.01965  0
H  H19  1  0.82483961  0.79748095  0.11753609  1  0  0.149846  0  0.953424  0  0  0.16425  0  1.017977  0  0  0.16737  0  1.016297  0  0  0.098407  0.161594  0  1.019736  0
H  H20  1  0.32228585  0.10583557  0.98979722  1  0  0.150686  0  0.945418  0  0  0.167345  0  1.005466  0  0  0.169853  0  1.00472  0  0  0.10098  0.164987  0  1.006584  0
H  H21  1  0.67768950  0.89416204  0.01020114  1  0  0.150758  0  0.945308  0  0  0.167427  0  1.005326  0  0  0.169936  0  1.004574  0  0  0.101054  0.165071  0  1.006441  0
C  C22  1  0.07023450  0.50752382  0.35343865  1  0  0.25258  0  3.627602  0  0  0.244678  0  3.881314  0  0  0.254604  0  3.89197  0  0  0.141717  0.237565  0  3.87533  0
C  C23  1  0.92975698  0.49248749  0.64656384  1  0  0.252617  0  3.627815  0  0  0.244854  0  3.881579  0  0  0.254754  0  3.892237  0  0  0.141649  0.237728  0  3.87563  0
C  C24  1  0.96722891  0.45767548  0.43379154  1  0  -0.04935  0  3.758063  0  0  -0.045256  0  3.988384  0  0  -0.04264  0  3.999207  0  0  0.003371  -0.048025  0  3.983107  0
C  C25  1  0.03276868  0.54233170  0.56620857  1  0  -0.049252  0  3.757858  0  0  -0.045296  0  3.98829  0  0  -0.042668  0  3.999114  0  0  0.003431  -0.04806  0  3.98302  0
C  C26  1  0.20013674  0.67169850  0.61331401  1  0  0.250516  0  3.639648  0  0  0.240791  0  3.892857  0  0  0.250597  0  3.904847  0  0  0.139274  0.233335  0  3.886383  0
C  C27  1  0.79986593  0.32831416  0.38668251  1  0  0.250562  0  3.639833  0  0  0.240851  0  3.892813  0  0  0.250667  0  3.904807  0  0  0.139297  0.233395  0  3.886342  0
C  C28  1  0.26572963  0.77051138  0.75346258  1  0  -0.191519  0  3.69054  0  0  -0.230836  0  3.9336  0  0  -0.234424  0  3.943187  0  0  -0.163585  -0.227858  0  3.927108  0
C  C29  1  0.73427583  0.22948622  0.24654795  1  0  -0.191891  0  3.690977  0  0  -0.230898  0  3.933735  0  0  -0.234493  0  3.943314  0  0  -0.163647  -0.227924  0  3.927248  0
C  C30  1  0.20953461  0.64852407  0.83241248  1  0  -0.090172  0  3.671884  0  0  -0.126384  0  3.919884  0  0  -0.12817  0  3.934467  0  0  -0.169552  -0.125088  0  3.90993  0
C  C31  1  0.79047647  0.35146666  0.16758976  1  0  -0.090019  0  3.671782  0  0  -0.126341  0  3.919822  0  0  -0.12813  0  3.934413  0  0  -0.169502  -0.125049  0  3.909873  0
C  C32  1  0.99979122  0.42284056  0.21097736  1  0  -0.192315  0  3.691212  0  0  -0.233239  0  3.93687  0  0  -0.237028  0  3.946538  0  0  -0.163797  -0.23043  0  3.93055  0
C  C33  1  0.00021707  0.57716524  0.78902609  1  0  -0.192311  0  3.691082  0  0  -0.233378  0  3.93688  0  0  -0.237151  0  3.946529  0  0  -0.163863  -0.230585  0  3.93059  0
C  C34  1  0.34569895  0.38760318  0.05308757  1  0  0.423508  0  3.649505  0  0  0.413348  0  3.923546  0  0  0.426979  0  3.937607  0  0  0.213756  0.404096  0  3.91382  0
C  C35  1  0.65430260  0.61241086  0.94691795  1  0  0.423392  0  3.64943  0  0  0.413192  0  3.923493  0  0  0.426835  0  3.937555  0  0  0.213602  0.403936  0  3.913762  0
C  C36  1  0.31511588  0.22283207  0.94910791  1  0  -0.382728  0  3.746102  0  0  -0.445147  0  3.966971  0  0  -0.449851  0  3.969351  0  0  -0.218248  -0.441251  0  3.966835  0
C  C37  1  0.68488074  0.77716963  0.05089111  1  0  -0.382808  0  3.746501  0  0  -0.445096  0  3.967292  0  0  -0.449799  0  3.969664  0  0  -0.218251  -0.441204  0  3.967159  0
I  I38  1  0.77765812  0.03847055  0.80934276  1  0  -0.451586  0  1.39906  0  0  -0.398626  0  1.777955  0  0  -0.419529  0  1.746921  0  0  -0.208383  -0.3827  0  1.797441  0
I  I39  1  0.22233317  0.96152431  0.19065779  1  0  -0.451599  0  1.399043  0  0  -0.398608  0  1.777893  0  0  -0.419523  0  1.746873  0  0  -0.208381  -0.38268  0  1.797382  0
I  I40  1  0.72076694  0.83022065  0.42693601  1  0  -0.355036  0  1.622747  0  0  -0.315104  0  2.048557  0  0  -0.338056  0  2.017724  0  0  -0.186093  -0.29855  0  2.069875  0
I  I41  1  0.27923065  0.16978653  0.57306321  1  0  -0.355014  0  1.622733  0  0  -0.315109  0  2.048572  0  0  -0.338061  0  2.017741  0  0  -0.186085  -0.298551  0  2.069883  0
N  N42  1  0.22884253  0.62800011  0.40336209  1  0  -0.175263  0  3.199334  0  0  -0.131095  0  3.50283  0  0  -0.132104  0  3.502096  0  0  -0.242006  -0.132132  0  3.504914  0
N  N43  1  0.77116908  0.37201665  0.59663125  1  0  -0.17535  0  3.199748  0  0  -0.131376  0  3.503433  0  0  -0.13234  0  3.502657  0  0  -0.242002  -0.132406  0  3.505517  0
N  N44  1  0.29571648  0.70865931  0.53437145  1  0  -0.159811  0  3.197499  0  0  -0.109742  0  3.491537  0  0  -0.114312  0  3.492752  0  0  -0.242158  -0.108251  0  3.492498  0
N  N45  1  0.70427118  0.29133828  0.46562538  1  0  -0.159769  0  3.19731  0  0  -0.109679  0  3.491393  0  0  -0.114274  0  3.492611  0  0  -0.242156  -0.108187  0  3.492353  0
N  N46  1  0.36847171  0.51790371  0.13956876  1  0  -0.441879  0  3.081925  0  0  -0.404928  0  3.400077  0  0  -0.412582  0  3.397489  0  0  -0.378767  -0.400629  0  3.401422  0
N  N47  1  0.63153042  0.48208290  0.86042413  1  0  -0.441885  0  3.081513  0  0  -0.404927  0  3.399702  0  0  -0.412587  0  3.39712  0  0  -0.378721  -0.400626  0  3.401034  0
