# generated using pymatgen
data_CdH20C26(N2O3)2
_symmetry_space_group_name_H-M   'P 1'
_cell_length_a   9.30616907
_cell_length_b   12.57498160
_cell_length_c   12.32955284
_cell_angle_alpha   110.03730715
_cell_angle_beta   104.84371776
_cell_angle_gamma   98.44229780
_symmetry_Int_Tables_number   1
_chemical_formula_structural   CdH20C26(N2O3)2
_chemical_formula_sum   'Cd2 H40 C52 N8 O12'
_cell_volume   1265.81738463
_cell_formula_units_Z   2
loop_
 _symmetry_equiv_pos_site_id
 _symmetry_equiv_pos_as_xyz
  1  'x, y, z'
loop_
 _atom_site_type_symbol
 _atom_site_label
 _atom_site_symmetry_multiplicity
 _atom_site_fract_x
 _atom_site_fract_y
 _atom_site_fract_z
 _atom_site_occupancy
 _atom_site_pbe_bader_charge
 _atom_site_pbe_bader_spin_density
 _atom_site_pbe_cm5_charge
 _atom_site_pbe_ddec_charge
 _atom_site_pbe_ddec_spin_density
 _atom_site_pbe_ddec_sum_bond_order
 _atom_site_pbe_magmom
Cd  Cd0  1  0.01202905  0.39644864  0.58258431  1  1.276949  0  0.777615  0.898637  0  2.128033  0
Cd  Cd1  1  0.98796695  0.60355338  0.41741820  1  1.27698  0  0.777623  0.89866  0  2.128066  0
H  H2  1  0.62306407  0.36497595  0.45781974  1  0.122482  0  0.118347  0.11207  0  1.005865  0
H  H3  1  0.42261183  0.16403287  0.26279394  1  0.098559  0  0.119488  0.116929  0  1.051959  0
H  H4  1  0.87987756  0.12880345  0.33365766  1  0.155388  0  0.135359  0.10626  0  1.024505  0
H  H5  1  0.37594280  0.95559616  0.21379819  1  0.086917  0  0.108516  0.118233  0  1.023485  0
H  H6  1  0.27803497  0.76059461  0.04457856  1  0.112415  0  0.11533  0.124768  0  0.989623  0
H  H7  1  0.67852515  0.82417968  0.93775268  1  0.089167  0  0.105848  0.107983  0  1.061673  0
H  H8  1  0.77481948  0.02122306  0.10556467  1  0.097651  0  0.105477  0.110061  0  1.032611  0
H  H9  1  0.16766966  0.65210049  0.83477491  1  0.181826  0  0.137462  0.112123  0  1.008771  0
H  H10  1  0.62252071  0.61994891  0.85994647  1  0.149826  0  0.130484  0.139282  0  0.997892  0
H  H11  1  0.40997896  0.42670311  0.66515615  1  0.121643  0  0.120968  0.119558  0  0.999343  0
H  H12  1  0.04136631  0.04146179  0.63120397  1  0.114353  0  0.115369  0.11056  0  1.001465  0
H  H13  1  0.22426451  0.13500509  0.73381350  1  0.066794  0  0.103734  0.0897  0  1.008999  0
H  H14  1  0.40509788  0.24457879  0.70035492  1  0.055814  0  0.099263  0.110787  0  1.031006  0
H  H15  1  0.20867728  0.84372593  0.40620417  1  0.136619  0  0.096225  0.105129  0  1.074243  0
H  H16  1  0.67876198  0.29882289  0.71433974  1  0.077831  0  0.100548  0.105963  0  0.984659  0
H  H17  1  0.67522965  0.66069305  0.62965718  1  0.071684  0  0.108545  0.100073  0  0.96908  0
H  H18  1  0.84593669  0.74235231  0.62722118  1  0.136929  0  0.111938  0.113634  0  1.058149  0
H  H19  1  0.81588461  0.90476945  0.67399533  1  0.12579  0  0.105509  0.12914  0  1.028127  0
H  H20  1  0.91231770  0.12109773  0.77263234  1  0.090403  0  0.102645  0.108133  0  1.020599  0
H  H21  1  0.04313535  0.22301533  0.99620705  1  0.087387  0  0.105201  0.115578  0  1.007257  0
H  H22  1  0.37693696  0.63502438  0.54217910  1  0.122498  0  0.118338  0.112082  0  1.005847  0
H  H23  1  0.57739665  0.83597289  0.73719778  1  0.098949  0  0.119447  0.116907  0  1.051958  0
H  H24  1  0.12013138  0.87120391  0.66634527  1  0.155309  0  0.135373  0.10632  0  1.024566  0
H  H25  1  0.62406953  0.04441127  0.78620057  1  0.086752  0  0.10851  0.118252  0  1.02349  0
H  H26  1  0.72197143  0.23941184  0.95542517  1  0.112309  0  0.11534  0.124747  0  0.989735  0
H  H27  1  0.32147495  0.17581455  0.06224215  1  0.089079  0  0.105883  0.107989  0  1.061738  0
H  H28  1  0.22519099  0.97877214  0.89442769  1  0.097827  0  0.10546  0.11003  0  1.032643  0
H  H29  1  0.83232794  0.34789630  0.16522440  1  0.182132  0  0.137448  0.112115  0  1.008714  0
H  H30  1  0.37747659  0.38004701  0.14005248  1  0.149789  0  0.130473  0.139246  0  0.997926  0
H  H31  1  0.59001723  0.57329280  0.33484257  1  0.121697  0  0.120967  0.119579  0  0.999367  0
H  H32  1  0.95862962  0.95853672  0.36879727  1  0.114228  0  0.115315  0.110449  0  1.001484  0
H  H33  1  0.77572981  0.86499520  0.26618643  1  0.066877  0  0.103719  0.089632  0  1.008999  0
H  H34  1  0.59489717  0.75541710  0.29964519  1  0.055838  0  0.099274  0.110808  0  1.03098  0
H  H35  1  0.79131619  0.15627176  0.59379222  1  0.136153  0  0.096216  0.105148  0  1.074297  0
H  H36  1  0.32123226  0.70117389  0.28565972  1  0.077949  0  0.100553  0.106004  0  0.9847  0
H  H37  1  0.32476700  0.33931422  0.37034735  1  0.071705  0  0.108501  0.09999  0  0.969151  0
H  H38  1  0.15406292  0.25765057  0.37278397  1  0.137018  0  0.111966  0.113693  0  1.058186  0
H  H39  1  0.18411602  0.09522989  0.32601118  1  0.12573  0  0.10552  0.129074  0  1.02817  0
H  H40  1  0.08768323  0.87890250  0.22737374  1  0.090355  0  0.102664  0.10824  0  1.020659  0
H  H41  1  0.95687085  0.77698403  0.00379976  1  0.087406  0  0.105218  0.11554  0  1.007239  0
C  C42  1  0.64592670  0.28566917  0.40287152  1  0.419248  0  -0.000138  -0.022092  0  4.017729  0
C  C43  1  0.54586725  0.18790700  0.30716962  1  0.3243  0  -0.001975  -0.105358  0  3.910539  0
C  C44  1  0.78465784  0.16812148  0.34015340  1  0.970437  0  0.144107  0.105005  0  3.895351  0
C  C45  1  0.58042947  0.00131994  0.16954414  1  0.248474  0  0.094932  0.156262  0  4.009419  0
C  C46  1  0.44036907  0.92822932  0.15148424  1  0.021504  0  -0.081241  -0.132165  0  3.9749  0
C  C47  1  0.38550280  0.81803259  0.05614730  1  0.006658  0  -0.083472  -0.150334  0  3.972528  0
C  C48  1  0.47141297  0.78054521  0.97903296  1  0.294942  0  0.094167  0.161673  0  4.017287  0
C  C49  1  0.61251827  0.85308500  0.99831428  1  0.021202  0  -0.089205  -0.155242  0  3.984824  0
C  C50  1  0.66689110  0.96379167  0.09317824  1  -0.00028  0  -0.085046  -0.14199  0  3.977567  0
C  C51  1  0.26130978  0.61619061  0.81447713  1  0.963411  0  0.146435  0.104403  0  3.888694  0
C  C52  1  0.49790711  0.59781866  0.82539053  1  0.32387  0  0.003834  -0.10699  0  3.90894  0
C  C53  1  0.39157860  0.50297740  0.72962003  1  0.355368  0  -0.000323  -0.031952  0  4.005611  0
C  C54  1  0.10003846  0.20142619  0.60919577  1  1.584483  0  0.183471  0.569938  0  4.230518  0
C  C55  1  0.14621254  0.10038858  0.63871227  1  0.396157  0  -0.071056  -0.129245  0  3.899394  0
C  C56  1  0.36035083  0.06858138  0.56789104  1  0.41255  0  0.078945  0.205922  0  4.031885  0
C  C57  1  0.45156986  0.18021858  0.64494199  1  0.013387  0  -0.122716  -0.239034  0  4.059958  0
C  C58  1  0.42068622  0.98343457  0.49459240  1  0.043905  0  -0.021312  -0.014883  0  3.995924  0
C  C59  1  0.32884962  0.86899499  0.41410932  1  -0.073593  0  -0.112074  -0.157131  0  4.023469  0
C  C60  1  0.60740099  0.21066129  0.65322024  1  -0.110163  0  -0.10236  -0.071372  0  4.062929  0
C  C61  1  0.86875426  0.58728737  0.65957076  1  1.58269  0  0.190297  0.581985  0  4.208581  0
C  C62  1  0.80112916  0.69279418  0.67448656  1  0.375288  0  -0.070741  -0.13147  0  3.865221  0
C  C63  1  0.89305508  0.88192137  0.84379640  1  0.44391  0  0.078352  0.190701  0  4.05326  0
C  C64  1  0.87408405  0.94693900  0.77259942  1  -0.112409  0  -0.120223  -0.248402  0  4.025749  0
C  C65  1  0.92958288  0.07045571  0.82891789  1  -0.045856  0  -0.093886  -0.056855  0  4.035413  0
C  C66  1  0.00271019  0.12784879  0.95334732  1  -0.004227  0  -0.106157  -0.15607  0  4.012803  0
C  C67  1  0.97292461  0.93746693  0.97289893  1  -0.013542  0  -0.021625  -0.018493  0  4.011879  0
C  C68  1  0.35407575  0.71433207  0.59712630  1  0.419355  0  -0.000145  -0.022215  0  4.017663  0
C  C69  1  0.45414121  0.81209872  0.69282451  1  0.323812  0  -0.001998  -0.105301  0  3.910358  0
C  C70  1  0.21535083  0.83188502  0.65984755  1  0.970557  0  0.144118  0.104922  0  3.895723  0
C  C71  1  0.41957918  0.99868312  0.83045151  1  0.248828  0  0.094912  0.156335  0  4.009235  0
C  C72  1  0.55964097  0.07177460  0.84851361  1  0.021494  0  -0.081264  -0.13222  0  3.974911  0
C  C73  1  0.61450387  0.18197129  0.94385230  1  0.006383  0  -0.083505  -0.15037  0  3.972627  0
C  C74  1  0.52858917  0.21945514  0.02096530  1  0.295687  0  0.094211  0.161765  0  4.017186  0
C  C75  1  0.38748303  0.14691276  0.00167963  1  0.021822  0  -0.089223  -0.155305  0  3.984871  0
C  C76  1  0.33311526  0.03620788  0.90681569  1  -0.000952  0  -0.085017  -0.141957  0  3.977556  0
C  C77  1  0.73868811  0.38380706  0.18552256  1  0.963118  0  0.146461  0.104382  0  3.888624  0
C  C78  1  0.50209048  0.40217813  0.17460879  1  0.324332  0  0.003876  -0.106926  0  3.908985  0
C  C79  1  0.60841647  0.49701850  0.27037928  1  0.354937  0  -0.000352  -0.03203  0  4.005599  0
C  C80  1  0.89995637  0.79857234  0.39080444  1  1.584423  0  0.183502  0.569982  0  4.230287  0
C  C81  1  0.85377976  0.89960905  0.36128792  1  0.396284  0  -0.070955  -0.128939  0  3.899113  0
C  C82  1  0.63964403  0.93141717  0.43210755  1  0.412835  0  0.078929  0.205933  0  4.031852  0
C  C83  1  0.54842356  0.81977906  0.35505762  1  0.013327  0  -0.122759  -0.239053  0  4.059966  0
C  C84  1  0.57930502  0.01656311  0.50540435  1  -0.003706  0  -0.021317  -0.01492  0  3.995915  0
C  C85  1  0.67114302  0.13100356  0.58588803  1  -0.072782  0  -0.112063  -0.157148  0  4.023537  0
C  C86  1  0.39259274  0.78933724  0.34677894  1  -0.1102  0  -0.102332  -0.071445  0  4.062966  0
C  C87  1  0.13123813  0.41271378  0.34042910  1  1.58277  0  0.190351  0.582051  0  4.208464  0
C  C88  1  0.19886792  0.30720780  0.32551859  1  0.375158  0  -0.070724  -0.131426  0  3.86506  0
C  C89  1  0.10695001  0.11807800  0.15621019  1  0.443774  0  0.078405  0.190702  0  4.053211  0
C  C90  1  0.12591800  0.05306123  0.22740688  1  -0.112336  0  -0.120191  -0.248201  0  4.025826  0
C  C91  1  0.07041998  0.92954365  0.17108825  1  -0.045959  0  -0.093932  -0.057154  0  4.035853  0
C  C92  1  0.99729742  0.87215146  0.04666009  1  -0.004115  0  -0.106223  -0.155903  0  4.012798  0
C  C93  1  0.02708213  0.06253070  0.02710655  1  -0.082033  0  -0.02168  -0.018356  0  4.011836  0
N  N94  1  0.79369466  0.27189542  0.42266876  1  -1.2101  0  -0.349604  -0.285645  0  3.517617  0
N  N95  1  0.63533653  0.11383549  0.26715635  1  -1.260749  0  -0.223859  0.010782  0  3.79143  0
N  N96  1  0.41357944  0.66943660  0.87921330  1  -1.27086  0  -0.22641  0.007042  0  3.806182  0
N  N97  1  0.24524758  0.51595007  0.72396098  1  -1.197489  0  -0.346872  -0.269145  0  3.518184  0
N  N98  1  0.20630948  0.72810757  0.57733084  1  -1.210085  0  -0.349631  -0.285591  0  3.517688  0
N  N99  1  0.36467191  0.88617022  0.73283859  1  -1.261046  0  -0.223784  0.0108  0  3.791319  0
N  N100  1  0.58641705  0.33056020  0.12078499  1  -1.271306  0  -0.226415  0.007076  0  3.806217  0
N  N101  1  0.75475000  0.48404669  0.27603995  1  -1.197495  0  -0.346898  -0.269127  0  3.518147  0
O  O102  1  0.12050664  0.21706511  0.51755600  1  -1.193948  0  -0.333471  -0.570081  0  2.209684  0
O  O103  1  0.04072915  0.26455866  0.68150605  1  -1.165245  0  -0.338628  -0.554912  0  2.161565  0
O  O104  1  0.88507992  0.53965767  0.55419740  1  -1.174463  0  -0.34099  -0.581671  0  2.359389  0
O  O105  1  0.90267385  0.55050463  0.74264026  1  -1.176163  0  -0.334439  -0.548324  0  2.078924  0
O  O106  1  0.83546104  0.76322195  0.80166141  1  -1.095488  0  -0.182586  -0.188744  0  2.623123  0
O  O107  1  0.20995069  0.02873791  0.55641934  1  -1.095807  0  -0.177975  -0.180808  0  2.625147  0
O  O108  1  0.87949099  0.78293516  0.48244620  1  -1.193935  0  -0.3335  -0.570111  0  2.209642  0
O  O109  1  0.95926036  0.73543724  0.31849135  1  -1.165207  0  -0.33864  -0.554978  0  2.161437  0
O  O110  1  0.11491166  0.46034437  0.44580181  1  -1.174509  0  -0.341027  -0.581713  0  2.359426  0
O  O111  1  0.09731819  0.44949216  0.25735714  1  -1.176202  0  -0.334422  -0.548292  0  2.078883  0
O  O112  1  0.16454213  0.23677830  0.19834430  1  -1.095459  0  -0.182648  -0.188838  0  2.622959  0
O  O113  1  0.79004164  0.97125975  0.44357924  1  -1.095979  0  -0.177956  -0.18084  0  2.625017  0
