# generated using pymatgen
data_ZnH2C14(O2F3)2
_symmetry_space_group_name_H-M   'P 1'
_cell_length_a   7.51464282
_cell_length_b   10.87805179
_cell_length_c   35.25449202
_cell_angle_alpha   89.89033704
_cell_angle_beta   93.93765914
_cell_angle_gamma   90.07329910
_symmetry_Int_Tables_number   1
_chemical_formula_structural   ZnH2C14(O2F3)2
_chemical_formula_sum   'Zn4 H8 C56 O16 F24'
_cell_volume   2875.05672398
_cell_formula_units_Z   4
loop_
 _symmetry_equiv_pos_site_id
 _symmetry_equiv_pos_as_xyz
  1  'x, y, z'
loop_
 _atom_site_type_symbol
 _atom_site_label
 _atom_site_symmetry_multiplicity
 _atom_site_fract_x
 _atom_site_fract_y
 _atom_site_fract_z
 _atom_site_occupancy
 _atom_site_pbe_bader_charge
 _atom_site_pbe_bader_spin_density
 _atom_site_pbe_cm5_charge
 _atom_site_pbe_ddec_charge
 _atom_site_pbe_ddec_spin_density
 _atom_site_pbe_ddec_sum_bond_order
 _atom_site_pbe_magmom
Zn  Zn0  1  0.69466805  0.00023231  0.50312373  1  1.323917  0  0.741515  0.986264  0  2.142272  0
Zn  Zn1  1  0.33021097  0.99998694  0.49795978  1  1.311656  0  0.725642  0.95408  0  2.097949  0
Zn  Zn2  1  0.21470982  0.99721403  0.99684638  1  1.318233  0  0.741603  0.986239  0  2.142574  0
Zn  Zn3  1  0.57921458  0.99746522  0.00202486  1  1.314666  0  0.725703  0.953674  0  2.099354  0
H  H4  1  0.25088263  0.99649432  0.75371945  1  0.132821  0  0.101791  0.110012  0  1.034377  0
H  H5  1  0.65658857  0.99710419  0.74635540  1  0.146521  0  0.101709  0.109269  0  1.034924  0
H  H6  1  0.25130711  0.99595899  0.24067361  1  0.131899  0  0.100743  0.108639  0  1.036422  0
H  H7  1  0.65745834  0.99702061  0.25929904  1  0.14041  0  0.10137  0.109874  0  1.036306  0
H  H8  1  0.36468359  0.72855128  0.55674078  1  0.098222  0  0.112411  0.148043  0  1.004176  0
H  H9  1  0.36457674  0.27047616  0.55671268  1  0.086617  0  0.112288  0.147634  0  1.003243  0
H  H10  1  0.54557554  0.72666770  0.94301457  1  0.122454  0  0.112085  0.146918  0  1.003997  0
H  H11  1  0.54509411  0.26847033  0.94310961  1  0.137227  0  0.112301  0.147341  0  1.004106  0
C  C12  1  0.58052639  0.76842210  0.50285046  1  1.590408  0  0.227573  0.635275  0  4.117893  0
C  C13  1  0.43499726  0.99943210  0.57085137  1  1.585712  0  0.217112  0.624465  0  4.149494  0
C  C14  1  0.58014807  0.23184270  0.50280702  1  1.602479  0  0.22822  0.635644  0  4.119095  0
C  C15  1  0.43991546  0.99975743  0.42850999  1  1.557909  0  0.222757  0.641887  0  4.121658  0
C  C16  1  0.32979530  0.76556142  0.99706229  1  1.54469  0  0.227254  0.634677  0  4.118946  0
C  C17  1  0.47418035  0.99747820  0.92916931  1  1.584388  0  0.216851  0.626444  0  4.145925  0
C  C18  1  0.32948279  0.22900327  0.99708491  1  1.550461  0  0.227338  0.635322  0  4.119608  0
C  C19  1  0.46869434  0.99708127  0.07145561  1  1.554856  0  0.221489  0.639183  0  4.125988  0
C  C20  1  0.46111669  0.99708065  0.88673528  1  0.044215  0  -0.029656  -0.227726  0  3.973461  0
C  C21  1  0.61027966  0.99709479  0.86459241  1  0.482027  0  0.1026  0.175895  0  4.084149  0
C  C22  1  0.59279580  0.99699430  0.82498035  1  0.620632  0  0.095195  0.129654  0  4.036752  0
C  C23  1  0.42584825  0.99674950  0.80419585  1  0.115131  0  -0.014045  -0.051734  0  4.082359  0
C  C24  1  0.27790921  0.99660100  0.82662600  1  0.578068  0  0.091504  0.122268  0  4.066723  0
C  C25  1  0.29289576  0.99683743  0.86610905  1  0.488612  0  0.101421  0.180231  0  4.065522  0
C  C26  1  0.39170759  0.99665982  0.76315261  1  0.036303  0  -0.081566  -0.083661  0  3.944495  0
C  C27  1  0.51576667  0.99683110  0.73689878  1  -0.060741  0  -0.081307  -0.082479  0  3.942996  0
C  C28  1  0.63013521  0.99843736  0.67348782  1  0.58823  0  0.091635  0.121584  0  4.061746  0
C  C29  1  0.48192267  0.99701731  0.69585172  1  0.068977  0  -0.0142  -0.05024  0  4.078562  0
C  C30  1  0.31518018  0.99628435  0.67499909  1  0.507726  0  0.094944  0.127175  0  4.040451  0
C  C31  1  0.29813394  0.99708858  0.63537763  1  0.602873  0  0.102092  0.175102  0  4.08322  0
C  C32  1  0.44755530  0.99869050  0.61329584  1  0.041223  0  -0.028868  -0.224461  0  3.969351  0
C  C33  1  0.61556478  0.99936304  0.63400127  1  0.510317  0  0.10238  0.180208  0  4.065462  0
C  C34  1  0.45657679  0.99693921  0.11354651  1  0.106262  0  -0.025881  -0.217512  0  3.957046  0
C  C35  1  0.60684878  0.99729533  0.13978364  1  0.574823  0  0.101179  0.174124  0  4.082521  0
C  C36  1  0.59070387  0.99698549  0.17892044  1  0.480797  0  0.093044  0.126343  0  4.041076  0
C  C37  1  0.42439088  0.99630245  0.19505792  1  0.097657  0  -0.016657  -0.055208  0  4.090023  0
C  C38  1  0.27540101  0.99595015  0.16857830  1  0.521442  0  0.091988  0.122961  0  4.063202  0
C  C39  1  0.28899467  0.99631432  0.12948694  1  0.600606  0  0.102786  0.179363  0  4.064969  0
C  C40  1  0.39186904  0.99631076  0.23514430  1  0.002967  0  -0.083104  -0.084103  0  3.951534  0
C  C41  1  0.51691918  0.99689221  0.26480993  1  -0.07081  0  -0.083714  -0.086414  0  3.951526  0
C  C42  1  0.63319249  0.99733274  0.33138228  1  0.53158  0  0.091601  0.121294  0  4.065758  0
C  C43  1  0.48420763  0.99740422  0.30488879  1  0.094866  0  -0.016261  -0.052738  0  4.086453  0
C  C44  1  0.31787879  0.99814239  0.32102656  1  0.543489  0  0.09232  0.124324  0  4.040119  0
C  C45  1  0.30180301  0.99889710  0.36016430  1  0.527343  0  0.101318  0.175307  0  4.080882  0
C  C46  1  0.45204352  0.99885334  0.38641621  1  0.075999  0  -0.026046  -0.219016  0  3.95835  0
C  C47  1  0.61962677  0.99796692  0.37047572  1  0.609661  0  0.103012  0.180714  0  4.065522  0
C  C48  1  0.58227686  0.63095083  0.50491142  1  0.061806  0  -0.014926  -0.160742  0  3.937738  0
C  C49  1  0.47530659  0.56594009  0.53045820  1  -0.049598  0  0.002105  0.085038  0  3.970157  0
C  C50  1  0.68390366  0.56517133  0.48093285  1  0.591314  0  0.100884  0.164965  0  4.082872  0
C  C51  1  0.37113253  0.62877938  0.55635739  1  0.066708  0  -0.09998  -0.237894  0  3.968556  0
C  C52  1  0.27276069  0.56408761  0.58095677  1  0.425399  0  0.092426  0.186793  0  4.113807  0
C  C53  1  0.58206312  0.36924870  0.50488147  1  0.055469  0  -0.014622  -0.160406  0  3.939316  0
C  C54  1  0.68377663  0.43549787  0.48092654  1  0.446186  0  0.100859  0.165154  0  4.083701  0
C  C55  1  0.47520016  0.43372021  0.53044646  1  0.10654  0  0.001755  0.084292  0  3.97002  0
C  C56  1  0.37098548  0.37028283  0.55633337  1  0.080215  0  -0.099097  -0.236595  0  3.966501  0
C  C57  1  0.27270716  0.43443809  0.58096095  1  0.544425  0  0.09258  0.187963  0  4.115715  0
C  C58  1  0.32827566  0.62812150  0.99495181  1  0.121966  0  -0.014788  -0.161206  0  3.938069  0
C  C59  1  0.43506498  0.56358375  0.96936670  1  0.023476  0  0.00238  0.085045  0  3.966519  0
C  C60  1  0.22696060  0.56192350  0.01899000  1  0.517696  0  0.101174  0.165871  0  4.083399  0
C  C61  1  0.53916587  0.62686290  0.94342338  1  0.040428  0  -0.099616  -0.236235  0  3.964572  0
C  C62  1  0.63707323  0.56251534  0.91876521  1  0.45642  0  0.092783  0.187152  0  4.11408  0
C  C63  1  0.32804911  0.36644515  0.99495182  1  0.116229  0  -0.014867  -0.160958  0  3.939593  0
C  C64  1  0.22684161  0.43226016  0.01898403  1  0.52004  0  0.100719  0.164761  0  4.085143  0
C  C65  1  0.43492573  0.43134089  0.96936721  1  0.047553  0  0.001329  0.084753  0  3.966957  0
C  C66  1  0.53883847  0.36826247  0.94344967  1  0.038635  0  -0.0991  -0.236551  0  3.965052  0
C  C67  1  0.63704965  0.43284564  0.91879178  1  0.484242  0  0.092792  0.187864  0  4.113887  0
O  O68  1  0.73242762  0.82348833  0.50485788  1  -1.109681  0  -0.308689  -0.51945  0  2.232205  0
O  O69  1  0.42883475  0.81963470  0.49955276  1  -1.168458  0  -0.303036  -0.557852  0  2.317026  0
O  O70  1  0.28075197  0.99957696  0.55234556  1  -1.106485  0  -0.313238  -0.522599  0  2.218126  0
O  O71  1  0.58144736  0.99976122  0.55509899  1  -1.169546  0  -0.311347  -0.576314  0  2.406867  0
O  O72  1  0.42840344  0.18047040  0.49947802  1  -1.170474  0  -0.303113  -0.557713  0  2.316767  0
O  O73  1  0.73203580  0.17702136  0.50487372  1  -1.115199  0  -0.309348  -0.51985  0  2.232986  0
O  O74  1  0.58705440  0.00060378  0.44837207  1  -1.165774  0  -0.312935  -0.578189  0  2.405402  0
O  O75  1  0.28596343  0.99960448  0.44240080  1  -1.105121  0  -0.309649  -0.512842  0  2.222652  0
O  O76  1  0.17781780  0.82024308  0.99506422  1  -1.111217  0  -0.309072  -0.519923  0  2.232501  0
O  O77  1  0.48145536  0.81702235  0.00042333  1  -1.166493  0  -0.302684  -0.556561  0  2.315737  0
O  O78  1  0.62854395  0.99753922  0.94761886  1  -1.109564  0  -0.313131  -0.523382  0  2.217597  0
O  O79  1  0.32785751  0.99774120  0.94496739  1  -1.167607  0  -0.311288  -0.577039  0  2.408194  0
O  O80  1  0.48112443  0.17771111  0.00043321  1  -1.168155  0  -0.302698  -0.557208  0  2.317016  0
O  O81  1  0.17747554  0.17410436  0.99511542  1  -1.109843  0  -0.308842  -0.519754  0  2.232334  0
O  O82  1  0.32155103  0.99684726  0.05159890  1  -1.164447  0  -0.312549  -0.576282  0  2.407043  0
O  O83  1  0.62268701  0.99739698  0.05759508  1  -1.10455  0  -0.308746  -0.511958  0  2.22479  0
F  F84  1  0.13876587  0.99690354  0.88322194  1  -0.602247  0  -0.076696  -0.082778  0  1.450588  0
F  F85  1  0.11181975  0.99630285  0.80927002  1  -0.609628  0  -0.082045  -0.10299  0  1.414924  0
F  F86  1  0.77666856  0.99740298  0.88106416  1  -0.600972  0  -0.077885  -0.090405  0  1.440986  0
F  F87  1  0.74487050  0.99710968  0.80654314  1  -0.618361  0  -0.075863  -0.095465  0  1.423236  0
F  F88  1  0.16292204  0.99488458  0.69336679  1  -0.614808  0  -0.07607  -0.09506  0  1.423668  0
F  F89  1  0.13187767  0.99645399  0.61882428  1  -0.597674  0  -0.077586  -0.090077  0  1.441189  0
F  F90  1  0.79609228  0.99933310  0.69092521  1  -0.607872  0  -0.082267  -0.102915  0  1.413775  0
F  F91  1  0.76982460  0.00111732  0.61694675  1  -0.600361  0  -0.077622  -0.08346  0  1.45009  0
F  F92  1  0.13408104  0.99602330  0.10809537  1  -0.597769  0  -0.076483  -0.080523  0  1.428712  0
F  F93  1  0.10989481  0.99538275  0.18138717  1  -0.609358  0  -0.082927  -0.105751  0  1.41693  0
F  F94  1  0.77289281  0.99787146  0.12792801  1  -0.596427  0  -0.078617  -0.093783  0  1.44315  0
F  F95  1  0.74356376  0.99717454  0.20167488  1  -0.61714  0  -0.078045  -0.096942  0  1.403534  0
F  F96  1  0.16502576  0.99822728  0.29826262  1  -0.615148  0  -0.077774  -0.0963  0  1.40302  0
F  F97  1  0.13575366  0.99991317  0.37201820  1  -0.60019  0  -0.078709  -0.094078  0  1.44222  0
F  F98  1  0.79874308  0.99659846  0.31858518  1  -0.60741  0  -0.082612  -0.105453  0  1.420446  0
F  F99  1  0.77458764  0.99761168  0.39184910  1  -0.599198  0  -0.076626  -0.080769  0  1.429179  0
F  F100  1  0.78100242  0.37898944  0.45528975  1  -0.610632  0  -0.088698  -0.10621  0  1.357657  0
F  F101  1  0.78128386  0.62210914  0.45530038  1  -0.608245  0  -0.088797  -0.106312  0  1.356727  0
F  F102  1  0.17308037  0.62367097  0.60574141  1  -0.621427  0  -0.101579  -0.12766  0  1.321733  0
F  F103  1  0.17307302  0.37448228  0.60576104  1  -0.621869  0  -0.101804  -0.128239  0  1.323243  0
F  F104  1  0.12963824  0.37528290  0.04463269  1  -0.616994  0  -0.088891  -0.106286  0  1.358291  0
F  F105  1  0.12994833  0.61843850  0.04467445  1  -0.616752  0  -0.08895  -0.106587  0  1.357425  0
F  F106  1  0.73658986  0.62235061  0.89390127  1  -0.622772  0  -0.101472  -0.12789  0  1.322585  0
F  F107  1  0.73658808  0.37335043  0.89396594  1  -0.62511  0  -0.101883  -0.128351  0  1.321581  0
