# generated using pymatgen
data_MnH16C12S2(NO4)2
_symmetry_space_group_name_H-M   'P 1'
_cell_length_a   7.78060146
_cell_length_b   6.91948478
_cell_length_c   17.80841950
_cell_angle_alpha   92.97251516
_cell_angle_beta   90.19702857
_cell_angle_gamma   120.10013912
_symmetry_Int_Tables_number   1
_chemical_formula_structural   MnH16C12S2(NO4)2
_chemical_formula_sum   'Mn2 H32 C24 S4 N4 O16'
_cell_volume   827.87873086
_cell_formula_units_Z   2
loop_
 _symmetry_equiv_pos_site_id
 _symmetry_equiv_pos_as_xyz
  1  'x, y, z'
loop_
 _atom_site_type_symbol
 _atom_site_label
 _atom_site_symmetry_multiplicity
 _atom_site_fract_x
 _atom_site_fract_y
 _atom_site_fract_z
 _atom_site_occupancy
 _atom_site_hle17_ddec_charge
 _atom_site_hle17_ddec_spin_density
 _atom_site_hle17_ddec_sum_bond_order
 _atom_site_hle17_magmom
 _atom_site_hse06_10hf_ddec_charge
 _atom_site_hse06_10hf_ddec_spin_density
 _atom_site_hse06_10hf_ddec_sum_bond_order
 _atom_site_hse06_10hf_magmom
 _atom_site_hse06_ddec_charge
 _atom_site_hse06_ddec_spin_density
 _atom_site_hse06_ddec_sum_bond_order
 _atom_site_hse06_magmom
 _atom_site_pbe_cm5_charge
 _atom_site_pbe_ddec_charge
 _atom_site_pbe_ddec_spin_density
 _atom_site_pbe_ddec_sum_bond_order
 _atom_site_pbe_magmom
Mn  Mn0  1  0.50001020  0.50000400  0.00000282  1  1.241433  4.801446  1.637875  4.684  1.099897  4.72878  2.108057  4.551  1.148216  4.769247  2.047966  4.609  0.616509  1.062087  4.68844  2.15163  4.496
Mn  Mn1  1  0.99999805  0.99999879  0.49999907  1  1.199827  4.805154  1.672995  4.685  1.053258  4.734121  2.144772  4.553  1.10333  4.773733  2.084655  4.61  0.599266  1.013417  4.69482  2.189427  4.499
H  H2  1  0.21740587  0.58414310  0.05834118  1  0.432612  0.000171  0.863989  0.001  0.401222  0.001024  0.927619  0.001  0.412105  0.000677  0.911566  0.001  0.300097  0.393481  0.001352  0.939012  0.002
H  H3  1  0.28959507  0.92503860  0.56003632  1  0.444074  0.000197  0.843597  0.001  0.414325  0.001022  0.90369  0.002  0.424766  0.000683  0.888397  0.002  0.304729  0.406876  0.001343  0.914568  0.002
H  H4  1  0.78259605  0.41586185  0.94165597  1  0.432657  0.000171  0.863936  0.001  0.401222  0.001024  0.927626  0.001  0.412103  0.000677  0.911576  0.001  0.300089  0.393483  0.001353  0.939017  0.002
H  H5  1  0.71039946  0.07495842  0.43996525  1  0.444117  0.000197  0.843535  0.001  0.414343  0.001022  0.903679  0.002  0.424783  0.000683  0.888387  0.002  0.304716  0.406889  0.001343  0.914558  0.002
H  H6  1  0.08113257  0.33857943  0.01378473  1  0.437363  0.000535  0.838084  0.001  0.409038  0.001526  0.901516  0.002  0.419104  0.001088  0.886538  0.002  0.310326  0.401751  0.001948  0.912369  0.003
H  H7  1  0.38321558  0.19031685  0.54969255  1  0.428363  0.000207  0.842155  0.001  0.400636  0.001118  0.913285  0.002  0.410075  0.00077  0.899289  0.001  0.311396  0.393857  0.001441  0.922937  0.002
H  H8  1  0.91887138  0.66142719  0.98621244  1  0.437351  0.000535  0.838137  0.001  0.409031  0.001526  0.90152  0.002  0.419097  0.001088  0.886542  0.002  0.310358  0.401746  0.001948  0.912368  0.003
H  H9  1  0.61677983  0.80968210  0.45031185  1  0.428397  0.000208  0.842129  0.001  0.400665  0.001118  0.91325  0.002  0.410104  0.00077  0.899252  0.001  0.311396  0.393884  0.001441  0.922917  0.002
H  H10  1  0.07549893  0.33505815  0.40978101  1  0.317888  -0.000342  0.894479  0.0  0.30666  0.00034  0.949288  0.001  0.313194  0.000188  0.944171  0.001  0.302217  0.302004  0.000467  0.952814  0.001
H  H11  1  0.40097281  0.14693703  0.90690515  1  0.325609  -4.1e-05  0.903351  0.0  0.31333  0.000777  0.95747  0.001  0.32023  0.00059  0.952075  0.001  0.302085  0.308425  0.000938  0.961239  0.001
H  H12  1  0.92448960  0.66492842  0.59021595  1  0.31788  -0.000342  0.894507  0.0  0.306672  0.000339  0.949278  0.001  0.313204  0.000188  0.944164  0.001  0.302243  0.302017  0.000467  0.952803  0.001
H  H13  1  0.59903846  0.85307155  0.09309542  1  0.325618  -3.9e-05  0.903357  0.0  0.313347  0.000778  0.957468  0.001  0.320251  0.00059  0.952063  0.001  0.302096  0.308439  0.000938  0.961238  0.001
H  H14  1  0.28749925  0.34616767  0.43737299  1  0.326082  -4.7e-05  0.900934  0.0  0.310684  0.000774  0.964292  0.001  0.317236  0.000587  0.95922  0.001  0.300771  0.306017  0.000935  0.967827  0.001
H  H15  1  0.18955937  0.13905733  0.93297341  1  0.324918  -0.000145  0.902317  0.0  0.30884  0.000644  0.966254  0.001  0.315206  0.000477  0.961624  0.001  0.301792  0.30437  0.000787  0.969346  0.001
H  H16  1  0.71249488  0.65383423  0.56262694  1  0.32602  -4e-05  0.901081  0.0  0.310621  0.000773  0.964441  0.001  0.317174  0.000587  0.959371  0.001  0.300724  0.305955  0.000935  0.967977  0.001
H  H17  1  0.81044963  0.86094618  0.06702655  1  0.324884  -0.000147  0.902299  0.0  0.308797  0.000645  0.966257  0.001  0.315164  0.000477  0.961628  0.001  0.301742  0.304324  0.000787  0.969346  0.002
H  H18  1  0.03311674  0.18075630  0.15309944  1  0.096965  -6.3e-05  0.951329  0.0  0.108077  5.2e-05  1.009773  0.0  0.111529  -4.2e-05  1.007087  0.0  0.10376  0.105428  0.000151  1.011978  0.0
H  H19  1  0.50405687  0.36872999  0.66424202  1  0.087405  1.8e-05  0.966599  0.0  0.100176  0.000106  1.022896  0.0  0.103185  2.5e-05  1.020848  0.0  0.102847  0.097842  0.000197  1.024659  0.0
H  H20  1  0.96688483  0.81924212  0.84689933  1  0.096929  -6e-05  0.95137  0.0  0.108054  5.2e-05  1.009797  0.0  0.111507  -4.2e-05  1.007108  0.0  0.103754  0.105402  0.000151  1.012002  0.0
H  H21  1  0.49593477  0.63126348  0.33575727  1  0.087402  2e-05  0.966622  0.0  0.100173  0.000106  1.022919  0.0  0.103183  2.5e-05  1.020871  0.0  0.10285  0.097837  0.000197  1.024683  0.0
H  H22  1  0.96204609  0.25401764  0.28458673  1  0.107981  -0.000231  0.976657  0.0  0.116053  -6.9e-05  1.039847  0.0  0.119469  -7.8e-05  1.038323  0.0  0.10108  0.113569  -5.7e-05  1.041115  0.0
H  H23  1  0.55010654  0.27413042  0.79250318  1  0.112253  -0.000278  0.971449  0.0  0.122448  -7.1e-05  1.03054  0.0  0.12574  -8.8e-05  1.029105  0.0  0.104601  0.120041  -5e-05  1.031768  0.0
H  H24  1  0.03795041  0.74597236  0.71541139  1  0.107977  -0.000228  0.976666  0.0  0.116055  -6.9e-05  1.039848  0.0  0.119472  -7.8e-05  1.038324  0.0  0.101089  0.11357  -5.7e-05  1.041116  0.0
H  H25  1  0.44989061  0.72586963  0.20749505  1  0.11225  -0.000281  0.971439  0.0  0.122418  -7.1e-05  1.030559  0.0  0.12571  -8.8e-05  1.029124  0.0  0.104596  0.120013  -5e-05  1.031785  0.0
H  H26  1  0.39025426  0.09309307  0.36904933  1  0.116678  -0.000351  0.944573  0.0  0.125605  -9.9e-05  1.004121  0.0  0.129632  -0.000158  1.00161  0.0  0.107258  0.122612  -3.4e-05  1.006174  0.0
H  H27  1  0.07073000  0.36548356  0.86851788  1  0.099221  -0.000292  0.968682  0.0  0.108097  1.5e-05  1.03071  0.0  0.111913  -5.3e-05  1.028171  0.0  0.101457  0.10511  9.4e-05  1.033019  0.0
H  H28  1  0.60975008  0.90690868  0.63094948  1  0.116758  -0.000343  0.944596  0.0  0.125658  -9.9e-05  1.004161  0.0  0.129685  -0.000157  1.001649  0.0  0.107273  0.122666  -3.4e-05  1.006213  0.0
H  H29  1  0.92927654  0.63452017  0.13148433  1  0.099245  -0.000291  0.968654  0.0  0.108096  1.4e-05  1.030707  0.0  0.111912  -5.3e-05  1.028171  0.0  0.101458  0.105116  9.4e-05  1.033009  0.0
H  H30  1  0.45987413  0.01656734  0.23873093  1  0.095548  4.9e-05  0.962096  0.0  0.106097  -6e-06  1.022584  0.0  0.10899  -1.3e-05  1.020738  0.0  0.103583  0.103961  5e-06  1.024037  0.0
H  H31  1  0.01930284  0.45333773  0.74068351  1  0.093479  4.9e-05  0.955433  0.0  0.106451  -1e-06  1.012952  0.0  0.10906  -1.8e-05  1.011401  0.0  0.104519  0.104472  2.1e-05  1.014273  0.0
H  H32  1  0.54012912  0.98343771  0.76126736  1  0.095547  4.9e-05  0.962093  0.0  0.106116  -6e-06  1.02256  0.0  0.109009  -1.3e-05  1.020709  0.0  0.103611  0.103978  5e-06  1.024011  0.0
H  H33  1  0.98069102  0.54665777  0.25931973  1  0.093475  5.4e-05  0.955443  0.0  0.106436  -1e-06  1.01299  0.0  0.109057  -1.7e-05  1.011418  0.0  0.104529  0.104458  2.1e-05  1.01431  0.0
C  C34  1  0.25135170  0.09468058  0.18752512  1  -0.156105  0.006577  3.774849  0.006  -0.13073  0.006669  4.025408  0.006  -0.140404  0.005606  4.04973  0.005  -0.030569  -0.124661  0.008231  4.009129  0.007
C  C35  1  0.25569435  0.41143152  0.69375101  1  -0.157811  0.007692  3.79803  0.007  -0.134819  0.007535  4.052778  0.006  -0.144392  0.006422  4.076961  0.006  -0.032493  -0.128751  0.009179  4.036604  0.008
C  C36  1  0.74865753  0.90531775  0.81247309  1  -0.156119  0.006557  3.774963  0.006  -0.130846  0.006674  4.025653  0.006  -0.140471  0.005598  4.049953  0.005  -0.030617  -0.124784  0.00823  4.00939  0.007
C  C37  1  0.74430381  0.58856213  0.30625052  1  -0.15769  0.007702  3.798076  0.007  -0.134654  0.007535  4.052738  0.006  -0.144216  0.006419  4.076894  0.006  -0.03247  -0.128586  0.00918  4.036563  0.008
C  C38  1  0.11135860  0.16181724  0.20039433  1  -0.037602  -0.003974  3.780825  -0.003  -0.063339  -0.00107  4.031947  -0.001  -0.060633  -0.002059  4.052205  -0.001  -0.084334  -0.064881  -0.000189  4.018383  0.0
C  C39  1  0.40531288  0.36179750  0.70844244  1  -0.048499  -0.004943  3.808608  -0.004  -0.074125  -0.001701  4.059914  -0.001  -0.071841  -0.002758  4.081294  -0.002  -0.087639  -0.075441  -0.000818  4.045575  -0.001
C  C40  1  0.88864374  0.83818290  0.79960503  1  -0.037426  -0.003953  3.780857  -0.003  -0.063143  -0.001074  4.031976  -0.001  -0.060452  -0.002052  4.05221  -0.001  -0.08424  -0.064685  -0.000189  4.018412  0.0
C  C41  1  0.59468049  0.63819120  0.29155961  1  -0.04864  -0.004963  3.808651  -0.004  -0.074276  -0.001701  4.059929  -0.001  -0.071998  -0.002757  4.081317  -0.002  -0.087687  -0.075589  -0.000818  4.04559  -0.001
C  C42  1  0.07334582  0.20543797  0.27378170  1  -0.179884  0.005535  3.704326  0.005  -0.195483  0.004542  3.953806  0.004  -0.202938  0.004119  3.975044  0.004  -0.098398  -0.190579  0.005195  3.939616  0.004
C  C43  1  0.43171079  0.30914476  0.78016527  1  -0.171899  0.006709  3.705746  0.006  -0.189957  0.005325  3.957688  0.004  -0.197006  0.004885  3.978553  0.004  -0.09777  -0.185399  0.006041  3.94387  0.005
C  C44  1  0.92665285  0.79455689  0.72621479  1  -0.179872  0.005509  3.704246  0.005  -0.19548  0.004544  3.953728  0.004  -0.202934  0.004117  3.974965  0.004  -0.0984  -0.190575  0.005196  3.939536  0.004
C  C45  1  0.56828117  0.69085227  0.21983630  1  -0.171829  0.006727  3.705651  0.006  -0.189854  0.005325  3.957594  0.004  -0.196902  0.004888  3.978463  0.004  -0.097749  -0.185293  0.006042  3.943772  0.005
C  C46  1  0.17789276  0.18776895  0.33483529  1  0.308278  -0.004009  3.765369  -0.003  0.304407  -0.000121  4.013724  0.0  0.314449  -0.001671  4.034165  -0.001  0.097045  0.297299  0.00153  3.999801  0.002
C  C47  1  0.30616813  0.30134749  0.83745776  1  0.310217  -0.004965  3.770609  -0.003  0.305003  -0.000298  4.018788  0.0  0.315147  -0.002022  4.039057  -0.001  0.09652  0.297824  0.001454  4.005073  0.001
C  C48  1  0.82210771  0.81223277  0.66516295  1  0.308282  -0.003973  3.765417  -0.003  0.304416  -0.000122  4.013776  0.0  0.314458  -0.001669  4.034216  -0.001  0.097059  0.297305  0.001528  3.999856  0.002
C  C49  1  0.69383097  0.69865114  0.16254326  1  0.31019  -0.004981  3.770624  -0.003  0.304956  -0.000297  4.018824  0.0  0.3151  -0.002024  4.0391  -0.001  0.096555  0.297777  0.001454  4.005105  0.001
C  C50  1  0.31259351  0.11222932  0.32161118  1  -0.156961  0.005309  3.698141  0.005  -0.177015  0.004398  3.954201  0.004  -0.183259  0.003948  3.973744  0.004  -0.092565  -0.172964  0.005102  3.941346  0.004
C  C51  1  0.16377365  0.36376990  0.82339360  1  -0.157618  0.006439  3.715315  0.006  -0.175298  0.005093  3.967877  0.004  -0.181511  0.004663  3.987742  0.004  -0.09454  -0.171246  0.005813  3.954886  0.005
C  C52  1  0.68740515  0.88777407  0.67838708  1  -0.157038  0.005273  3.69825  0.005  -0.177066  0.004398  3.954291  0.004  -0.183307  0.003944  3.973831  0.004  -0.092571  -0.173017  0.0051  3.941435  0.004
C  C53  1  0.83622767  0.63623370  0.17660691  1  -0.157617  0.006454  3.715267  0.006  -0.175248  0.005094  3.967795  0.004  -0.181464  0.004665  3.987668  0.004  -0.094494  -0.171195  0.005814  3.954798  0.005
C  C54  1  0.35076133  0.06884616  0.24839261  1  -0.042979  -0.004136  3.764547  -0.003  -0.069505  -0.00162  4.016495  -0.001  -0.066976  -0.002427  4.036524  -0.002  -0.084904  -0.070911  -0.000985  4.002962  -0.001
C  C55  1  0.13604056  0.41445990  0.75162589  1  -0.036352  -0.005272  3.758131  -0.004  -0.063171  -0.002263  4.009624  -0.002  -0.060471  -0.003185  4.029572  -0.002  -0.083183  -0.064794  -0.001542  3.996207  -0.001
C  C56  1  0.64924039  0.93115550  0.75160507  1  -0.043035  -0.004113  3.764493  -0.003  -0.069551  -0.001624  4.016479  -0.001  -0.067037  -0.002421  4.03648  -0.002  -0.084954  -0.070955  -0.000986  4.002944  -0.001
C  C57  1  0.86394939  0.58552693  0.24837389  1  -0.036364  -0.005304  3.758247  -0.004  -0.0632  -0.002263  4.009725  -0.002  -0.060518  -0.003185  4.029696  -0.002  -0.083221  -0.06483  -0.001543  3.996329  -0.001
S  S58  1  0.29628350  0.02649502  0.09489246  1  1.330469  0.004357  5.571339  0.003  1.226044  0.007547  6.093736  0.005  1.275153  0.005754  6.069626  0.004  0.53007  1.19216  0.009313  6.109111  0.006
S  S59  1  0.22065024  0.47511711  0.60215650  1  1.308078  0.004163  5.622814  0.003  1.204887  0.007449  6.145492  0.004  1.253619  0.00574  6.121981  0.004  0.52172  1.171218  0.009116  6.160371  0.005
S  S60  1  0.70372125  0.97351338  0.90510585  1  1.330454  0.004354  5.571414  0.003  1.225985  0.007543  6.093883  0.005  1.27506  0.005755  6.069761  0.004  0.529988  1.192106  0.009309  6.109257  0.006
S  S61  1  0.77934148  0.52487652  0.39784447  1  1.308126  0.004168  5.622911  0.003  1.204919  0.007446  6.145553  0.004  1.253646  0.005738  6.122048  0.004  0.521712  1.171241  0.009116  6.160435  0.005
N  N62  1  0.15218147  0.25010415  0.40936963  1  -0.691559  0.027034  3.104152  0.014  -0.643377  0.02978  3.347084  0.012  -0.664764  0.027168  3.342612  0.01  -0.595733  -0.627166  0.032028  3.349537  0.013
N  N63  1  0.32486278  0.23301729  0.90919523  1  -0.702178  0.027626  3.122745  0.013  -0.651293  0.029447  3.366267  0.009  -0.673385  0.026889  3.361887  0.008  -0.603916  -0.634698  0.031678  3.368653  0.011
N  N64  1  0.84781402  0.74988931  0.59062966  1  -0.691554  0.027024  3.104334  0.014  -0.643388  0.029782  3.34728  0.012  -0.664774  0.027169  3.342811  0.01  -0.595738  -0.627177  0.03203  3.349733  0.013
N  N65  1  0.67514499  0.76698633  0.09080585  1  -0.702219  0.027637  3.122795  0.013  -0.651301  0.029451  3.366289  0.009  -0.673398  0.026895  3.361909  0.008  -0.603941  -0.634716  0.031683  3.36871  0.011
O  O66  1  0.46742177  0.23000938  0.06708794  1  -0.699261  0.029553  2.033488  0.016  -0.637953  0.037414  2.317981  0.021  -0.66351  0.03375  2.300597  0.018  -0.335499  -0.618868  0.040914  2.328971  0.024
O  O67  1  0.02983322  0.28301207  0.57104543  1  -0.693278  0.029805  2.009187  0.018  -0.629147  0.037538  2.285265  0.022  -0.654875  0.033695  2.26849  0.019  -0.338572  -0.609877  0.041232  2.295872  0.025
O  O68  1  0.53257711  0.77000596  0.93291269  1  -0.69933  0.029556  2.033652  0.016  -0.6379  0.037408  2.318024  0.021  -0.663466  0.033744  2.300683  0.018  -0.335467  -0.618811  0.040908  2.328998  0.024
O  O69  1  0.97016441  0.71698620  0.42895165  1  -0.693305  0.029803  2.009205  0.018  -0.629187  0.037542  2.285291  0.022  -0.654918  0.033698  2.268522  0.019  -0.3386  -0.609903  0.041233  2.295884  0.025
O  O70  1  0.11380637  0.94627579  0.04828505  1  -0.683233  -0.000252  1.985128  0.0  -0.625508  0.00026  2.23547  0.001  -0.646869  -0.000101  2.220419  0.001  -0.334659  -0.610797  0.000658  2.245704  0.002
O  O71  1  0.39031172  0.49934420  0.55906912  1  -0.677207  -0.000154  2.012389  0.0  -0.619762  0.00051  2.264113  0.001  -0.640993  0.000195  2.249754  0.001  -0.331479  -0.604971  0.000828  2.273708  0.001
O  O72  1  0.88619625  0.05371926  0.95171369  1  -0.68323  -0.000257  1.985067  0.0  -0.625543  0.000262  2.235488  0.001  -0.646897  -0.000103  2.220442  0.001  -0.33468  -0.610829  0.000657  2.245719  0.002
O  O73  1  0.60967952  0.50065121  0.44093299  1  -0.677178  -0.00016  2.012502  0.0  -0.619724  0.000511  2.264227  0.001  -0.640956  0.000195  2.249873  0.001  -0.331398  -0.60493  0.000828  2.273824  0.001
O  O74  1  0.34745010  0.84970561  0.10320770  1  -0.691294  0.002134  2.027077  0.003  -0.629125  0.003231  2.272723  0.004  -0.651301  0.002373  2.256987  0.003  -0.330432  -0.613424  0.00412  2.283025  0.005
O  O75  1  0.20664629  0.67989519  0.61007317  1  -0.678048  0.002078  1.975977  0.003  -0.618715  0.003144  2.217622  0.004  -0.6404  0.002278  2.201812  0.003  -0.331894  -0.603378  0.004078  2.228041  0.005
O  O76  1  0.65256730  0.15031097  0.89678902  1  -0.691395  0.002134  2.027103  0.003  -0.629143  0.003227  2.272695  0.004  -0.651313  0.002372  2.25697  0.003  -0.330433  -0.613456  0.004119  2.283006  0.005
O  O77  1  0.79334947  0.32010172  0.38992728  1  -0.678133  0.002079  1.975946  0.003  -0.618771  0.003143  2.217589  0.004  -0.640448  0.002275  2.201776  0.003  -0.331907  -0.603425  0.004077  2.228013  0.005
O  O78  1  0.20943500  0.44277648  0.03905228  1  -0.839681  0.029409  1.883314  0.017  -0.781494  0.039048  2.087126  0.022  -0.803363  0.035124  2.052728  0.02  -0.565162  -0.764988  0.04262  2.111144  0.025
O  O79  1  0.28966539  0.03935871  0.52868986  1  -0.822556  0.030549  1.8814  0.018  -0.764798  0.039539  2.087341  0.023  -0.786627  0.035484  2.05369  0.021  -0.562006  -0.74823  0.043237  2.110439  0.026
O  O80  1  0.79056549  0.55722529  0.96094653  1  -0.839694  0.029412  1.883373  0.017  -0.781474  0.039052  2.087248  0.022  -0.803343  0.035127  2.052851  0.02  -0.565176  -0.764968  0.042624  2.111264  0.025
O  O81  1  0.71033647  0.96064320  0.47131063  1  -0.82263  0.030551  1.881358  0.018  -0.764855  0.039542  2.087281  0.023  -0.786697  0.035487  2.053655  0.021  -0.561996  -0.748279  0.04324  2.110406  0.026
