# generated using pymatgen
data_Zn8H51C60N9O26
_symmetry_space_group_name_H-M   'P 1'
_cell_length_a   18.40470402
_cell_length_b   18.42594320
_cell_length_c   18.39767825
_cell_angle_alpha   90.35120468
_cell_angle_beta   119.70742974
_cell_angle_gamma   120.00136644
_symmetry_Int_Tables_number   1
_chemical_formula_structural   Zn8H51C60N9O26
_chemical_formula_sum   'Zn8 H51 C60 N9 O26'
_cell_volume   4417.49527571
_cell_formula_units_Z   1
loop_
 _symmetry_equiv_pos_site_id
 _symmetry_equiv_pos_as_xyz
  1  'x, y, z'
loop_
 _atom_site_type_symbol
 _atom_site_label
 _atom_site_symmetry_multiplicity
 _atom_site_fract_x
 _atom_site_fract_y
 _atom_site_fract_z
 _atom_site_occupancy
 _atom_site_pbe_bader_charge
 _atom_site_pbe_bader_spin_density
 _atom_site_pbe_cm5_charge
 _atom_site_pbe_ddec_charge
 _atom_site_pbe_ddec_spin_density
 _atom_site_pbe_ddec_sum_bond_order
 _atom_site_pbe_magmom
Zn  Zn0  1  0.41168622  0.86738223  0.95447979  1  1.303683  0  0.667031  0.953026  0  2.387379  0
Zn  Zn1  1  0.58185846  0.04128369  0.13027893  1  1.314308  0  0.677023  0.966712  0  2.377138  0
Zn  Zn2  1  0.41443221  0.04232909  0.95663428  1  1.320807  0  0.667666  0.952246  0  2.405696  0
Zn  Zn3  1  0.58579217  0.04006586  0.95556746  1  1.29184  0  0.665663  0.948614  0  2.393402  0
Zn  Zn4  1  0.58423532  0.63346046  0.54497975  1  1.308192  0  0.674218  0.969324  0  2.349811  0
Zn  Zn5  1  0.58481050  0.45822359  0.54487109  1  1.296095  0  0.670888  0.948847  0  2.407197  0
Zn  Zn6  1  0.41142367  0.45722442  0.37216710  1  1.307424  0  0.664932  0.949801  0  2.393088  0
Zn  Zn7  1  0.41261589  0.45702652  0.54659141  1  1.305363  0  0.669326  0.956974  0  2.398682  0
H  H8  1  0.44795389  0.59972141  0.75966582  1  0.029261  0  0.090112  0.089494  0  0.982077  0
H  H9  1  0.61350959  0.24911366  0.64168643  1  0.065516  0  0.097549  0.11025  0  0.992012  0
H  H10  1  0.71467664  0.34052357  0.74278897  1  0.058974  0  0.099013  0.110046  0  0.978892  0
H  H11  1  0.60693049  0.14257646  0.72881574  1  0.056164  0  0.096266  0.107708  0  0.983333  0
H  H12  1  0.70894245  0.23479844  0.82986917  1  0.068746  0  0.097761  0.107719  0  0.984251  0
H  H13  1  0.09099686  0.28606520  0.41560644  1  0.097777  0  0.106188  0.112689  0  0.994168  0
H  H14  1  0.08922709  0.25553763  0.12557937  1  0.038935  0  0.10921  0.065588  0  0.942329  0
H  H15  1  0.90799280  0.27073446  0.04240706  1  0.050891  0  0.099767  0.116876  0  0.978297  0
H  H16  1  0.38187632  0.70641228  0.58533567  1  0.044857  0  0.09607  0.098564  0  0.97129  0
H  H17  1  0.89843557  0.16997380  0.02689213  1  0.052414  0  0.098977  0.115169  0  0.98031  0
H  H18  1  0.50661397  0.17670997  0.41448185  1  0.036762  0  0.103326  0.054265  0  0.949302  0
H  H19  1  0.62873399  0.72427785  0.82257575  1  0.030897  0  0.095881  0.101786  0  0.975037  0
H  H20  1  0.64881361  0.17846398  0.37134794  1  0.066784  0  0.093709  0.111581  0  0.991395  0
H  H21  1  0.51715371  0.08972535  0.32084251  1  0.037804  0  0.090868  0.107192  0  0.993022  0
H  H22  1  0.38233197  0.58207957  0.17998000  1  0.053154  0  0.107311  0.114089  0  0.995028  0
H  H23  1  0.51060812  0.79416788  0.63068504  1  0.038644  0  0.098157  0.106436  0  0.986233  0
H  H24  1  0.70386206  0.87270711  0.46599522  1  0.068298  0  0.105578  0.063582  0  0.962287  0
H  H25  1  0.60162575  0.96087527  0.36135206  1  0.037621  0  0.104672  0.061795  0  0.968059  0
H  H26  1  0.65173990  0.89491572  0.84019521  1  0.023908  0  0.102972  0.047968  0  0.971555  0
H  H27  1  0.45241894  0.69176678  0.85203213  1  0.026401  0  0.088168  0.080452  0  0.991979  0
H  H28  1  0.34935289  0.68393205  0.75892819  1  0.034708  0  0.0921  0.093714  0  0.990462  0
H  H29  1  0.57605955  0.92522852  0.72079738  1  0.397768  0  0.278315  0.261551  0  0.986523  0
H  H30  1  0.09648389  0.91444173  0.81268922  1  0.066291  0  0.10561  0.111607  0  0.997063  0
H  H31  1  0.50870033  0.94230404  0.74275612  1  0.385459  0  0.27703  0.272111  0  0.98686  0
H  H32  1  0.67769867  0.88244015  0.97478251  1  0.381111  0  0.276754  0.268839  0  0.982819  0
H  H33  1  0.62887143  0.77546816  0.94364366  1  0.365631  0  0.275349  0.25893  0  0.989184  0
H  H34  1  0.80525747  0.47933840  0.58115870  1  0.427297  0  0.281639  0.274171  0  0.984581  0
H  H35  1  0.89904777  0.55072201  0.57387228  1  0.370147  0  0.278761  0.258822  0  0.977302  0
H  H36  1  0.08370902  0.64292190  0.66480079  1  0.368803  0  0.277335  0.256989  0  0.982379  0
H  H37  1  0.18471836  0.67494278  0.76479461  1  0.409987  0  0.279215  0.271241  0  0.985562  0
H  H38  1  0.89988212  0.19285584  0.31878373  1  0.100291  0  0.105841  0.112596  0  0.997655  0
H  H39  1  0.18862288  0.41365523  0.17706802  1  0.407879  0  0.278706  0.275677  0  0.983294  0
H  H40  1  0.08727442  0.41331634  0.14173526  1  0.364182  0  0.278731  0.263209  0  0.97639  0
H  H41  1  0.90557941  0.82070903  0.71345166  1  0.099142  0  0.106067  0.112207  0  0.994999  0
H  H42  1  0.43674992  0.22753522  0.03712973  1  0.499107  0  0.301011  0.315245  0  0.983328  0
H  H43  1  0.41991576  0.30817998  0.06078105  1  0.452258  0  0.315294  0.310819  0  0.933551  0
H  H44  1  0.45278755  0.35897998  0.19771173  1  0.078629  0  0.104084  0.119301  0  1.005211  0
H  H45  1  0.72457853  0.32002289  0.49708918  1  0.406565  0  0.279314  0.264944  0  0.986714  0
H  H46  1  0.67873308  0.24284789  0.53718318  1  0.389231  0  0.279835  0.259901  0  0.982928  0
H  H47  1  0.38934854  0.67561170  0.08349769  1  0.085332  0  0.107681  0.114575  0  0.99223  0
H  H48  1  0.64725794  0.92311178  0.53136117  1  0.385603  0  0.283171  0.265112  0  0.97805  0
H  H49  1  0.52786272  0.86294940  0.44159544  1  0.372058  0  0.28279  0.264261  0  0.976987  0
H  H50  1  0.76609616  0.95840103  0.37317603  1  0.385668  0  0.283221  0.264561  0  0.977212  0
H  H51  1  0.77988785  0.04163758  0.42656012  1  0.374677  0  0.283493  0.265267  0  0.977636  0
H  H52  1  0.90353380  0.53102894  0.73379488  1  0.060256  0  0.110482  0.069353  0  0.94763  0
H  H53  1  0.65814011  0.79885407  0.76560531  1  0.031085  0  0.095154  0.102323  0  0.98478  0
H  H54  1  0.34519663  0.59291855  0.66612868  1  0.042216  0  0.092238  0.09443  0  0.976844  0
H  H55  1  0.08929244  0.62093315  0.82524848  1  0.048299  0  0.107996  0.067236  0  0.948546  0
H  H56  1  0.38673847  0.19885359  0.79971340  1  0.076374  0  0.103528  0.109545  0  1.000243  0
H  H57  1  0.37356146  0.78365582  0.67647103  1  -0.00678  0  0.102802  0.050702  0  0.945928  0
H  H58  1  0.39166197  0.30185349  0.71259207  1  0.066285  0  0.106258  0.113022  0  0.995873  0
C  C59  1  0.77314858  0.13953509  0.13891003  1  1.488906  0  0.227168  0.609066  0  4.174397  0
C  C60  1  0.94663018  0.78996042  0.72946970  1  -0.051231  0  -0.083534  -0.097165  0  3.973366  0
C  C61  1  0.88877998  0.69653018  0.69324160  1  -0.02275  0  -0.014801  -0.062723  0  3.974981  0
C  C62  1  0.22288582  0.86105737  0.86776120  1  1.467952  0  0.227258  0.610082  0  4.163374  0
C  C63  1  0.94417070  0.65976538  0.71423059  1  -0.045024  0  -0.011179  -0.018483  0  3.898364  0
C  C64  1  0.93469604  0.57244709  0.70024166  1  0.34424  0  0.013972  0.106505  0  3.86551  0
C  C65  1  0.05787724  0.63328420  0.76191047  1  0.434533  0  0.011651  0.105157  0  3.868391  0
C  C66  1  0.55940210  0.21584701  0.76824823  1  -0.031702  0  -0.002691  0.063456  0  3.879248  0
C  C67  1  0.49671017  0.18708717  0.79833428  1  0.008542  0  -0.015417  -0.082726  0  3.984182  0
C  C68  1  0.43640646  0.21999114  0.77698063  1  -0.00799  0  -0.085863  -0.100682  0  3.991758  0
C  C69  1  0.43922949  0.27771999  0.72832962  1  -0.000988  0  -0.084914  -0.100687  0  3.990468  0
C  C70  1  0.42636153  0.70087672  0.78679994  1  -0.039235  0  -0.165727  -0.169639  0  3.91229  0
C  C71  1  0.50294278  0.30649826  0.69812786  1  -0.043953  0  -0.013416  -0.0781  0  3.979872  0
C  C72  1  0.56257414  0.27414607  0.71974381  1  0.015861  0  -0.001036  0.06677  0  3.878103  0
C  C73  1  0.64039624  0.27540895  0.71032773  1  -0.025283  0  -0.15046  -0.198541  0  3.876757  0
C  C74  1  0.49901183  0.85622522  0.13269256  1  1.58682  0  0.226632  0.605818  0  4.174263  0
C  C75  1  0.63673539  0.20926180  0.76502005  1  -0.049879  0  -0.151669  -0.200497  0  3.884619  0
C  C76  1  0.94481744  0.22888370  0.16120997  1  -0.094627  0  -0.003124  0.072563  0  3.909508  0
C  C77  1  0.88717926  0.19550595  0.19615226  1  0.020236  0  -0.014494  -0.078824  0  3.974957  0
C  C78  1  0.94288515  0.21767537  0.28952882  1  -0.043822  0  -0.083173  -0.095551  0  3.974004  0
C  C79  1  0.04983415  0.26972757  0.34369389  1  -0.003174  0  -0.083749  -0.09974  0  3.976435  0
C  C80  1  0.10747259  0.30210229  0.30754287  1  0.008446  0  -0.01451  -0.063667  0  3.986672  0
C  C81  1  0.49741521  0.79935025  0.80025408  1  -0.008907  0  -0.025806  -0.120285  0  3.777095  0
C  C82  1  0.05180113  0.28010357  0.21540952  1  0.046619  0  -0.012024  -0.027953  0  3.876182  0
C  C83  1  0.05987970  0.29076706  0.13647149  1  0.383183  0  0.011025  0.163758  0  3.895084  0
C  C84  1  0.93856983  0.23380345  0.07627073  1  -0.006304  0  -0.150763  -0.259404  0  3.859017  0
C  C85  1  0.54039950  0.20844428  0.28017554  1  -0.06018  0  -0.005978  0.094172  0  3.957668  0
C  C86  1  0.49344455  0.12695229  0.85191472  1  1.533549  0  0.225967  0.609486  0  4.17644  0
C  C87  1  0.50777567  0.20640731  0.19283396  1  0.052501  0  -0.032284  -0.213682  0  3.934206  0
C  C88  1  0.47743970  0.26463662  0.16349221  1  0.441977  0  0.113593  0.31253  0  4.073987  0
C  C89  1  0.47817267  0.31646714  0.22141727  1  0.036978  0  -0.101783  -0.234107  0  3.937403  0
C  C90  1  0.50900404  0.31524437  0.30741955  1  -0.055824  0  -0.012664  -0.035331  0  4.01441  0
C  C91  1  0.54221253  0.26060739  0.33675968  1  -0.00401  0  -0.026666  -0.053033  0  3.877894  0
C  C92  1  0.49467522  0.69719206  0.69865476  1  0.048186  0  -0.016799  0.029542  0  3.824137  0
C  C93  1  0.57088763  0.21961817  0.40909962  1  0.383779  0  0.011834  0.17286  0  3.896497  0
C  C94  1  0.57231226  0.16251434  0.34458531  1  -0.057338  0  -0.163021  -0.287438  0  3.886897  0
C  C95  1  0.55829453  0.83797670  0.28363371  1  -0.018086  0  -0.004241  0.006199  0  3.876828  0
C  C96  1  0.49988009  0.80066958  0.19117685  1  -0.045872  0  -0.010886  -0.060776  0  3.963643  0
C  C97  1  0.43639510  0.70693991  0.15539744  1  -0.001561  0  -0.080844  -0.095876  0  3.972237  0
C  C98  1  0.50433721  0.14617304  0.13644771  1  1.51361  0  0.220875  0.61619  0  4.16607  0
C  C99  1  0.43210495  0.65443181  0.20958402  1  -0.007632  0  -0.081101  -0.097651  0  3.970332  0
C  C100  1  0.49116366  0.69256625  0.30276016  1  0.043344  0  -0.009797  -0.05601  0  3.958029  0
C  C101  1  0.55398585  0.78547970  0.33764674  1  -0.062216  0  -0.004744  0.004313  0  3.884849  0
C  C102  1  0.63010628  0.86433424  0.42369520  1  0.351068  0  0.003233  0.081202  0  3.899906  0
C  C103  1  0.60426789  0.76237748  0.78357933  1  -0.023723  0  -0.157261  -0.236021  0  3.833846  0
C  C104  1  0.63538808  0.92567658  0.36086689  1  0.386541  0  0.004352  0.08331  0  3.895323  0
C  C105  1  0.50397961  0.36646900  0.64444249  1  1.537661  0  0.226591  0.606211  0  4.182936  0
C  C106  1  0.48966091  0.63569038  0.35999085  1  1.582669  0  0.226753  0.606525  0  4.173955  0
C  C107  1  0.77464700  0.64068574  0.63662981  1  1.524894  0  0.226446  0.606586  0  4.175175  0
C  C108  1  0.22148739  0.35696559  0.36500920  1  1.483266  0  0.226862  0.607897  0  4.172734  0
C  C109  1  0.50328878  0.36877124  0.36281338  1  1.5424  0  0.228538  0.609234  0  4.162657  0
C  C110  1  0.49707305  0.85834159  0.85764872  1  1.553224  0  0.227092  0.599421  0  4.119522  0
C  C111  1  0.49577575  0.64006002  0.63933632  1  1.568351  0  0.236458  0.607699  0  4.087254  0
C  C112  1  0.45420310  0.81010701  0.70522184  1  0.39345  0  0.010511  0.181773  0  3.81174  0
C  C113  1  0.45806584  0.75150001  0.64824253  1  -0.036777  0  -0.15261  -0.232178  0  3.825593  0
C  C114  1  0.42344585  0.64010527  0.72587652  1  -0.032946  0  -0.165781  -0.18279  0  3.899408  0
C  C115  1  0.60868729  0.82756008  0.84175211  1  0.362866  0  0.000236  0.173949  0  3.84013  0
C  C116  1  0.05118350  0.71232647  0.76950241  1  -5.8e-05  0  -0.01185  -0.018263  0  3.905238  0
C  C117  1  0.10890258  0.80457634  0.80754898  1  -0.025714  0  -0.015342  -0.065634  0  3.977678  0
C  C118  1  0.05354022  0.84244269  0.78509508  1  0.057359  0  -0.083501  -0.095988  0  3.974702  0
N  N119  1  0.50302790  0.89974606  0.70114018  1  -1.115553  0  -0.648178  -0.659508  0  3.192453  0
N  N120  1  0.66688974  0.83416666  0.93477589  1  -1.079971  0  -0.646796  -0.654787  0  3.180591  0
N  N121  1  0.88277333  0.51463946  0.61214356  1  -1.116387  0  -0.634844  -0.627762  0  3.21249  0
N  N122  1  0.10723771  0.62832098  0.72225913  1  -1.10931  0  -0.636299  -0.626915  0  3.205106  0
N  N123  1  0.11136151  0.37830577  0.12955224  1  -1.089768  0  -0.640755  -0.651466  0  3.184259  0
N  N124  1  0.44989505  0.27308396  0.08189111  1  -1.281015  0  -0.591011  -0.61723  0  3.346834  0
N  N125  1  0.66205583  0.27868277  0.49785993  1  -1.120671  0  -0.6308  -0.638562  0  3.23987  0
N  N126  1  0.59386638  0.86639116  0.47726546  1  -1.095759  0  -0.629106  -0.622017  0  3.24662  0
N  N127  1  0.73041107  0.98762031  0.37021843  1  -1.110618  0  -0.629864  -0.622759  0  3.24646  0
O  O128  1  0.49922114  0.99764572  0.99937531  1  -1.208488  0  -0.575231  -1.026227  0  2.552012  0
O  O129  1  0.26531026  0.37569353  0.32465554  1  -1.178749  0  -0.312656  -0.546955  0  2.341781  0
O  O130  1  0.55059863  0.37828215  0.44520385  1  -1.163904  0  -0.307782  -0.531131  0  2.361948  0
O  O131  1  0.73071440  0.11972644  0.05508363  1  -1.154377  0  -0.313735  -0.539173  0  2.33356  0
O  O132  1  0.43600904  0.55594582  0.61735315  1  -1.194015  0  -0.312412  -0.543994  0  2.36608  0
O  O133  1  0.45149059  0.40019524  0.32366664  1  -1.166762  0  -0.320376  -0.551795  0  2.325368  0
O  O134  1  0.55655203  0.68121409  0.61631079  1  -1.175334  0  -0.314394  -0.549451  0  2.34473  0
O  O135  1  0.73079317  0.68035975  0.62024351  1  -1.168549  0  -0.314465  -0.544597  0  2.326902  0
O  O136  1  0.26597671  0.38083322  0.44896534  1  -1.148398  0  -0.31434  -0.54318  0  2.335101  0
O  O137  1  0.56853294  0.39220867  0.62481614  1  -1.168382  0  -0.308118  -0.532506  0  2.341143  0
O  O138  1  0.41767835  0.55238049  0.32137156  1  -1.18389  0  -0.318866  -0.552524  0  2.328993  0
O  O139  1  0.44860700  0.81671622  0.04937193  1  -1.176767  0  -0.319539  -0.551874  0  2.320777  0
O  O140  1  0.26561975  0.82002771  0.88736538  1  -1.157678  0  -0.311394  -0.544612  0  2.34094  0
O  O141  1  0.54751630  0.93887530  0.17125557  1  -1.170195  0  -0.305168  -0.530566  0  2.373132  0
O  O142  1  0.43106379  0.10411805  0.87365660  1  -1.166383  0  -0.318357  -0.550395  0  2.346745  0
O  O143  1  0.54627805  0.10690442  0.17412122  1  -1.17059  0  -0.312257  -0.539593  0  2.337048  0
O  O144  1  0.57120429  0.94128540  0.89311413  1  -1.191376  0  -0.317752  -0.563816  0  2.368889  0
O  O145  1  0.45876594  0.13569748  0.05263926  1  -1.188913  0  -0.318593  -0.56106  0  2.352108  0
O  O146  1  0.42258190  0.82250074  0.86547365  1  -1.191115  0  -0.31664  -0.548949  0  2.35496  0
O  O147  1  0.55389195  0.10338525  0.87220886  1  -1.172536  0  -0.313392  -0.542646  0  2.319589  0
O  O148  1  0.72772518  0.11618580  0.17773485  1  -1.168939  0  -0.313322  -0.546973  0  2.349661  0
O  O149  1  0.26864388  0.94528693  0.89484630  1  -1.161227  0  -0.317237  -0.548583  0  2.336  0
O  O150  1  0.49863674  0.50227686  0.50226602  1  -1.194289  0  -0.573371  -1.027338  0  2.543263  0
O  O151  1  0.44044912  0.38658723  0.62197417  1  -1.164204  0  -0.315661  -0.546637  0  2.33668  0
O  O152  1  0.56178994  0.67510775  0.44265578  1  -1.177336  0  -0.306348  -0.534648  0  2.351056  0
O  O153  1  0.73033584  0.55664728  0.60950598  1  -1.17184  0  -0.310592  -0.543653  0  2.359436  0
