# generated using pymatgen
data_LaH9C7SO9
_symmetry_space_group_name_H-M   'P 1'
_cell_length_a   8.39384503
_cell_length_b   7.98929529
_cell_length_c   19.28727786
_cell_angle_alpha   90.00008237
_cell_angle_beta   89.99946753
_cell_angle_gamma   75.49846948
_symmetry_Int_Tables_number   1
_chemical_formula_structural   LaH9C7SO9
_chemical_formula_sum   'La4 H36 C28 S4 O36'
_cell_volume   1252.21513364
_cell_formula_units_Z   4
loop_
 _symmetry_equiv_pos_site_id
 _symmetry_equiv_pos_as_xyz
  1  'x, y, z'
loop_
 _atom_site_type_symbol
 _atom_site_label
 _atom_site_symmetry_multiplicity
 _atom_site_fract_x
 _atom_site_fract_y
 _atom_site_fract_z
 _atom_site_occupancy
 _atom_site_hle17_bader_spin_density
 _atom_site_hle17_ddec_charge
 _atom_site_hle17_ddec_spin_density
 _atom_site_hle17_ddec_sum_bond_order
 _atom_site_hle17_magmom
 _atom_site_hse06_10hf_bader_charge
 _atom_site_hse06_10hf_bader_spin_density
 _atom_site_hse06_10hf_ddec_charge
 _atom_site_hse06_10hf_ddec_spin_density
 _atom_site_hse06_10hf_ddec_sum_bond_order
 _atom_site_hse06_10hf_magmom
 _atom_site_hse06_bader_spin_density
 _atom_site_hse06_ddec_charge
 _atom_site_hse06_ddec_spin_density
 _atom_site_hse06_ddec_sum_bond_order
 _atom_site_hse06_magmom
 _atom_site_pbe_bader_spin_density
 _atom_site_pbe_cm5_charge
 _atom_site_pbe_ddec_charge
 _atom_site_pbe_ddec_spin_density
 _atom_site_pbe_ddec_sum_bond_order
 _atom_site_pbe_magmom
La  La0  1  0.34129796  0.33942062  0.51130537  1  0  2.125557  0  1.686975  0  2.304045  0  2.020255  0  2.172093  0  0  2.115005  0  2.081276  0  0  1.383975  1.949045  0  2.235339  0
La  La1  1  0.15870532  0.66057722  0.01130586  1  0  2.125628  0  1.686915  0  2.304087  0  2.0203  0  2.172087  0  0  2.11503  0  2.081313  0  0  1.383984  1.949112  0  2.235366  0
La  La2  1  0.65869925  0.66057249  0.48869591  1  0  2.1256  0  1.68694  0  2.3041  0  2.020288  0  2.172052  0  0  2.115029  0  2.081255  0  0  1.38401  1.94907  0  2.235293  0
La  La3  1  0.84130006  0.33942743  0.98869594  1  0  2.125575  0  1.687016  0  2.304086  0  2.020258  0  2.172148  0  0  2.114988  0  2.081372  0  0  1.383964  1.949045  0  2.235437  0
H  H4  1  0.11545528  0.08375620  0.57125576  1  0  0.445223  0  0.844116  0  0.671498  0  0.41615  0  0.903029  0  0  0.42692  0  0.887338  0  0  0.305054  0.408449  0  0.914236  0
H  H5  1  0.38453388  0.91624521  0.07125990  1  0  0.445234  0  0.844074  0  0.671578  0  0.416168  0  0.902978  0  0  0.426938  0  0.887288  0  0  0.305072  0.408477  0  0.914177  0
H  H6  1  0.88454739  0.91624124  0.42874397  1  0  0.445228  0  0.844113  0  0.671508  0  0.416154  0  0.903026  0  0  0.426924  0  0.887336  0  0  0.305043  0.408449  0  0.914239  0
H  H7  1  0.61546937  0.08375720  0.92873983  1  0  0.445159  0  0.844164  0  0.671595  0  0.416093  0  0.903068  0  0  0.426863  0  0.88738  0  0  0.305009  0.408394  0  0.91427  0
H  H8  1  0.23301879  0.97683271  0.51195580  1  0  0.415701  0  0.890633  0  0.6448  0  0.385714  0  0.953333  0  0  0.39658  0  0.937276  0  0  0.305216  0.377911  0  0.964857  0
H  H9  1  0.26697933  0.02316711  0.01195681  1  0  0.415637  0  0.890707  0  0.644825  0  0.385642  0  0.953429  0  0  0.396513  0  0.937363  0  0  0.305194  0.377848  0  0.964945  0
H  H10  1  0.76698219  0.02316874  0.48804237  1  0  0.415693  0  0.890656  0  0.64483  0  0.3857  0  0.953368  0  0  0.396568  0  0.937306  0  0  0.30522  0.377896  0  0.964893  0
H  H11  1  0.73301952  0.97683209  0.98804240  1  0  0.415711  0  0.890639  0  0.644817  0  0.38573  0  0.95333  0  0  0.396601  0  0.937265  0  0  0.305215  0.377928  0  0.964854  0
H  H12  1  0.11022415  0.17177095  0.41353122  1  0  0.427738  0  0.836608  0  0.638071  0  0.406016  0  0.896923  0  0  0.415494  0  0.882972  0  0  0.314146  0.399135  0  0.907058  0
H  H13  1  0.38977806  0.82823278  0.91353361  1  0  0.427702  0  0.83669  0  0.638114  0  0.40599  0  0.896959  0  0  0.415467  0  0.88301  0  0  0.314183  0.399116  0  0.907084  0
H  H14  1  0.88977502  0.82822568  0.58646643  1  0  0.427759  0  0.836658  0  0.638166  0  0.406045  0  0.896899  0  0  0.415523  0  0.882948  0  0  0.314153  0.399163  0  0.907037  0
H  H15  1  0.61022063  0.17176771  0.08646664  1  0  0.427698  0  0.836645  0  0.638112  0  0.405987  0  0.896952  0  0  0.415465  0  0.883001  0  0  0.314175  0.399119  0  0.90707  0
H  H16  1  0.02816364  0.37458365  0.41163979  1  0  0.448463  0  0.85434  0  0.664792  0  0.415828  0  0.92037  0  0  0.428359  0  0.902271  0  0  0.299914  0.406863  0  0.933296  0
H  H17  1  0.47183584  0.62542535  0.91163861  1  0  0.448414  0  0.85441  0  0.664817  0  0.415765  0  0.920464  0  0  0.428295  0  0.902365  0  0  0.299893  0.406808  0  0.933378  0
H  H18  1  0.97183521  0.62541555  0.58835890  1  0  0.448501  0  0.854286  0  0.664793  0  0.415871  0  0.92031  0  0  0.428402  0  0.90221  0  0  0.299935  0.406907  0  0.933235  0
H  H19  1  0.52816466  0.37457994  0.08836164  1  0  0.448434  0  0.85438  0  0.664803  0  0.415784  0  0.920433  0  0  0.428314  0  0.902335  0  0  0.299917  0.40683  0  0.933347  0
H  H20  1  0.41262982  0.00971125  0.41472030  1  0  0.428237  0  0.865655  0  0.642881  0  0.403848  0  0.918709  0  0  0.414112  0  0.903812  0  0  0.310419  0.396486  0  0.929368  0
H  H21  1  0.08738427  0.99028218  0.91471916  1  0  0.428286  0  0.865573  0  0.643106  0  0.403899  0  0.918644  0  0  0.414168  0  0.903738  0  0  0.310468  0.396546  0  0.929292  0
H  H22  1  0.58737025  0.99028780  0.58527891  1  0  0.428274  0  0.865607  0  0.642898  0  0.40387  0  0.918686  0  0  0.414135  0  0.903787  0  0  0.310442  0.396499  0  0.929353  0
H  H23  1  0.91261548  0.00971943  0.08527850  1  0  0.428273  0  0.865617  0  0.642944  0  0.403881  0  0.918681  0  0  0.414151  0  0.903773  0  0  0.310449  0.396531  0  0.929325  0
H  H24  1  0.58508616  0.05044384  0.41875940  1  0  0.435656  0  0.860576  0  0.6365  0  0.409956  0  0.915482  0  0  0.421087  0  0.89916  0  0  0.307625  0.401941  0  0.927229  0
H  H25  1  0.91492220  0.94954868  0.91876097  1  0  0.435605  0  0.860618  0  0.636572  0  0.409931  0  0.915477  0  0  0.421061  0  0.899157  0  0  0.307632  0.401923  0  0.927211  0
H  H26  1  0.41491348  0.94954894  0.58124033  1  0  0.435663  0  0.86056  0  0.636489  0  0.409962  0  0.915468  0  0  0.421092  0  0.899146  0  0  0.307642  0.401947  0  0.927215  0
H  H27  1  0.08507787  0.05045036  0.08123720  1  0  0.435579  0  0.860652  0  0.636571  0  0.409903  0  0.915517  0  0  0.421032  0  0.899197  0  0  0.307617  0.401894  0  0.927257  0
H  H28  1  0.63510577  0.27794899  0.31951758  1  0  0.121813  0  0.918635  0  0.079463  0  0.135281  0  0.968489  0  0  0.139164  0  0.966894  0  0  0.113807  0.132481  0  0.969888  0
H  H29  1  0.86487294  0.72204923  0.81951548  1  0  0.121738  0  0.918548  0  0.079495  0  0.135197  0  0.968428  0  0  0.139081  0  0.966833  0  0  0.113729  0.132388  0  0.969845  0
H  H30  1  0.36489068  0.72204042  0.68048578  1  0  0.121838  0  0.918588  0  0.079616  0  0.135275  0  0.968477  0  0  0.139158  0  0.966883  0  0  0.113789  0.132471  0  0.969891  0
H  H31  1  0.13511583  0.27795382  0.18048113  1  0  0.121812  0  0.918571  0  0.079521  0  0.135255  0  0.968463  0  0  0.139138  0  0.966868  0  0  0.113755  0.132455  0  0.96989  0
H  H32  1  0.54614656  0.34709933  0.19811459  1  0  0.096316  0  0.960508  0  0.049842  0  0.107938  0  1.019239  0  0  0.111638  0  1.015563  0  0  0.107547  0.105183  0  1.021943  0
H  H33  1  0.95384235  0.65289401  0.69811127  1  0  0.096386  0  0.960474  0  0.049628  0  0.107999  0  1.019203  0  0  0.111699  0  1.015527  0  0  0.107593  0.105249  0  1.021898  0
H  H34  1  0.45385977  0.65289763  0.80188825  1  0  0.09636  0  0.960547  0  0.049819  0  0.107974  0  1.019278  0  0  0.111669  0  1.015605  0  0  0.107575  0.105213  0  1.021978  0
H  H35  1  0.04614939  0.34709476  0.30188587  1  0  0.09637  0  0.960469  0  0.049826  0  0.107972  0  1.019215  0  0  0.111668  0  1.015546  0  0  0.107582  0.105225  0  1.021909  0
H  H36  1  0.15714105  0.77513261  0.26786939  1  0  0.12129  0  0.927577  0  0.12525  0  0.129171  0  0.988434  0  0  0.133185  0  0.984743  0  0  0.113824  0.126249  0  0.991083  0
H  H37  1  0.34286464  0.22488560  0.76786661  1  0  0.121285  0  0.927501  0  0.123182  0  0.129121  0  0.988407  0  0  0.133131  0  0.984719  0  0  0.113801  0.126195  0  0.991052  0
H  H38  1  0.84286772  0.22486403  0.73213345  1  0  0.121324  0  0.927471  0  0.125197  0  0.129176  0  0.988355  0  0  0.13319  0  0.984663  0  0  0.113803  0.126244  0  0.991006  0
H  H39  1  0.65713236  0.77511890  0.23213571  1  0  0.121331  0  0.927443  0  0.125293  0  0.12916  0  0.98837  0  0  0.133169  0  0.984674  0  0  0.113795  0.12623  0  0.99102  0
C  C40  1  0.31489813  0.62843390  0.34659448  1  0  -0.264753  0  3.744993  0  -0.311494  0  -0.245161  0  4.006417  0  0  -0.260847  0  4.028093  0  0  -0.029748  -0.23492  0  3.991892  0
C  C41  1  0.18510571  0.37156993  0.84659402  1  0  -0.264686  0  3.744583  0  -0.311445  0  -0.245351  0  4.006345  0  0  -0.261058  0  4.028032  0  0  -0.029794  -0.235114  0  3.991828  0
C  C42  1  0.68510205  0.37157396  0.65340732  1  0  -0.264594  0  3.74461  0  -0.311427  0  -0.245236  0  4.006351  0  0  -0.260951  0  4.028049  0  0  -0.029735  -0.235004  0  3.991831  0
C  C43  1  0.81489527  0.62843152  0.15340675  1  0  -0.264592  0  3.744596  0  -0.311393  0  -0.245259  0  4.006322  0  0  -0.260976  0  4.028026  0  0  -0.029717  -0.235035  0  3.991828  0
C  C44  1  0.45268778  0.48974879  0.36311926  1  0  0.383  0  3.878322  0  0.637401  0  0.366093  0  4.14234  0  0  0.385104  0  4.158766  0  0  0.098058  0.353195  0  4.130561  0
C  C45  1  0.04730841  0.51024585  0.86311848  1  0  0.382957  0  3.878221  0  0.692732  0  0.366112  0  4.142252  0  0  0.385137  0  4.158665  0  0  0.098116  0.353211  0  4.130481  0
C  C46  1  0.54731138  0.51024784  0.63688098  1  0  0.382975  0  3.878212  0  0.692611  0  0.366112  0  4.142271  0  0  0.385137  0  4.15868  0  0  0.098013  0.353214  0  4.130495  0
C  C47  1  0.95269012  0.48975592  0.13688124  1  0  0.382954  0  3.878117  0  0.693197  0  0.366161  0  4.142069  0  0  0.385188  0  4.158473  0  0  0.098071  0.353263  0  4.130317  0
C  C48  1  0.53099615  0.38634094  0.30783895  1  0  -0.174346  0  3.693592  0  0.007008  0  -0.19751  0  3.956131  0  0  -0.207442  0  3.974688  0  0  -0.093114  -0.191242  0  3.943741  0
C  C49  1  0.96899639  0.61365843  0.80783519  1  0  -0.174182  0  3.693311  0  -0.048688  0  -0.197331  0  3.955785  0  0  -0.207264  0  3.974342  0  0  -0.093059  -0.191067  0  3.943405  0
C  C50  1  0.46900392  0.61365810  0.69216234  1  0  -0.17436  0  3.693346  0  -0.048477  0  -0.197508  0  3.955875  0  0  -0.207438  0  3.97442  0  0  -0.093117  -0.191247  0  3.943506  0
C  C51  1  0.03099742  0.38634270  0.19216246  1  0  -0.174378  0  3.693313  0  -0.048866  0  -0.197538  0  3.95581  0  0  -0.207469  0  3.974356  0  0  -0.093115  -0.191281  0  3.943465  0
C  C52  1  0.47982908  0.42573742  0.24011797  1  0  -0.0168  0  3.716344  0  0.018191  0  -0.043538  0  3.968445  0  0  -0.037199  0  3.986216  0  0  -0.07215  -0.047189  0  3.956129  0
C  C53  1  0.02016353  0.57425908  0.74011513  1  0  -0.016913  0  3.716292  0  0.018785  0  -0.043628  0  3.968341  0  0  -0.037291  0  3.986113  0  0  -0.072159  -0.047271  0  3.955991  0
C  C54  1  0.52016977  0.57426178  0.75988331  1  0  -0.016884  0  3.716332  0  0.018619  0  -0.043599  0  3.968415  0  0  -0.037255  0  3.98618  0  0  -0.072186  -0.047246  0  3.956094  0
C  C55  1  0.97983150  0.42574188  0.25988460  1  0  -0.016855  0  3.716249  0  0.018356  0  -0.043568  0  3.968319  0  0  -0.037228  0  3.986088  0  0  -0.072156  -0.04721  0  3.95598  0
C  C56  1  0.34629766  0.56664114  0.22466492  1  0  -0.102926  0  3.781338  0  0.069779  0  -0.085301  0  4.029757  0  0  -0.099186  0  4.054955  0  0  -0.030514  -0.076485  0  4.012898  0
C  C57  1  0.15369986  0.43335615  0.72466076  1  0  -0.10298  0  3.781396  0  0.069481  0  -0.085331  0  4.029761  0  0  -0.099216  0  4.054957  0  0  -0.030562  -0.076519  0  4.012866  0
C  C58  1  0.65370485  0.43335758  0.77533636  1  0  -0.102955  0  3.781427  0  0.069278  0  -0.085323  0  4.029832  0  0  -0.099211  0  4.055031  0  0  -0.030566  -0.07652  0  4.012961  0
C  C59  1  0.84629989  0.56664546  0.27533949  1  0  -0.102988  0  3.781429  0  0.069373  0  -0.08533  0  4.02977  0  0  -0.099213  0  4.05496  0  0  -0.030563  -0.076526  0  4.012882  0
C  C60  1  0.26253648  0.66776232  0.27901763  1  0  -0.012926  0  3.714925  0  0.04206  0  -0.052502  0  3.969937  0  0  -0.044453  0  3.98662  0  0  -0.067931  -0.057376  0  3.958459  0
C  C61  1  0.23746528  0.33224331  0.77901649  1  0  -0.012821  0  3.714532  0  0.044138  0  -0.052292  0  3.969603  0  0  -0.044233  0  3.986283  0  0  -0.067886  -0.057165  0  3.958115  0
C  C62  1  0.73746465  0.33223785  0.72098314  1  0  -0.012981  0  3.714813  0  0.042108  0  -0.052469  0  3.969884  0  0  -0.044409  0  3.986566  0  0  -0.067902  -0.057341  0  3.958402  0
C  C63  1  0.76253341  0.66775717  0.22098479  1  0  -0.012873  0  3.714498  0  0.041983  0  -0.052342  0  3.969578  0  0  -0.044272  0  3.986246  0  0  -0.067869  -0.057217  0  3.958104  0
C  C64  1  0.28830269  0.60827927  0.15290337  1  0  0.643643  0  3.900801  0  1.549959  0  0.598049  0  4.196425  0  0  0.632824  0  4.192882  0  0  0.198309  0.574306  0  4.197978  0
C  C65  1  0.21169393  0.39172568  0.65289920  1  0  0.643344  0  3.901164  0  1.550061  0  0.597692  0  4.196885  0  0  0.632466  0  4.193361  0  0  0.198186  0.573963  0  4.198372  0
C  C66  1  0.71170056  0.39172314  0.84709687  1  0  0.643716  0  3.900825  0  1.550036  0  0.598081  0  4.196488  0  0  0.632858  0  4.192945  0  0  0.198338  0.574349  0  4.198001  0
C  C67  1  0.78830477  0.60827480  0.34710105  1  0  0.643404  0  3.901021  0  1.550205  0  0.597776  0  4.196689  0  0  0.632548  0  4.193161  0  0  0.198255  0.574051  0  4.198168  0
S  S68  1  0.21778095  0.75012164  0.41714262  1  0  1.353912  0  5.553233  0  3.16857  0  1.253298  0  6.068064  0  0  1.3041  0  6.043916  0  0  0.543118  1.217893  0  6.084085  0
S  S69  1  0.28222480  0.24986800  0.91714044  1  0  1.354005  0  5.552917  0  3.168442  0  1.25353  0  6.067745  0  0  1.304343  0  6.043579  0  0  0.543151  1.218136  0  6.083763  0
S  S70  1  0.78222018  0.24987852  0.58285918  1  0  1.353925  0  5.552942  0  3.168829  0  1.253387  0  6.067835  0  0  1.304198  0  6.04367  0  0  0.543118  1.21799  0  6.083832  0
S  S71  1  0.71777771  0.75013072  0.08286085  1  0  1.353938  0  5.552883  0  3.168202  0  1.253446  0  6.067739  0  0  1.304262  0  6.043569  0  0  0.543122  1.218062  0  6.083735  0
O  O72  1  0.16673022  0.63033850  0.46542716  1  0  -0.697826  0  2.001923  0  -1.353685  0  -0.648169  0  2.271889  0  0  -0.675668  0  2.258607  0  0  -0.361244  -0.628335  0  2.280361  0
O  O73  1  0.33326436  0.36966612  0.96542370  1  0  -0.697826  0  2.001943  0  -1.353732  0  -0.648134  0  2.271815  0  0  -0.675632  0  2.258528  0  0  -0.361225  -0.628316  0  2.280304  0
O  O74  1  0.83327489  0.36965862  0.53457620  1  0  -0.697838  0  2.001977  0  -1.353776  0  -0.648118  0  2.271831  0  0  -0.675617  0  2.258545  0  0  -0.361234  -0.628291  0  2.280293  0
O  O75  1  0.66673370  0.63033949  0.03457551  1  0  -0.697814  0  2.001884  0  -1.353628  0  -0.648109  0  2.271773  0  0  -0.675608  0  2.258484  0  0  -0.361201  -0.628282  0  2.280246  0
O  O76  1  0.22451138  0.06534473  0.54840153  1  0  -0.879981  0  1.910984  0  -1.310567  0  -0.824491  0  2.08563  0  0  -0.849281  0  2.053584  0  0  -0.595551  -0.806564  0  2.107959  0
O  O77  1  0.27548066  0.93465469  0.04840421  1  0  -0.879924  0  1.910998  0  -1.310657  0  -0.824429  0  2.085621  0  0  -0.849222  0  2.053587  0  0  -0.595522  -0.806509  0  2.107942  0
O  O78  1  0.77548837  0.93465688  0.45159613  1  0  -0.87999  0  1.910962  0  -1.310674  0  -0.824514  0  2.085628  0  0  -0.8493  0  2.053581  0  0  -0.595566  -0.806592  0  2.107961  0
O  O79  1  0.72452063  0.06534419  0.95159707  1  0  -0.879925  0  1.91105  0  -1.310709  0  -0.824455  0  2.085708  0  0  -0.849251  0  2.053668  0  0  -0.595499  -0.806526  0  2.108042  0
O  O80  1  0.34583272  0.82577175  0.45056889  1  0  -0.765013  0  2.072733  0  -1.365661  0  -0.698243  0  2.325447  0  0  -0.726243  0  2.31041  0  0  -0.350849  -0.678043  0  2.335206  0
O  O81  1  0.15416644  0.17421607  0.95056238  1  0  -0.765036  0  2.072661  0  -1.365624  0  -0.698297  0  2.325375  0  0  -0.726295  0  2.310326  0  0  -0.350807  -0.678115  0  2.335154  0
O  O82  1  0.65417329  0.17422778  0.54943291  1  0  -0.765075  0  2.072859  0  -1.365737  0  -0.69833  0  2.32561  0  0  -0.726332  0  2.310565  0  0  -0.350857  -0.678132  0  2.335355  0
O  O83  1  0.84583363  0.82578297  0.04943580  1  0  -0.76501  0  2.072632  0  -1.365519  0  -0.698273  0  2.325359  0  0  -0.726272  0  2.310309  0  0  -0.350785  -0.678081  0  2.335113  0
O  O84  1  0.13271419  0.28372601  0.42266145  1  0  -0.885073  0  1.821268  0  -1.29807  0  -0.83994  0  2.016679  0  0  -0.865034  0  1.984082  0  0  -0.628683  -0.821638  0  2.039474  0
O  O85  1  0.36729020  0.71627682  0.92266153  1  0  -0.884946  0  1.821431  0  -1.29813  0  -0.839803  0  2.016827  0  0  -0.864896  0  1.984235  0  0  -0.628671  -0.821495  0  2.0396  0
O  O86  1  0.86728375  0.71627079  0.57733724  1  0  -0.885155  0  1.821326  0  -1.298148  0  -0.840023  0  2.016658  0  0  -0.865125  0  1.984076  0  0  -0.628726  -0.821718  0  2.039451  0
O  O87  1  0.63271093  0.28372334  0.07733768  1  0  -0.884973  0  1.821315  0  -1.298104  0  -0.839832  0  2.016745  0  0  -0.864925  0  1.98415  0  0  -0.628688  -0.821519  0  2.039512  0
O  O88  1  0.08016694  0.89001532  0.39265456  1  0  -0.654739  0  1.911896  0  -1.359233  0  -0.597066  0  2.136718  0  0  -0.617516  0  2.11887  0  0  -0.325172  -0.582786  0  2.148923  0
O  O89  1  0.41984146  0.10998612  0.89264232  1  0  -0.654827  0  1.911842  0  -1.359078  0  -0.59722  0  2.136662  0  0  -0.617671  0  2.118808  0  0  -0.325265  -0.582935  0  2.148862  0
O  O90  1  0.91983525  0.10998596  0.60734776  1  0  -0.654809  0  1.911796  0  -1.359269  0  -0.59716  0  2.136616  0  0  -0.61761  0  2.118762  0  0  -0.325256  -0.58289  0  2.148822  0
O  O91  1  0.58016010  0.89002030  0.10735430  1  0  -0.654833  0  1.911806  0  -1.359039  0  -0.597235  0  2.136648  0  0  -0.617685  0  2.118792  0  0  -0.325296  -0.582962  0  2.148853  0
O  O92  1  0.46544519  0.10515253  0.42169872  1  0  -0.870617  0  1.85181  0  -1.274195  0  -0.826968  0  2.033964  0  0  -0.851762  0  2.002836  0  0  -0.627078  -0.808951  0  2.055709  0
O  O93  1  0.03456765  0.89484156  0.92169812  1  0  -0.870627  0  1.851761  0  -1.274496  0  -0.82702  0  2.033956  0  0  -0.851812  0  2.002829  0  0  -0.627129  -0.808994  0  2.055671  0
O  O94  1  0.53455642  0.89484379  0.57830153  1  0  -0.870654  0  1.851765  0  -1.274211  0  -0.827008  0  2.033913  0  0  -0.8518  0  2.002786  0  0  -0.627115  -0.808976  0  2.055682  0
O  O95  1  0.96543333  0.10515989  0.07829953  1  0  -0.870586  0  1.851808  0  -1.274356  0  -0.826981  0  2.033997  0  0  -0.851775  0  2.002869  0  0  -0.627106  -0.808953  0  2.05572  0
O  O96  1  0.50525603  0.46292909  0.42841789  1  0  -0.776206  0  2.086774  0  -1.242562  0  -0.735672  0  2.363786  0  0  -0.773217  0  2.361798  0  0  -0.472208  -0.707383  0  2.36327  0
O  O97  1  0.99474557  0.53706627  0.92841677  1  0  -0.77628  0  2.086899  0  -1.242482  0  -0.735684  0  2.363806  0  0  -0.773231  0  2.361816  0  0  -0.472211  -0.707416  0  2.363313  0
O  O98  1  0.49474956  0.53706418  0.57158443  1  0  -0.776196  0  2.086944  0  -1.242519  0  -0.735575  0  2.363805  0  0  -0.773126  0  2.36182  0  0  -0.472109  -0.707305  0  2.363305  0
O  O99  1  0.00524883  0.46293983  0.07158192  1  0  -0.776231  0  2.086846  0  -1.242553  0  -0.735671  0  2.363787  0  0  -0.773216  0  2.361793  0  0  -0.472191  -0.707405  0  2.36331  0
O  O100  1  0.36620258  0.52046240  0.10121138  1  0  -0.693035  0  2.020379  0  -1.231134  0  -0.642328  0  2.263412  0  0  -0.674471  0  2.254602  0  0  -0.377237  -0.619248  0  2.268595  0
O  O101  1  0.13378832  0.47955226  0.60120802  1  0  -0.692805  0  2.020337  0  -1.231158  0  -0.64216  0  2.263429  0  0  -0.674306  0  2.254629  0  0  -0.377191  -0.619079  0  2.268573  0
O  O102  1  0.63380768  0.47954162  0.89878991  1  0  -0.693154  0  2.020474  0  -1.231193  0  -0.642449  0  2.263555  0  0  -0.674593  0  2.25474  0  0  -0.37734  -0.619379  0  2.268719  0
O  O103  1  0.86621532  0.52046651  0.39879326  1  0  -0.692798  0  2.020296  0  -1.231232  0  -0.64215  0  2.263378  0  0  -0.674294  0  2.254576  0  0  -0.377201  -0.61907  0  2.268516  0
O  O104  1  0.15923081  0.72788504  0.14087602  1  0  -0.652358  0  1.961513  0  -1.20355  0  -0.610743  0  2.19525  0  0  -0.641287  0  2.190019  0  0  -0.369518  -0.588996  0  2.198012  0
O  O105  1  0.34075995  0.27210594  0.64087495  1  0  -0.652255  0  1.961491  0  -1.20348  0  -0.610557  0  2.195194  0  0  -0.64109  0  2.189944  0  0  -0.369444  -0.58883  0  2.197941  0
O  O106  1  0.84076077  0.27210502  0.85912630  1  0  -0.652342  0  1.961459  0  -1.203508  0  -0.610687  0  2.195185  0  0  -0.641225  0  2.189941  0  0  -0.369476  -0.588952  0  2.197931  0
O  O107  1  0.65923603  0.72788732  0.35912530  1  0  -0.652314  0  1.961475  0  -1.203474  0  -0.610632  0  2.195193  0  0  -0.64117  0  2.189954  0  0  -0.369527  -0.588906  0  2.19793  0
