# generated using pymatgen
data_Ag3PH5C7S2N(O3F2)3
_symmetry_space_group_name_H-M   'P 1'
_cell_length_a   9.05551666
_cell_length_b   9.53442497
_cell_length_c   12.34423260
_cell_angle_alpha   93.58569616
_cell_angle_beta   106.48218618
_cell_angle_gamma   117.51143383
_symmetry_Int_Tables_number   1
_chemical_formula_structural   Ag3PH5C7S2N(O3F2)3
_chemical_formula_sum   'Ag6 P2 H10 C14 S4 N2 O18 F12'
_cell_volume   882.62958783
_cell_formula_units_Z   2
loop_
 _symmetry_equiv_pos_site_id
 _symmetry_equiv_pos_as_xyz
  1  'x, y, z'
loop_
 _atom_site_type_symbol
 _atom_site_label
 _atom_site_symmetry_multiplicity
 _atom_site_fract_x
 _atom_site_fract_y
 _atom_site_fract_z
 _atom_site_occupancy
 _atom_site_pbe_bader_spin_density
 _atom_site_pbe_cm5_charge
 _atom_site_pbe_ddec_charge
 _atom_site_pbe_ddec_spin_density
 _atom_site_pbe_ddec_sum_bond_order
 _atom_site_pbe_magmom
Ag  Ag0  1  0.34643822  0.49697168  0.51217976  1  0  0.443428  0.550958  0  1.849559  0
Ag  Ag1  1  0.65355961  0.50302734  0.48781896  1  0  0.443427  0.550946  0  1.849553  0
Ag  Ag2  1  0.33928736  0.84370754  0.45871178  1  0  0.445614  0.576309  0  1.84172  0
Ag  Ag3  1  0.66071113  0.15629270  0.54128957  1  0  0.445608  0.57629  0  1.841731  0
Ag  Ag4  1  0.04930567  0.87204266  0.51713365  1  0  0.450667  0.593466  0  1.752333  0
Ag  Ag5  1  0.95069398  0.12795759  0.48286875  1  0  0.450675  0.5935  0  1.752304  0
P  P6  1  0.72176906  0.85195818  0.61364311  1  0  0.324749  1.192106  0  5.498576  0
P  P7  1  0.27823174  0.14804207  0.38635792  1  0  0.32473  1.192096  0  5.498608  0
H  H8  1  0.91331210  0.72738505  0.78156869  1  0  0.115042  0.136171  0  1.002865  0
H  H9  1  0.08668688  0.27261397  0.21843190  1  0  0.115044  0.13618  0  1.002822  0
H  H10  1  0.94301204  0.71772792  0.98897241  1  0  0.109054  0.115653  0  0.998891  0
H  H11  1  0.05698597  0.28227353  0.01102809  1  0  0.109053  0.115671  0  0.998871  0
H  H12  1  0.80220241  0.83608349  0.08590730  1  0  0.117401  0.135462  0  0.985919  0
H  H13  1  0.19779626  0.16391918  0.91409339  1  0  0.117403  0.13548  0  0.985871  0
H  H14  1  0.63697849  0.96060275  0.96915062  1  0  0.132519  0.12715  0  1.025116  0
H  H15  1  0.36301952  0.03939870  0.03084987  1  0  0.132538  0.127179  0  1.025064  0
H  H16  1  0.61781114  0.96221089  0.77722117  1  0  0.318702  0.285697  0  0.963811  0
H  H17  1  0.38218736  0.03778935  0.22277856  1  0  0.318708  0.285667  0  0.963849  0
C  C18  1  0.76179153  0.84748564  0.76645781  1  0  0.125896  -4.4e-05  0  3.829254  0
C  C19  1  0.23821109  0.15251582  0.23354446  1  0  0.12588  -7.2e-05  0  3.829242  0
C  C20  1  0.85565639  0.77829869  0.82658428  1  0  -0.06423  -0.097672  0  3.922482  0
C  C21  1  0.14434326  0.22170155  0.17341651  1  0  -0.064189  -0.097637  0  3.922406  0
C  C22  1  0.87129765  0.77353571  0.94206511  1  0  -0.052501  -0.014139  0  3.919877  0
C  C23  1  0.12870151  0.22646575  0.05793644  1  0  -0.052512  -0.014175  0  3.919857  0
C  C24  1  0.79371564  0.83859104  0.99633119  1  0  -0.06867  -0.111861  0  3.923172  0
C  C25  1  0.20628467  0.16141041  0.00366979  1  0  -0.068682  -0.111885  0  3.923187  0
C  C26  1  0.70267509  0.90843331  0.93391481  1  0  0.076758  0.10856  0  3.81698  0
C  C27  1  0.29732292  0.09156814  0.06608568  1  0  0.076704  0.10853  0  3.817074  0
C  C28  1  0.17216026  0.55697440  0.82527754  1  0  0.289957  0.514811  0  4.057656  0
C  C29  1  0.82784006  0.44302705  0.17472101  1  0  0.289963  0.514826  0  4.057615  0
C  C30  1  0.56230782  0.33158007  0.81051170  1  0  0.286612  0.51089  0  4.057163  0
C  C31  1  0.43769529  0.66842016  0.18948657  1  0  0.286604  0.510947  0  4.056944  0
S  S32  1  0.07805410  0.53076858  0.66515944  1  0  0.491084  1.020725  0  6.280797  0
S  S33  1  0.92194622  0.46923287  0.33483992  1  0  0.491063  1.020677  0  6.280823  0
S  S34  1  0.42433281  0.10529042  0.77089883  1  0  0.495035  1.016259  0  6.306576  0
S  S35  1  0.57566800  0.89470982  0.22910139  1  0  0.495037  1.016291  0  6.306646  0
N  N36  1  0.68949958  0.91068229  0.82278962  1  0  -0.32492  -0.102057  0  3.638972  0
N  N37  1  0.31050073  0.08931917  0.17721055  1  0  -0.324881  -0.102003  0  3.639057  0
O  O38  1  0.51703784  0.76156352  0.55865156  1  0  -0.388117  -0.705751  0  2.601084  0
O  O39  1  0.48296181  0.23843672  0.44134923  1  0  -0.388102  -0.705723  0  2.601093  0
O  O40  1  0.81022874  0.03281241  0.61230601  1  0  -0.377543  -0.689522  0  2.467677  0
O  O41  1  0.18976793  0.96718662  0.38769409  1  0  -0.377549  -0.689527  0  2.467642  0
O  O42  1  0.13106600  0.42188975  0.62025879  1  0  -0.339224  -0.569653  0  2.418921  0
O  O43  1  0.86893249  0.57811048  0.37974013  1  0  -0.339217  -0.569634  0  2.418878  0
O  O44  1  0.16259484  0.69458874  0.64671938  1  0  -0.329079  -0.554672  0  2.323326  0
O  O45  1  0.83740366  0.30541149  0.35327874  1  0  -0.329072  -0.554674  0  2.323244  0
O  O46  1  0.80683139  0.76383477  0.57142456  1  0  -0.378086  -0.689291  0  2.544011  0
O  O47  1  0.19316875  0.23616426  0.42857627  1  0  -0.378103  -0.689333  0  2.544062  0
O  O48  1  0.88612866  0.45476262  0.64228363  1  0  -0.342642  -0.575793  0  2.412034  0
O  O49  1  0.11387033  0.54523640  0.35771453  1  0  -0.342628  -0.575748  0  2.412111  0
O  O50  1  0.24758240  0.07687971  0.70526680  1  0  -0.332098  -0.550384  0  2.327076  0
O  O51  1  0.75241725  0.92312053  0.29473317  1  0  -0.332097  -0.550396  0  2.327134  0
O  O52  1  0.50992467  0.05778502  0.70182904  1  0  -0.335919  -0.599904  0  2.40984  0
O  O53  1  0.49007481  0.94221279  0.29817079  1  0  -0.335951  -0.599946  0  2.409863  0
O  O54  1  0.44627099  0.05841320  0.88151405  1  0  -0.325438  -0.53623  0  2.243485  0
O  O55  1  0.55372933  0.94158825  0.11848612  1  0  -0.325414  -0.536213  0  2.243487  0
F  F56  1  0.09820151  0.41163124  0.85486160  1  0  -0.09095  -0.174171  0  1.36462  0
F  F57  1  0.90179996  0.58837021  0.14513801  1  0  -0.09097  -0.174203  0  1.364604  0
F  F58  1  0.13939081  0.65911221  0.88298835  1  0  -0.089543  -0.175675  0  1.380465  0
F  F59  1  0.86061181  0.34088923  0.11701068  1  0  -0.089555  -0.175676  0  1.380444  0
F  F60  1  0.35038823  0.61876113  0.86132371  1  0  -0.092637  -0.176664  0  1.401657  0
F  F61  1  0.64961258  0.38123910  0.13867408  1  0  -0.09263  -0.176658  0  1.401678  0
F  F62  1  0.50572043  0.39602282  0.87957073  1  0  -0.097083  -0.181405  0  1.378435  0
F  F63  1  0.49428698  0.60398106  0.12042942  1  0  -0.097049  -0.181425  0  1.378287  0
F  F64  1  0.73598819  0.38050370  0.86849589  1  0  -0.100612  -0.185308  0  1.378292  0
F  F65  1  0.26401292  0.61949288  0.13150018  1  0  -0.100608  -0.185303  0  1.37827  0
F  F66  1  0.55209604  0.39345346  0.71420083  1  0  -0.093203  -0.194003  0  1.439081  0
F  F67  1  0.44790640  0.60654556  0.28579805  1  0  -0.093251  -0.194067  0  1.439021  0
