# generated using pymatgen
data_DyH19C24(N3O4)2
_symmetry_space_group_name_H-M   'P 1'
_cell_length_a   11.20951066
_cell_length_b   13.03488362
_cell_length_c   18.94554420
_cell_angle_alpha   89.99953493
_cell_angle_beta   89.13298360
_cell_angle_gamma   90.00016600
_symmetry_Int_Tables_number   1
_chemical_formula_structural   DyH19C24(N3O4)2
_chemical_formula_sum   'Dy4 H76 C96 N24 O32'
_cell_volume   2767.90494173
_cell_formula_units_Z   4
loop_
 _symmetry_equiv_pos_site_id
 _symmetry_equiv_pos_as_xyz
  1  'x, y, z'
loop_
 _atom_site_type_symbol
 _atom_site_label
 _atom_site_symmetry_multiplicity
 _atom_site_fract_x
 _atom_site_fract_y
 _atom_site_fract_z
 _atom_site_occupancy
 _atom_site_pbe_bader_charge
 _atom_site_pbe_bader_spin_density
 _atom_site_pbe_cm5_charge
 _atom_site_pbe_ddec_charge
 _atom_site_pbe_ddec_spin_density
 _atom_site_pbe_ddec_sum_bond_order
 _atom_site_pbe_magmom
Dy  Dy0  1  0.64884846  0.09413008  0.99538967  1  2.160308  0  1.506544  2.06337  0  2.178431  0
Dy  Dy1  1  0.85115354  0.59412466  0.50460807  1  2.160221  0  1.506492  2.063233  0  2.178576  0
Dy  Dy2  1  0.35114813  0.90587503  0.00460729  1  2.160205  0  1.506562  2.063282  0  2.178446  0
Dy  Dy3  1  0.14884661  0.40586895  0.49538890  1  2.160301  0  1.506565  2.063538  0  2.17817  0
H  H4  1  0.72950658  0.18474164  0.86786064  1  0.621179  0  0.320894  0.406827  0  0.886849  0
H  H5  1  0.77049930  0.68472837  0.63213608  1  0.621227  0  0.320822  0.406772  0  0.886871  0
H  H6  1  0.27048820  0.81526961  0.13213685  1  0.621172  0  0.320862  0.406774  0  0.886928  0
H  H7  1  0.22950085  0.31526370  0.36786089  1  0.621169  0  0.320857  0.406829  0  0.886815  0
H  H8  1  0.66224182  0.27767271  0.90818889  1  0.613291  0  0.289133  0.354249  0  1.013725  0
H  H9  1  0.83776520  0.77766470  0.59180943  1  0.613338  0  0.289113  0.354228  0  1.013729  0
H  H10  1  0.33775293  0.72233623  0.09180966  1  0.61336  0  0.289192  0.354315  0  1.013612  0
H  H11  1  0.16223847  0.22232737  0.40818914  1  0.613291  0  0.289143  0.354265  0  1.013689  0
H  H12  1  0.89321689  0.06934808  0.01370492  1  0.631804  0  0.315108  0.402601  0  0.903507  0
H  H13  1  0.60678719  0.56934325  0.48628842  1  0.631793  0  0.315111  0.402554  0  0.903588  0
H  H14  1  0.10678612  0.93065626  0.98628678  1  0.631758  0  0.315152  0.402589  0  0.90353  0
H  H15  1  0.39321039  0.43065112  0.51370538  1  0.631859  0  0.315115  0.40257  0  0.903553  0
H  H16  1  0.85007122  0.97267609  0.97487594  1  0.62633  0  0.315721  0.405836  0  0.899669  0
H  H17  1  0.64992835  0.47267555  0.52512336  1  0.626314  0  0.31575  0.405827  0  0.899672  0
H  H18  1  0.14992807  0.02732519  0.02511997  1  0.626306  0  0.315767  0.405818  0  0.899686  0
H  H19  1  0.35007543  0.52732266  0.47487204  1  0.626193  0  0.315706  0.405854  0  0.89963  0
H  H20  1  0.99267940  0.28207226  0.36255131  1  0.500179  0  0.314498  0.273719  0  1.004094  0
H  H21  1  0.50730896  0.78208202  0.13745188  1  0.500167  0  0.314524  0.273743  0  1.004258  0
H  H22  1  0.00732607  0.71791904  0.63744673  1  0.500169  0  0.314496  0.273574  0  1.004284  0
H  H23  1  0.49268927  0.21792923  0.86254931  1  0.500282  0  0.31453  0.273755  0  1.004154  0
H  H24  1  0.98557444  0.92292044  0.21244542  1  0.474868  0  0.333795  0.288791  0  0.906092  0
H  H25  1  0.51441534  0.42292949  0.28755539  1  0.474776  0  0.333841  0.288888  0  0.906104  0
H  H26  1  0.01441840  0.07706856  0.78755681  1  0.474743  0  0.333808  0.288827  0  0.906163  0
H  H27  1  0.48558471  0.57708483  0.71244475  1  0.474865  0  0.333707  0.288661  0  0.906308  0
H  H28  1  0.17560405  0.09365061  0.49630022  1  0.507721  0  0.320725  0.290302  0  0.942623  0
H  H29  1  0.32439953  0.59365588  0.00369564  1  0.507723  0  0.320721  0.290278  0  0.942571  0
H  H30  1  0.82439339  0.90634222  0.50369781  1  0.507559  0  0.320755  0.290328  0  0.942506  0
H  H31  1  0.67559876  0.40634540  0.99630344  1  0.507639  0  0.320766  0.290387  0  0.942465  0
H  H32  1  0.89136693  0.14841866  0.19894485  1  0.13048  0  0.102142  0.118666  0  1.059173  0
H  H33  1  0.60863265  0.64842368  0.30105701  1  0.13056  0  0.102084  0.118619  0  1.059239  0
H  H34  1  0.10864216  0.85157111  0.80105162  1  0.130654  0  0.10216  0.118664  0  1.059312  0
H  H35  1  0.39137367  0.35158066  0.69894210  1  0.130445  0  0.102145  0.118722  0  1.059218  0
H  H36  1  0.89844238  0.42283156  0.32640988  1  0.100948  0  0.109385  0.121245  0  1.011001  0
H  H37  1  0.60153737  0.92284268  0.17359724  1  0.101464  0  0.109444  0.121405  0  1.010844  0
H  H38  1  0.10157104  0.57715667  0.67359030  1  0.100942  0  0.109354  0.121301  0  1.01077  0
H  H39  1  0.39844273  0.07717164  0.82641234  1  0.100949  0  0.109451  0.121392  0  1.010889  0
H  H40  1  0.76153547  0.50829102  0.24385728  1  0.099246  0  0.103816  0.107945  0  1.003015  0
H  H41  1  0.73844131  0.00830486  0.25614636  1  0.099177  0  0.103796  0.107842  0  1.003075  0
H  H42  1  0.23847252  0.49170028  0.75614552  1  0.099277  0  0.103789  0.107958  0  1.003241  0
H  H43  1  0.26153705  0.99171022  0.74386217  1  0.099241  0  0.103834  0.107926  0  1.003093  0
H  H44  1  0.68759292  0.41318367  0.13838893  1  0.082015  0  0.098099  0.098691  0  1.036533  0
H  H45  1  0.81239775  0.91319696  0.36161089  1  0.082044  0  0.098052  0.098657  0  1.036654  0
H  H46  1  0.31241419  0.58680993  0.86161334  1  0.081838  0  0.098071  0.098713  0  1.036512  0
H  H47  1  0.18759598  0.08681582  0.63839135  1  0.082086  0  0.098114  0.098688  0  1.0365  0
H  H48  1  0.01235853  0.75663445  0.36805336  1  0.145554  0  0.111094  0.125309  0  1.038208  0
H  H49  1  0.48766134  0.25664043  0.13195112  1  0.145132  0  0.111063  0.125366  0  1.038069  0
H  H50  1  0.98764489  0.24336223  0.63195259  1  0.145661  0  0.11109  0.125345  0  1.038305  0
H  H51  1  0.51235374  0.74337081  0.86805328  1  0.145614  0  0.111108  0.125374  0  1.038123  0
H  H52  1  0.15291610  0.50533891  0.24413774  1  0.087878  0  0.104759  0.113793  0  0.994351  0
H  H53  1  0.34707547  0.00534230  0.25586227  1  0.087929  0  0.104707  0.113669  0  0.994322  0
H  H54  1  0.84708748  0.49466313  0.75586346  1  0.087925  0  0.104719  0.113677  0  0.994323  0
H  H55  1  0.65291306  0.99466818  0.74413572  1  0.087772  0  0.104756  0.113777  0  0.994356  0
H  H56  1  0.14924950  0.61661556  0.13607594  1  0.077959  0  0.103958  0.105748  0  0.995894  0
H  H57  1  0.35074865  0.11661769  0.36392452  1  0.077909  0  0.103958  0.105765  0  0.995922  0
H  H58  1  0.85075669  0.38338341  0.86392738  1  0.077849  0  0.103955  0.105778  0  0.995897  0
H  H59  1  0.64925407  0.88339202  0.63607562  1  0.078423  0  0.103924  0.105784  0  0.99583  0
H  H60  1  0.08165348  0.79676202  0.14539081  1  0.08554  0  0.110923  0.121854  0  1.006024  0
H  H61  1  0.41834349  0.29676750  0.35460864  1  0.085546  0  0.110933  0.12186  0  1.005959  0
H  H62  1  0.91834293  0.20323235  0.85461144  1  0.085482  0  0.110925  0.121849  0  1.005983  0
H  H63  1  0.58166457  0.70324297  0.64539205  1  0.08556  0  0.110919  0.121861  0  1.006049  0
H  H64  1  0.07097495  0.83157128  0.47351163  1  0.123244  0  0.112054  0.12744  0  1.025183  0
H  H65  1  0.42903098  0.33157222  0.02648976  1  0.123158  0  0.112033  0.127438  0  1.025068  0
H  H66  1  0.92901971  0.16842309  0.52648955  1  0.123301  0  0.112052  0.127519  0  1.025081  0
H  H67  1  0.57097103  0.66842522  0.97350511  1  0.123085  0  0.112011  0.127414  0  1.025026  0
H  H68  1  0.33880792  0.70577760  0.60963566  1  0.057347  0  0.099757  0.101806  0  1.012743  0
H  H69  1  0.16120018  0.20578583  0.89036202  1  0.05748  0  0.099754  0.101769  0  1.012908  0
H  H70  1  0.66119316  0.29421216  0.39036026  1  0.057758  0  0.099768  0.101829  0  1.012825  0
H  H71  1  0.83880011  0.79422005  0.10963073  1  0.057501  0  0.099742  0.101794  0  1.012993  0
H  H72  1  0.42882777  0.88034615  0.62158244  1  0.079732  0  0.096868  0.094566  0  1.045925  0
H  H73  1  0.07118088  0.38035735  0.87841532  1  0.080103  0  0.096865  0.094665  0  1.045758  0
H  H74  1  0.57116691  0.11964285  0.37841822  1  0.079977  0  0.09687  0.094662  0  1.045729  0
H  H75  1  0.92881656  0.61965237  0.12158270  1  0.080123  0  0.096888  0.094653  0  1.045848  0
H  H76  1  0.34863394  0.02631657  0.55341406  1  0.104504  0  0.106772  0.11457  0  0.999335  0
H  H77  1  0.15137162  0.52632076  0.94658937  1  0.104504  0  0.106803  0.114664  0  0.999337  0
H  H78  1  0.65135691  0.97367703  0.44659450  1  0.10454  0  0.10673  0.114569  0  0.999283  0
H  H79  1  0.84862551  0.47368051  0.05341815  1  0.104548  0  0.106763  0.114582  0  0.99928  0
C  C80  1  0.74430235  0.21887844  0.09958148  1  1.51621  0  0.195034  0.579103  0  4.208767  0
C  C81  1  0.75570209  0.71887731  0.40041524  1  1.516056  0  0.195026  0.579196  0  4.208753  0
C  C82  1  0.25570314  0.78112360  0.90041603  1  1.516234  0  0.194937  0.579173  0  4.208638  0
C  C83  1  0.24430518  0.28112243  0.59958228  1  1.516084  0  0.194997  0.579036  0  4.208744  0
C  C84  1  0.78694947  0.27642525  0.16220376  1  -0.027669  0  -0.022616  -0.023887  0  4.004774  0
C  C85  1  0.71305236  0.77643012  0.33779633  1  -0.027794  0  -0.022604  -0.024075  0  4.004928  0
C  C86  1  0.21306134  0.72356452  0.83779483  1  -0.028271  0  -0.022591  -0.024114  0  4.00499  0
C  C87  1  0.28694947  0.22357499  0.66220381  1  -0.027001  0  -0.022628  -0.02385  0  4.004678  0
C  C88  1  0.86410589  0.22704987  0.20878943  1  -0.029935  0  -0.093365  -0.191813  0  3.905977  0
C  C89  1  0.63588862  0.72705509  0.29121145  1  -0.029867  0  -0.093417  -0.191835  0  3.905903  0
C  C90  1  0.13590046  0.77294680  0.79120915  1  -0.029215  0  -0.093472  -0.191806  0  3.905655  0
C  C91  1  0.36411317  0.27295386  0.70878975  1  -0.030618  0  -0.093362  -0.191905  0  3.905961  0
C  C92  1  0.90406491  0.27932699  0.26844014  1  0.337091  0  0.097805  0.246169  0  4.031335  0
C  C93  1  0.59592339  0.77933434  0.23156464  1  0.337076  0  0.097997  0.24635  0  4.031056  0
C  C94  1  0.09594411  0.72066431  0.73155844  1  0.336791  0  0.097871  0.246236  0  4.030939  0
C  C95  1  0.40406854  0.22067538  0.76843811  1  0.337074  0  0.097926  0.246348  0  4.03109  0
C  C96  1  0.86730172  0.38161701  0.28006457  1  -0.044904  0  -0.091101  -0.177587  0  3.937006  0
C  C97  1  0.63267703  0.88162612  0.21994225  1  -0.046096  0  -0.091262  -0.177949  0  3.937091  0
C  C98  1  0.13270898  0.61837429  0.71993718  1  -0.045402  0  -0.091007  -0.177626  0  3.936602  0
C  C99  1  0.36730399  0.11838513  0.78006681  1  -0.044493  0  -0.091367  -0.177992  0  3.936992  0
C  C100  1  0.79040489  0.42975340  0.23355985  1  -0.010103  0  -0.092696  -0.071263  0  4.034491  0
C  C101  1  0.70957589  0.92976063  0.26644407  1  -0.009533  0  -0.092508  -0.070805  0  4.03447  0
C  C102  1  0.20960578  0.57023637  0.76644296  1  -0.010186  0  -0.092579  -0.071152  0  4.034709  0
C  C103  1  0.29040693  0.07024755  0.73356447  1  -0.010444  0  -0.092565  -0.071093  0  4.034435  0
C  C104  1  0.74918350  0.37722465  0.17460736  1  -0.07247  0  -0.096078  -0.118888  0  4.008023  0
C  C105  1  0.75081136  0.87723052  0.32539742  1  -0.072301  0  -0.096103  -0.118955  0  4.00825  0
C  C106  1  0.25082627  0.62277203  0.82539545  1  -0.071443  0  -0.096121  -0.118935  0  4.008639  0
C  C107  1  0.24918489  0.12277919  0.67460957  1  -0.072445  0  -0.096094  -0.11886  0  4.007855  0
C  C108  1  0.01494265  0.13838442  0.33046441  1  1.607449  0  0.353613  0.558555  0  4.105151  0
C  C109  1  0.48504569  0.63839429  0.16953802  1  1.607616  0  0.353461  0.558331  0  4.105195  0
C  C110  1  0.98506367  0.86160534  0.66953469  1  1.607628  0  0.353532  0.558554  0  4.105208  0
C  C111  1  0.51494723  0.36161619  0.83046210  1  1.607457  0  0.353611  0.55863  0  4.104883  0
C  C112  1  0.03091703  0.96885996  0.30802370  1  1.555536  0  0.351658  0.545023  0  4.12963  0
C  C113  1  0.46907859  0.46886750  0.19197900  1  1.555038  0  0.351655  0.545077  0  4.129574  0
C  C114  1  0.96908030  0.03112980  0.69197749  1  1.555571  0  0.351629  0.544994  0  4.12974  0
C  C115  1  0.53092410  0.53114298  0.80802220  1  1.55554  0  0.351691  0.544898  0  4.129824  0
C  C116  1  0.10586528  0.03103061  0.40887563  1  1.558743  0  0.35304  0.550528  0  4.124579  0
C  C117  1  0.39413713  0.53104116  0.09112268  1  1.558804  0  0.352964  0.550134  0  4.124733  0
C  C118  1  0.89413746  0.96895685  0.59112399  1  1.558677  0  0.353049  0.550252  0  4.124569  0
C  C119  1  0.60586297  0.46896855  0.90887587  1  1.558489  0  0.353034  0.550524  0  4.124421  0
C  C120  1  0.04927885  0.79015750  0.25804430  1  0.31073  0  0.098582  0.244431  0  4.037762  0
C  C121  1  0.45072426  0.29016286  0.24195784  1  0.310665  0  0.098511  0.244444  0  4.037463  0
C  C122  1  0.95071671  0.20983687  0.74195688  1  0.310465  0  0.098588  0.244607  0  4.037363  0
C  C123  1  0.54928205  0.70984609  0.75804179  1  0.310923  0  0.098655  0.244513  0  4.037637  0
C  C124  1  0.04499841  0.72683782  0.31778997  1  -0.000775  0  -0.080077  -0.176284  0  3.882807  0
C  C125  1  0.45500624  0.22683852  0.18221306  1  -0.000272  0  -0.080034  -0.176351  0  3.882737  0
C  C126  1  0.95499794  0.27315502  0.68221385  1  -0.000587  0  -0.080101  -0.176433  0  3.88321  0
C  C127  1  0.54499820  0.77316889  0.81778921  1  -0.000828  0  -0.080114  -0.176357  0  3.882675  0
C  C128  1  0.08185716  0.62443346  0.31184739  1  -0.011724  0  -0.013246  -0.017528  0  3.963411  0
C  C129  1  0.41814547  0.12443860  0.18815304  1  -0.011559  0  -0.01332  -0.01762  0  3.963764  0
C  C130  1  0.91814098  0.37556014  0.68815644  1  -0.011603  0  -0.013258  -0.017535  0  3.963621  0
C  C131  1  0.58185096  0.87557035  0.81184867  1  -0.011672  0  -0.013205  -0.017459  0  3.963622  0
C  C132  1  0.12278013  0.58466676  0.24710725  1  -0.037584  0  -0.090305  -0.112741  0  3.976457  0
C  C133  1  0.37722067  0.08467256  0.25289077  1  -0.037953  0  -0.090173  -0.112502  0  3.976144  0
C  C134  1  0.87722529  0.41532992  0.75289238  1  -0.038052  0  -0.09021  -0.112538  0  3.976161  0
C  C135  1  0.62277054  0.91533945  0.74710671  1  -0.037556  0  -0.090339  -0.112794  0  3.976302  0
C  C136  1  0.12077963  0.64665999  0.18729556  1  0.029087  0  -0.092551  -0.064739  0  4.045449  0
C  C137  1  0.37922481  0.14666586  0.31270633  1  0.029334  0  -0.092585  -0.064834  0  4.045593  0
C  C138  1  0.87922741  0.35333592  0.81270882  1  0.029188  0  -0.092588  -0.064804  0  4.045437  0
C  C139  1  0.62077610  0.85334615  0.68729486  1  0.028419  0  -0.092513  -0.064685  0  4.045472  0
C  C140  1  0.08348071  0.74848437  0.19247146  1  -0.096085  0  -0.093736  -0.195837  0  3.97239  0
C  C141  1  0.41652043  0.24848350  0.30753197  1  -0.09626  0  -0.093776  -0.19585  0  3.972479  0
C  C142  1  0.91651914  0.25151537  0.80753449  1  -0.095893  0  -0.093825  -0.196004  0  3.972328  0
C  C143  1  0.58348310  0.75152008  0.69247082  1  -0.095767  0  -0.09376  -0.195968  0  3.972815  0
C  C144  1  0.07546037  0.55550343  0.37476552  1  1.565305  0  0.228955  0.647572  0  4.158575  0
C  C145  1  0.42454291  0.05550856  0.12523583  1  1.56534  0  0.229034  0.647646  0  4.158895  0
C  C146  1  0.92454325  0.44449018  0.62523463  1  1.56545  0  0.229098  0.647747  0  4.158461  0
C  C147  1  0.57545179  0.94450039  0.87476429  1  1.56527  0  0.228883  0.647444  0  4.158956  0
C  C148  1  0.20726626  0.93758448  0.50670683  1  0.305622  0  0.094397  0.240448  0  4.039166  0
C  C149  1  0.29273536  0.43759337  0.99329323  1  0.305583  0  0.094399  0.240448  0  4.039187  0
C  C150  1  0.79272652  0.06240605  0.49329752  1  0.305985  0  0.094302  0.240328  0  4.038986  0
C  C151  1  0.70726115  0.56241174  0.00670585  1  0.305683  0  0.094366  0.240405  0  4.039218  0
C  C152  1  0.15202568  0.84157974  0.50346672  1  -0.010993  0  -0.086487  -0.183763  0  3.914419  0
C  C153  1  0.34797830  0.34158490  0.99653388  1  -0.010928  0  -0.086383  -0.183845  0  3.914015  0
C  C154  1  0.84796889  0.15841310  0.49653711  1  -0.011075  0  -0.086389  -0.183891  0  3.914274  0
C  C155  1  0.65202009  0.65841484  0.00346256  1  -0.011069  0  -0.086362  -0.183831  0  3.914157  0
C  C156  1  0.20157408  0.75859381  0.53950976  1  -0.01844  0  -0.018864  -0.028324  0  3.990339  0
C  C157  1  0.29843589  0.25860080  0.96049026  1  -0.018545  0  -0.018949  -0.028012  0  3.99025  0
C  C158  1  0.79842591  0.24139826  0.46049196  1  -0.018688  0  -0.018901  -0.028162  0  3.990204  0
C  C159  1  0.70156347  0.74140354  0.03950354  1  -0.018494  0  -0.018916  -0.028062  0  3.989992  0
C  C160  1  0.30317053  0.77096281  0.58074084  1  -0.075071  0  -0.095484  -0.119271  0  3.991226  0
C  C161  1  0.19683678  0.27097156  0.91926017  1  -0.074685  0  -0.09544  -0.119329  0  3.991463  0
C  C162  1  0.69682777  0.22902695  0.41925824  1  -0.075253  0  -0.095424  -0.119286  0  3.991382  0
C  C163  1  0.80316698  0.72903585  0.08073576  1  -0.074507  0  -0.095459  -0.11941  0  3.991231  0
C  C164  1  0.35347607  0.86831546  0.58698108  1  -0.002309  0  -0.09442  -0.065336  0  4.038753  0
C  C165  1  0.14653244  0.36832184  0.91301991  1  -0.002676  0  -0.094375  -0.065394  0  4.038545  0
C  C166  1  0.64651855  0.13167738  0.41302116  1  -0.002652  0  -0.094473  -0.065574  0  4.038621  0
C  C167  1  0.85346945  0.63168250  0.08697865  1  -0.002642  0  -0.094411  -0.065377  0  4.038633  0
C  C168  1  0.30758408  0.95073753  0.54933928  1  -0.032253  0  -0.093164  -0.180633  0  3.972619  0
C  C169  1  0.19242276  0.45074666  0.95066599  1  -0.0324  0  -0.093249  -0.18083  0  3.972858  0
C  C170  1  0.69240950  0.04925300  0.45066771  1  -0.032338  0  -0.09313  -0.180582  0  3.972233  0
C  C171  1  0.80757624  0.54925998  0.04933889  1  -0.032634  0  -0.093203  -0.180665  0  3.972725  0
C  C172  1  0.13906415  0.65774896  0.53609540  1  1.594847  0  0.24154  0.662827  0  4.125674  0
C  C173  1  0.36093309  0.15775454  0.96390252  1  1.594708  0  0.241637  0.662961  0  4.125325  0
C  C174  1  0.86092882  0.34224234  0.46390314  1  1.594656  0  0.241724  0.663187  0  4.125066  0
C  C175  1  0.63905916  0.84224750  0.03609073  1  1.594616  0  0.241476  0.662916  0  4.125641  0
N  N176  1  0.97908087  0.23675027  0.31897687  1  -1.302059  0  -0.394542  -0.375169  0  3.549674  0
N  N177  1  0.52090820  0.73675955  0.18102763  1  -1.30224  0  -0.394533  -0.375139  0  3.549738  0
N  N178  1  0.02092996  0.76324103  0.68102119  1  -1.302598  0  -0.394596  -0.375119  0  3.549951  0
N  N179  1  0.47908553  0.26324863  0.81897460  1  -1.302192  0  -0.394613  -0.375299  0  3.549642  0
N  N180  1  0.98928494  0.06142017  0.28683908  1  -1.215348  0  -0.345933  -0.535705  0  3.212395  0
N  N181  1  0.51070543  0.56142982  0.21316324  1  -1.214888  0  -0.34594  -0.535604  0  3.212493  0
N  N182  1  0.01071959  0.93857113  0.71316054  1  -1.215398  0  -0.345848  -0.535565  0  3.212339  0
N  N183  1  0.48929285  0.43858220  0.78683637  1  -1.215305  0  -0.345921  -0.53568  0  3.212312  0
N  N184  1  0.08288863  0.94723001  0.36985989  1  -1.204113  0  -0.344544  -0.527045  0  3.195956  0
N  N185  1  0.41711423  0.44723814  0.13013767  1  -1.203874  0  -0.344637  -0.527151  0  3.195583  0
N  N186  1  0.91710785  0.05275898  0.63014024  1  -1.203908  0  -0.344689  -0.527228  0  3.195746  0
N  N187  1  0.58288948  0.55277004  0.86985984  1  -1.203991  0  -0.344569  -0.527042  0  3.195978  0
N  N188  1  0.07934113  0.12794908  0.39008136  1  -1.251108  0  -0.349156  -0.547694  0  3.358561  0
N  N189  1  0.42065442  0.62795871  0.10991797  1  -1.251136  0  -0.348988  -0.547317  0  3.358642  0
N  N190  1  0.92066793  0.87203915  0.60991616  1  -1.251094  0  -0.349031  -0.547449  0  3.358637  0
N  N191  1  0.57934299  0.37205023  0.89008110  1  -1.250779  0  -0.349208  -0.547784  0  3.358508  0
N  N192  1  0.01560666  0.89390521  0.25873252  1  -1.285826  0  -0.385247  -0.367394  0  3.56809  0
N  N193  1  0.48438969  0.39391144  0.24126796  1  -1.285769  0  -0.38519  -0.367491  0  3.568104  0
N  N194  1  0.98438352  0.10608532  0.74126918  1  -1.285645  0  -0.385149  -0.367396  0  3.568054  0
N  N195  1  0.51561391  0.60609828  0.75873272  1  -1.286316  0  -0.385177  -0.367162  0  3.568359  0
N  N196  1  0.16224301  0.02436052  0.47205298  1  -1.290143  0  -0.389022  -0.374683  0  3.53366  0
N  N197  1  0.33776027  0.52436936  0.02794538  1  -1.290512  0  -0.389082  -0.374557  0  3.533488  0
N  N198  1  0.83775343  0.97562848  0.52794821  1  -1.290367  0  -0.389102  -0.374518  0  3.533463  0
N  N199  1  0.66223887  0.47563728  0.97205529  1  -1.290176  0  -0.389077  -0.37472  0  3.533434  0
O  O200  1  0.77869905  0.12553670  0.09046994  1  -1.19242  0  -0.402486  -0.656689  0  2.19856  0
O  O201  1  0.72130964  0.62553461  0.40952416  1  -1.19245  0  -0.402516  -0.656656  0  2.198563  0
O  O202  1  0.22130478  0.87446380  0.90952388  1  -1.19257  0  -0.402472  -0.656603  0  2.198436  0
O  O203  1  0.27869777  0.37446360  0.59046914  1  -1.192457  0  -0.402465  -0.656689  0  2.198578  0
O  O204  1  0.67263419  0.26019006  0.05570359  1  -1.189457  0  -0.3731  -0.625343  0  2.182954  0
O  O205  1  0.82736673  0.76018553  0.44429553  1  -1.189347  0  -0.373041  -0.625313  0  2.182969  0
O  O206  1  0.32737304  0.73981351  0.94429498  1  -1.189361  0  -0.372988  -0.625302  0  2.182883  0
O  O207  1  0.17263956  0.23980960  0.55570463  1  -1.189355  0  -0.373088  -0.625279  0  2.182836  0
O  O208  1  0.99213061  0.57002232  0.42043822  1  -1.214173  0  -0.423983  -0.737859  0  2.42752  0
O  O209  1  0.50788554  0.07002921  0.07956782  1  -1.214254  0  -0.424011  -0.737866  0  2.427371  0
O  O210  1  0.00788181  0.42996361  0.57956565  1  -1.214306  0  -0.424027  -0.737917  0  2.427322  0
O  O211  1  0.49211626  0.92997667  0.92043339  1  -1.214301  0  -0.42393  -0.737763  0  2.42751  0
O  O212  1  0.15228489  0.48446181  0.38112730  1  -1.199238  0  -0.384242  -0.6444  0  2.217602  0
O  O213  1  0.34772170  0.98446808  0.11886900  1  -1.198998  0  -0.384304  -0.644457  0  2.217898  0
O  O214  1  0.84772156  0.51553333  0.61886810  1  -1.198976  0  -0.384353  -0.644549  0  2.21781  0
O  O215  1  0.65227658  0.01553780  0.88113060  1  -1.1991  0  -0.38429  -0.644397  0  2.217802  0
O  O216  1  0.02659396  0.65850288  0.54811642  1  -1.210854  0  -0.400938  -0.689221  0  2.408146  0
O  O217  1  0.47340670  0.15850659  0.95188626  1  -1.210801  0  -0.400946  -0.689354  0  2.407874  0
O  O218  1  0.97340160  0.34148842  0.45188477  1  -1.21068  0  -0.400996  -0.689464  0  2.407901  0
O  O219  1  0.52658713  0.84149008  0.04811334  1  -1.210737  0  -0.400939  -0.689381  0  2.408209  0
O  O220  1  0.19942565  0.57753130  0.52248030  1  -1.198178  0  -0.377351  -0.666731  0  2.299876  0
O  O221  1  0.30057056  0.07753963  0.97751438  1  -1.198046  0  -0.377401  -0.666762  0  2.299839  0
O  O222  1  0.80057192  0.42246077  0.47751403  1  -1.198034  0  -0.377428  -0.666853  0  2.299757  0
O  O223  1  0.69941730  0.92246471  0.02247676  1  -1.198152  0  -0.377247  -0.666708  0  2.29985  0
O  O224  1  0.71717094  0.21462654  0.91450855  1  -1.237294  0  -0.660286  -0.847536  0  2.173763  0
O  O225  1  0.78283149  0.71461692  0.58548746  1  -1.237321  0  -0.660196  -0.847486  0  2.173766  0
O  O226  1  0.28282475  0.78538317  0.08548841  1  -1.237337  0  -0.660318  -0.847576  0  2.173819  0
O  O227  1  0.21716688  0.28537668  0.41450951  1  -1.237247  0  -0.660277  -0.847593  0  2.173717  0
O  O228  1  0.86751955  0.04569818  0.96717553  1  -1.230281  0  -0.605602  -0.788612  0  1.95803  0
O  O229  1  0.63248419  0.54569799  0.53281880  1  -1.230225  0  -0.605654  -0.788528  0  1.958142  0
O  O230  1  0.13248164  0.95430232  0.03281722  1  -1.230192  0  -0.60571  -0.788568  0  1.958191  0
O  O231  1  0.36752056  0.45430098  0.46717396  1  -1.230214  0  -0.605596  -0.788617  0  1.957963  0
