# generated using pymatgen
data_NiH28C36Br4(N2O)4
_symmetry_space_group_name_H-M   'P 1'
_cell_length_a   8.77499238
_cell_length_b   9.41577832
_cell_length_c   12.30930074
_cell_angle_alpha   68.08840451
_cell_angle_beta   75.57738298
_cell_angle_gamma   89.12117121
_symmetry_Int_Tables_number   1
_chemical_formula_structural   NiH28C36Br4(N2O)4
_chemical_formula_sum   'Ni1 H28 C36 Br4 N8 O4'
_cell_volume   910.41432808
_cell_formula_units_Z   1
loop_
 _symmetry_equiv_pos_site_id
 _symmetry_equiv_pos_as_xyz
  1  'x, y, z'
loop_
 _atom_site_type_symbol
 _atom_site_label
 _atom_site_symmetry_multiplicity
 _atom_site_fract_x
 _atom_site_fract_y
 _atom_site_fract_z
 _atom_site_occupancy
 _atom_site_hle17_bader_spin_density
 _atom_site_hle17_ddec_charge
 _atom_site_hle17_ddec_spin_density
 _atom_site_hle17_ddec_sum_bond_order
 _atom_site_hle17_magmom
 _atom_site_hse06_10hf_bader_spin_density
 _atom_site_hse06_10hf_ddec_charge
 _atom_site_hse06_10hf_ddec_spin_density
 _atom_site_hse06_10hf_ddec_sum_bond_order
 _atom_site_hse06_10hf_magmom
 _atom_site_hse06_bader_spin_density
 _atom_site_hse06_ddec_charge
 _atom_site_hse06_ddec_spin_density
 _atom_site_hse06_ddec_sum_bond_order
 _atom_site_hse06_magmom
 _atom_site_pbe_bader_spin_density
 _atom_site_pbe_cm5_charge
 _atom_site_pbe_ddec_charge
 _atom_site_pbe_ddec_spin_density
 _atom_site_pbe_ddec_sum_bond_order
 _atom_site_pbe_magmom
Ni  Ni0  1  0.49999619  0.00000407  0.99999626  1  0  0.558764  0  2.437556  0  0  0.515636  0  2.882926  0  0  0.575909  0  2.822204  0  0  0.683752  0.482445  0  2.922457  0
H  H1  1  0.60377477  0.87437163  0.80190503  1  0  0.103663  0  0.990354  0  0  0.104942  0  1.067686  0  0  0.107334  0  1.064041  0  0  0.126182  0.102995  0  1.070605  0
H  H2  1  0.39622082  0.12562694  0.19809120  1  0  0.103703  0  0.990309  0  0  0.104911  0  1.067714  0  0  0.1073  0  1.064078  0  0  0.12616  0.102966  0  1.07063  0
H  H3  1  0.62838080  0.69933924  0.16604984  1  0  0.124386  0  0.96985  0  0  0.126602  0  1.039532  0  0  0.129867  0  1.037031  0  0  0.120341  0.123977  0  1.041797  0
H  H4  1  0.37161757  0.30067669  0.83394560  1  0  0.124425  0  0.96977  0  0  0.126665  0  1.039422  0  0  0.129922  0  1.03695  0  0  0.120357  0.124047  0  1.041687  0
H  H5  1  0.77653226  0.50579562  0.05330747  1  0  0.117338  0  0.973854  0  0  0.125894  0  1.035588  0  0  0.127647  0  1.036432  0  0  0.118624  0.124555  0  1.035269  0
H  H6  1  0.22346427  0.49421239  0.94669635  1  0  0.117296  0  0.9739  0  0  0.125845  0  1.035646  0  0  0.127608  0  1.03646  0  0  0.118585  0.124501  0  1.035328  0
H  H7  1  0.73426097  0.68107563  0.72590804  1  0  0.085737  0  0.919869  0  0  0.098586  0  0.9884  0  0  0.09884  0  0.988103  0  0  0.113213  0.098254  0  0.988799  0
H  H8  1  0.26573415  0.31891728  0.27409320  1  0  0.085694  0  0.919956  0  0  0.098543  0  0.988489  0  0  0.098806  0  0.988196  0  0  0.113215  0.09821  0  0.988897  0
H  H9  1  0.73043360  0.49511707  0.83700474  1  0  0.084979  0  0.937527  0  0  0.100676  0  0.996595  0  0  0.101684  0  0.996203  0  0  0.114441  0.099909  0  0.996782  0
H  H10  1  0.26956515  0.50487607  0.16300553  1  0  0.084981  0  0.937533  0  0  0.100576  0  0.996721  0  0  0.101588  0  0.996346  0  0  0.114421  0.099853  0  0.996861  0
H  H11  1  0.98205077  0.79772040  0.84542179  1  0  0.092202  0  0.961764  0  0  0.101863  0  1.0245  0  0  0.104839  0  1.023623  0  0  0.097191  0.099924  0  1.024814  0
H  H12  1  0.01794869  0.20226710  0.15459490  1  0  0.092278  0  0.96173  0  0  0.101865  0  1.024532  0  0  0.104836  0  1.023667  0  0  0.09722  0.099923  0  1.024846  0
H  H13  1  0.27411699  0.82224786  0.78322126  1  0  0.098397  0  0.961103  0  0  0.105228  0  1.027828  0  0  0.108313  0  1.026257  0  0  0.09611  0.102753  0  1.029417  0
H  H14  1  0.72588359  0.17773953  0.21679039  1  0  0.098361  0  0.961138  0  0  0.105208  0  1.027846  0  0  0.108292  0  1.026276  0  0  0.096088  0.102757  0  1.029416  0
H  H15  1  0.41770730  0.66777684  0.66827324  1  0  0.092796  0  0.936361  0  0  0.106128  0  0.990446  0  0  0.108151  0  0.990635  0  0  0.100804  0.104609  0  0.990446  0
H  H16  1  0.58229280  0.33221853  0.33173368  1  0  0.092845  0  0.936484  0  0  0.106185  0  0.990544  0  0  0.108206  0  0.990736  0  0  0.100864  0.104668  0  0.990549  0
H  H17  1  0.26830822  0.49232853  0.61802724  1  0  0.111146  0  0.945362  0  0  0.117879  0  1.011197  0  0  0.121456  0  1.008685  0  0  0.102748  0.115008  0  1.013631  0
H  H18  1  0.73168793  0.50766223  0.38198096  1  0  0.111106  0  0.945389  0  0  0.117833  0  1.011214  0  0  0.1214  0  1.008731  0  0  0.102717  0.114976  0  1.013603  0
H  H19  1  0.85636561  0.48153559  0.63380925  1  0  0.092561  0  0.908023  0  0  0.109866  0  0.966442  0  0  0.110632  0  0.9659  0  0  0.118567  0.10917  0  0.967176  0
H  H20  1  0.14363645  0.51846886  0.36618975  1  0  0.092536  0  0.908029  0  0  0.10987  0  0.966444  0  0  0.110635  0  0.965887  0  0  0.11855  0.109172  0  0.967179  0
H  H21  1  0.03426491  0.39216364  0.61147445  1  0  0.07543  0  0.958685  0  0  0.089505  0  1.027845  0  0  0.090091  0  1.026696  0  0  0.098679  0.08888  0  1.028935  0
H  H22  1  0.96573976  0.60784323  0.38852904  1  0  0.075433  0  0.958721  0  0  0.089536  0  1.027869  0  0  0.090112  0  1.026716  0  0  0.098698  0.088911  0  1.02896  0
H  H23  1  0.65135116  0.26906384  0.75035332  1  0  0.115706  0  0.997803  0  0  0.118852  0  1.069837  0  0  0.122475  0  1.065231  0  0  0.133221  0.116046  0  1.073335  0
H  H24  1  0.34864546  0.73094620  0.24963850  1  0  0.115666  0  0.997911  0  0  0.118856  0  1.069876  0  0  0.122477  0  1.065276  0  0  0.133222  0.116048  0  1.073369  0
H  H25  1  0.05670974  0.25386139  0.88392853  1  0  0.114126  0  0.975203  0  0  0.120869  0  1.043054  0  0  0.122625  0  1.04384  0  0  0.119026  0.119602  0  1.042573  0
H  H26  1  0.94328799  0.74612210  0.11606610  1  0  0.114173  0  0.975249  0  0  0.120902  0  1.043131  0  0  0.122657  0  1.04392  0  0  0.119063  0.119634  0  1.042654  0
H  H27  1  0.82286663  0.02744676  0.05664692  1  0  0.122248  0  0.950651  0  0  0.129748  0  1.011905  0  0  0.132045  0  1.010678  0  0  0.122217  0.128099  0  1.01262  0
H  H28  1  0.17712850  0.97254708  0.94334511  1  0  0.122255  0  0.950623  0  0  0.12972  0  1.011927  0  0  0.132017  0  1.0107  0  0  0.122186  0.128074  0  1.012632  0
C  C29  1  0.47959114  0.15547156  0.67129426  1  0  0.625179  0  4.039811  0  0  0.577913  0  4.349955  0  0  0.610326  0  4.343142  0  0  0.174289  0.556099  0  4.353248  0
C  C30  1  0.52043414  0.84454304  0.32869101  1  0  0.625108  0  4.040268  0  0  0.577974  0  4.350202  0  0  0.61039  0  4.343377  0  0  0.174261  0.556151  0  4.353518  0
C  C31  1  0.49392554  0.08095065  0.57801142  1  0  -0.1008  0  3.73846  0  0  -0.096045  0  3.988222  0  0  -0.097036  0  4.003229  0  0  -0.025944  -0.096493  0  3.979158  0
C  C32  1  0.50608213  0.91903862  0.42198132  1  0  -0.101058  0  3.738619  0  0  -0.096348  0  3.988408  0  0  -0.097341  0  4.003404  0  0  -0.026055  -0.096793  0  3.97935  0
C  C33  1  0.36443264  0.06546800  0.53524280  1  0  0.028698  0  3.70742  0  0  0.028877  0  3.982856  0  0  0.032411  0  4.001561  0  0  -0.024526  0.02628  0  3.970942  0
C  C34  1  0.63556678  0.93452034  0.46476064  1  0  0.029011  0  3.707083  0  0  0.029126  0  3.982645  0  0  0.032666  0  4.00135  0  0  -0.024427  0.026528  0  3.97073  0
C  C35  1  0.36867966  0.98432690  0.45986704  1  0  0.021878  0  3.709485  0  0  0.023276  0  3.985173  0  0  0.026526  0  4.004344  0  0  -0.029453  0.020821  0  3.972838  0
C  C36  1  0.63133195  0.01566604  0.54013364  1  0  0.021651  0  3.709491  0  0  0.023031  0  3.985254  0  0  0.026277  0  4.004427  0  0  -0.02952  0.020579  0  3.972916  0
C  C37  1  0.63308101  0.80162304  0.88448933  1  0  0.151308  0  3.614901  0  0  0.090862  0  3.880851  0  0  0.106794  0  3.892019  0  0  0.141866  0.08052  0  3.873492  0
C  C38  1  0.36691266  0.19838016  0.11550749  1  0  0.151091  0  3.614842  0  0  0.090768  0  3.880831  0  0  0.106703  0  3.891992  0  0  0.141858  0.08043  0  3.873467  0
C  C39  1  0.64809787  0.70634710  0.07336897  1  0  -0.018687  0  3.701487  0  0  -0.049248  0  3.969994  0  0  -0.046338  0  3.988657  0  0  -0.000178  -0.051417  0  3.958015  0
C  C40  1  0.35189549  0.29366538  0.92662841  1  0  -0.018823  0  3.701474  0  0  -0.04936  0  3.969991  0  0  -0.046459  0  3.988649  0  0  -0.000186  -0.05154  0  3.958023  0
C  C41  1  0.71985790  0.61025330  0.01871954  1  0  -0.07059  0  3.674761  0  0  -0.109361  0  3.927918  0  0  -0.108297  0  3.947563  0  0  -0.002551  -0.109817  0  3.9147  0
C  C42  1  0.28013614  0.38975349  0.98128184  1  0  -0.070565  0  3.675083  0  0  -0.10932  0  3.928198  0  0  -0.108249  0  3.947848  0  0  -0.002468  -0.109768  0  3.914973  0
C  C43  1  0.77803229  0.61504580  0.80520770  1  0  -0.031067  0  3.652181  0  0  -0.09882  0  3.905781  0  0  -0.093941  0  3.91602  0  0  -0.042744  -0.101966  0  3.898669  0
C  C44  1  0.22196772  0.38494846  0.19480119  1  0  -0.03089  0  3.652155  0  0  -0.098603  0  3.905819  0  0  -0.093769  0  3.916126  0  0  -0.042715  -0.101782  0  3.898712  0
C  C45  1  0.95729400  0.62918912  0.76945651  1  0  0.021596  0  3.72117  0  0  0.03302  0  3.967249  0  0  0.032399  0  3.991054  0  0  -0.016949  0.033642  0  3.951041  0
C  C46  1  0.04270759  0.37080970  0.23054912  1  0  0.021599  0  3.721085  0  0  0.033073  0  3.967128  0  0  0.032455  0  3.990956  0  0  -0.016949  0.033695  0  3.950927  0
C  C47  1  0.04380288  0.72913519  0.79653310  1  0  -0.128609  0  3.777912  0  0  -0.153277  0  4.037478  0  0  -0.155917  0  4.058597  0  0  -0.102833  -0.15152  0  4.022945  0
C  C48  1  0.95619253  0.27086023  0.20347628  1  0  -0.12877  0  3.777882  0  0  -0.153375  0  4.037475  0  0  -0.15601  0  4.058594  0  0  -0.102856  -0.151614  0  4.022945  0
C  C49  1  0.20896395  0.74302692  0.76145195  1  0  -0.079284  0  3.78224  0  0  -0.093258  0  4.036629  0  0  -0.095338  0  4.058752  0  0  -0.096766  -0.091699  0  4.021857  0
C  C50  1  0.79102664  0.25696732  0.23855703  1  0  -0.079218  0  3.782091  0  0  -0.093196  0  4.036477  0  0  -0.095274  0  4.05859  0  0  -0.096738  -0.091657  0  4.021711  0
C  C51  1  0.28909794  0.65754404  0.69729450  1  0  -0.051086  0  3.755982  0  0  -0.066238  0  4.008229  0  0  -0.069291  0  4.0316  0  0  -0.089345  -0.063845  0  3.992222  0
C  C52  1  0.71089777  0.34245479  0.30271219  1  0  -0.051149  0  3.756158  0  0  -0.066328  0  4.008447  0  0  -0.069377  0  4.03181  0  0  -0.08944  -0.063942  0  3.992463  0
C  C53  1  0.20430789  0.55835071  0.66865030  1  0  -0.101247  0  3.719125  0  0  -0.122921  0  3.968709  0  0  -0.124442  0  3.989295  0  0  -0.087025  -0.122024  0  3.955332  0
C  C54  1  0.79568310  0.44164810  0.33135644  1  0  -0.101247  0  3.719052  0  0  -0.122869  0  3.968624  0  0  -0.124392  0  3.989201  0  0  -0.086963  -0.121965  0  3.955252  0
C  C55  1  0.03901680  0.54305270  0.70460182  1  0  0.001156  0  3.750752  0  0  0.020816  0  3.986502  0  0  0.018234  0  4.011974  0  0  -0.021693  0.022538  0  3.96925  0
C  C56  1  0.96097536  0.45694609  0.29540390  1  0  0.001182  0  3.750519  0  0  0.020807  0  3.986367  0  0  0.018213  0  4.011829  0  0  -0.021688  0.022529  0  3.969112  0
C  C57  1  0.95149245  0.43073475  0.67578488  1  0  -0.033658  0  3.649147  0  0  -0.103799  0  3.900657  0  0  -0.098822  0  3.911496  0  0  -0.047863  -0.106993  0  3.893116  0
C  C58  1  0.04850724  0.56926966  0.32421293  1  0  -0.033618  0  3.64913  0  0  -0.103821  0  3.9007  0  0  -0.098793  0  3.911461  0  0  -0.047856  -0.107023  0  3.893167  0
C  C59  1  0.72845488  0.23188840  0.81146836  1  0  0.133738  0  3.60866  0  0  0.071119  0  3.881349  0  0  0.086363  0  3.892372  0  0  0.136938  0.06102  0  3.87395  0
C  C60  1  0.27153783  0.76811713  0.18852876  1  0  0.133754  0  3.608908  0  0  0.07107  0  3.881551  0  0  0.086311  0  3.892579  0  0  0.136939  0.060984  0  3.874152  0
C  C61  1  0.93971856  0.22075782  0.88256950  1  0  -0.075988  0  3.691829  0  0  -0.116258  0  3.948981  0  0  -0.115878  0  3.969425  0  0  -0.005154  -0.116317  0  3.93487  0
C  C62  1  0.06027661  0.77923611  0.11742655  1  0  -0.076111  0  3.691982  0  0  -0.116384  0  3.949135  0  0  -0.116006  0  3.969584  0  0  -0.005235  -0.116443  0  3.935021  0
C  C63  1  0.82481369  0.10938982  0.96668374  1  0  -0.005818  0  3.700454  0  0  -0.036743  0  3.963647  0  0  -0.033055  0  3.982885  0  0  0.000634  -0.038883  0  3.950421  0
C  C64  1  0.17517943  0.89060755  0.03331085  1  0  -0.00572  0  3.700376  0  0  -0.036654  0  3.963531  0  0  -0.032967  0  3.982769  0  0  0.000707  -0.038787  0  3.95032  0
Br  Br65  1  0.18353763  0.95174391  0.41537966  1  0  -0.053986  0  1.490355  0  0  -0.052485  0  1.795731  0  0  -0.05389  0  1.788554  0  0  0.049913  -0.051742  0  1.801343  0
Br  Br66  1  0.81646228  0.04826284  0.58461904  1  0  -0.053905  0  1.490405  0  0  -0.052406  0  1.795809  0  0  -0.053813  0  1.788636  0  0  0.049947  -0.051666  0  1.801422  0
Br  Br67  1  0.17875300  0.15743795  0.58563929  1  0  -0.034382  0  1.420669  0  0  -0.022543  0  1.706523  0  0  -0.022438  0  1.69596  0  0  0.057261  -0.022404  0  1.714526  0
Br  Br68  1  0.82124784  0.84254005  0.41436696  1  0  -0.034463  0  1.420565  0  0  -0.022599  0  1.70645  0  0  -0.022495  0  1.695889  0  0  0.057227  -0.022462  0  1.71445  0
N  N69  1  0.59594239  0.82504807  0.98773469  1  0  -0.262936  0  3.409706  0  0  -0.21457  0  3.713267  0  0  -0.241262  0  3.730379  0  0  -0.363076  -0.198164  0  3.702209  0
N  N70  1  0.40405404  0.17495971  0.01225946  1  0  -0.262758  0  3.409261  0  0  -0.214553  0  3.712973  0  0  -0.241239  0  3.730077  0  0  -0.363172  -0.198149  0  3.701925  0
N  N71  1  0.70949816  0.67220849  0.89989815  1  0  -0.058091  0  3.593725  0  0  0.037268  0  3.807783  0  0  0.022453  0  3.833071  0  0  -0.245019  0.047005  0  3.790408  0
N  N72  1  0.29049310  0.32779367  0.10010348  1  0  -0.058015  0  3.593667  0  0  0.037356  0  3.807676  0  0  0.022555  0  3.83297  0  0  -0.245002  0.047092  0  3.790309  0
N  N73  1  0.87691880  0.29653945  0.78565209  1  0  -0.068849  0  3.584191  0  0  0.02696  0  3.800613  0  0  0.011622  0  3.827017  0  0  -0.247161  0.037162  0  3.782412  0
N  N74  1  0.12308064  0.70346256  0.21434242  1  0  -0.068787  0  3.584277  0  0  0.027059  0  3.800717  0  0  0.011705  0  3.827114  0  0  -0.247136  0.037257  0  3.782511  0
N  N75  1  0.69473313  0.11838621  0.92084472  1  0  -0.261911  0  3.406682  0  0  -0.214386  0  3.71404  0  0  -0.241332  0  3.731343  0  0  -0.361955  -0.198069  0  3.702934  0
N  N76  1  0.30525604  0.88161928  0.07915143  1  0  -0.262036  0  3.406676  0  0  -0.214382  0  3.713908  0  0  -0.241327  0  3.731213  0  0  -0.361982  -0.198099  0  3.702845  0
O  O77  1  0.42919003  0.06019980  0.77981900  1  0  -0.643023  0  1.923143  0  0  -0.602278  0  2.168094  0  0  -0.627537  0  2.156572  0  0  -0.330472  -0.583929  0  2.175185  0
O  O78  1  0.57085452  0.93981856  0.22017547  1  0  -0.642826  0  1.923545  0  0  -0.602181  0  2.168481  0  0  -0.627442  0  2.156954  0  0  -0.330386  -0.583829  0  2.175581  0
O  O79  1  0.51822838  0.29706265  0.63327431  1  0  -0.613597  0  1.878045  0  0  -0.572251  0  2.090142  0  0  -0.596172  0  2.082641  0  0  -0.343393  -0.554721  0  2.094709  0
O  O80  1  0.48179380  0.70295843  0.36669172  1  0  -0.613609  0  1.877854  0  0  -0.572306  0  2.089875  0  0  -0.596228  0  2.08237  0  0  -0.343424  -0.554771  0  2.094444  0
