# generated using pymatgen
data_GdH12C11O9
_symmetry_space_group_name_H-M   'P 1'
_cell_length_a   8.77378813
_cell_length_b   8.77378680
_cell_length_c   19.54967235
_cell_angle_alpha   82.92985501
_cell_angle_beta   82.92986519
_cell_angle_gamma   61.66961099
_symmetry_Int_Tables_number   1
_chemical_formula_structural   GdH12C11O9
_chemical_formula_sum   'Gd4 H48 C44 O36'
_cell_volume   1310.98980895
_cell_formula_units_Z   4
loop_
 _symmetry_equiv_pos_site_id
 _symmetry_equiv_pos_as_xyz
  1  'x, y, z'
loop_
 _atom_site_type_symbol
 _atom_site_label
 _atom_site_symmetry_multiplicity
 _atom_site_fract_x
 _atom_site_fract_y
 _atom_site_fract_z
 _atom_site_occupancy
 _atom_site_hle17_bader_spin_density
 _atom_site_hle17_ddec_charge
 _atom_site_hle17_ddec_spin_density
 _atom_site_hle17_ddec_sum_bond_order
 _atom_site_hle17_magmom
 _atom_site_hse06_10hf_bader_spin_density
 _atom_site_hse06_10hf_ddec_charge
 _atom_site_hse06_10hf_ddec_spin_density
 _atom_site_hse06_10hf_ddec_sum_bond_order
 _atom_site_hse06_10hf_magmom
 _atom_site_hse06_bader_spin_density
 _atom_site_hse06_ddec_charge
 _atom_site_hse06_ddec_spin_density
 _atom_site_hse06_ddec_sum_bond_order
 _atom_site_hse06_magmom
 _atom_site_pbe_bader_spin_density
 _atom_site_pbe_cm5_charge
 _atom_site_pbe_ddec_charge
 _atom_site_pbe_ddec_spin_density
 _atom_site_pbe_ddec_sum_bond_order
 _atom_site_pbe_magmom
Gd  Gd0  1  0.61827091  0.26709770  0.45917094  1  0  2.213146  0  1.721304  0  0  2.1209  0  2.069134  0  0  2.172813  0  2.018062  0  0  1.456635  2.078914  0  2.113101  0
Gd  Gd1  1  0.73290363  0.38172842  0.04082853  1  0  2.213197  0  1.721247  0  0  2.120915  0  2.069136  0  0  2.172827  0  2.018062  0  0  1.456625  2.078889  0  2.113181  0
Gd  Gd2  1  0.38173016  0.73290422  0.54082863  1  0  2.21315  0  1.721276  0  0  2.120863  0  2.06915  0  0  2.172784  0  2.018066  0  0  1.456649  2.078851  0  2.113191  0
Gd  Gd3  1  0.26709814  0.61826959  0.95917121  1  0  2.213135  0  1.721331  0  0  2.12093  0  2.06907  0  0  2.172807  0  2.018057  0  0  1.456624  2.07891  0  2.113074  0
H  H4  1  0.92408391  0.14086737  0.35609617  1  0  0.436372  0  0.856942  0  0  0.406032  0  0.919636  0  0  0.416227  0  0.904522  0  0  0.306187  0.398747  0  0.930434  0
H  H5  1  0.85913385  0.07591517  0.14390386  1  0  0.436375  0  0.856926  0  0  0.406037  0  0.919617  0  0  0.41623  0  0.904506  0  0  0.306188  0.398737  0  0.930435  0
H  H6  1  0.07591892  0.85913326  0.64390593  1  0  0.436358  0  0.856959  0  0  0.406029  0  0.91963  0  0  0.416223  0  0.904518  0  0  0.3062  0.398728  0  0.930451  0
H  H7  1  0.14086573  0.92408021  0.85609462  1  0  0.436333  0  0.856982  0  0  0.406001  0  0.919663  0  0  0.416194  0  0.904551  0  0  0.306188  0.398705  0  0.930475  0
H  H8  1  0.00653744  0.99793123  0.41935768  1  0  0.451838  0  0.840709  0  0  0.422839  0  0.898987  0  0  0.434076  0  0.882753  0  0  0.302515  0.414836  0  0.910523  0
H  H9  1  0.00207011  0.99346462  0.08064263  1  0  0.451771  0  0.840782  0  0  0.422763  0  0.899077  0  0  0.434  0  0.882842  0  0  0.302485  0.414766  0  0.910603  0
H  H10  1  0.99346653  0.00206941  0.58064487  1  0  0.451749  0  0.840806  0  0  0.422737  0  0.899107  0  0  0.433975  0  0.882871  0  0  0.302491  0.414762  0  0.910606  0
H  H11  1  0.99793229  0.00653209  0.91935665  1  0  0.451762  0  0.840784  0  0  0.422765  0  0.899065  0  0  0.434004  0  0.882828  0  0  0.302466  0.414755  0  0.910605  0
H  H12  1  0.88722480  0.26484630  0.22666218  1  0  0.396936  0  0.870113  0  0  0.370601  0  0.941167  0  0  0.380958  0  0.930046  0  0  0.313209  0.363247  0  0.94903  0
H  H13  1  0.73515381  0.11277517  0.27333734  1  0  0.396971  0  0.870075  0  0  0.370641  0  0.941119  0  0  0.381  0  0.929992  0  0  0.313228  0.363274  0  0.949018  0
H  H14  1  0.11277811  0.73515172  0.77333903  1  0  0.39691  0  0.870141  0  0  0.370586  0  0.94118  0  0  0.380943  0  0.93006  0  0  0.31321  0.363234  0  0.949048  0
H  H15  1  0.26484744  0.88722153  0.72666098  1  0  0.396916  0  0.870142  0  0  0.370586  0  0.941185  0  0  0.380943  0  0.930064  0  0  0.313217  0.363246  0  0.949047  0
H  H16  1  0.68710538  0.91484360  0.53505879  1  0  0.447737  0  0.833609  0  0  0.423312  0  0.887534  0  0  0.433802  0  0.871981  0  0  0.313781  0.415821  0  0.898646  0
H  H17  1  0.08515933  0.31289454  0.96494050  1  0  0.447806  0  0.833518  0  0  0.423387  0  0.88743  0  0  0.433872  0  0.871881  0  0  0.313808  0.415888  0  0.898554  0
H  H18  1  0.31289042  0.08516218  0.46494136  1  0  0.447767  0  0.833506  0  0  0.423353  0  0.88746  0  0  0.433841  0  0.871908  0  0  0.31381  0.415855  0  0.898583  0
H  H19  1  0.91484359  0.68710348  0.03505970  1  0  0.447833  0  0.833483  0  0  0.423418  0  0.887391  0  0  0.433901  0  0.871839  0  0  0.313833  0.415917  0  0.898519  0
H  H20  1  0.65191641  0.89619583  0.46327162  1  0  0.43254  0  0.865456  0  0  0.403794  0  0.928122  0  0  0.414138  0  0.912864  0  0  0.302992  0.396403  0  0.939004  0
H  H21  1  0.10380564  0.34808263  0.03672835  1  0  0.432507  0  0.865455  0  0  0.403776  0  0.928128  0  0  0.414116  0  0.912878  0  0  0.302977  0.396378  0  0.939019  0
H  H22  1  0.34807938  0.10380995  0.53672854  1  0  0.432523  0  0.865411  0  0  0.403778  0  0.928132  0  0  0.414121  0  0.912875  0  0  0.302971  0.396386  0  0.939017  0
H  H23  1  0.89619376  0.65191797  0.96327189  1  0  0.432518  0  0.865464  0  0  0.403774  0  0.92815  0  0  0.414117  0  0.912894  0  0  0.302975  0.396378  0  0.939044  0
H  H24  1  0.16016240  0.20132643  0.35688178  1  0  0.129705  0  0.930923  0  0  0.141267  0  0.987441  0  0  0.145806  0  0.983525  0  0  0.118158  0.137909  0  0.990515  0
H  H25  1  0.79866965  0.83983874  0.14311736  1  0  0.129705  0  0.93096  0  0  0.141272  0  0.987468  0  0  0.14581  0  0.983554  0  0  0.118165  0.137928  0  0.990537  0
H  H26  1  0.83984474  0.79866511  0.64311803  1  0  0.129694  0  0.930904  0  0  0.141273  0  0.987399  0  0  0.145814  0  0.983479  0  0  0.118153  0.137913  0  0.99047  0
H  H27  1  0.20132879  0.16015662  0.85688220  1  0  0.12969  0  0.930913  0  0  0.141258  0  0.987425  0  0  0.145798  0  0.983507  0  0  0.11817  0.13792  0  0.990507  0
H  H28  1  0.52648609  0.28776858  0.21031216  1  0  0.116668  0  0.970936  0  0  0.118944  0  1.04579  0  0  0.123824  0  1.041218  0  0  0.113332  0.11538  0  1.049168  0
H  H29  1  0.71222876  0.47351655  0.28968735  1  0  0.116636  0  0.970988  0  0  0.118922  0  1.045835  0  0  0.123796  0  1.041274  0  0  0.113332  0.115362  0  1.049182  0
H  H30  1  0.47351560  0.71223204  0.78968745  1  0  0.116653  0  0.970984  0  0  0.118938  0  1.045834  0  0  0.123812  0  1.041271  0  0  0.113337  0.115391  0  1.049183  0
H  H31  1  0.28776493  0.52648398  0.71031270  1  0  0.116649  0  0.971009  0  0  0.118923  0  1.045865  0  0  0.123803  0  1.041293  0  0  0.113285  0.115333  0  1.049193  0
H  H32  1  0.09427231  0.26352050  0.13904029  1  0  0.11819  0  0.969286  0  0  0.127154  0  1.035318  0  0  0.130865  0  1.032331  0  0  0.115822  0.124461  0  1.037519  0
H  H33  1  0.73648005  0.90572934  0.36095959  1  0  0.118198  0  0.969253  0  0  0.127145  0  1.035313  0  0  0.130854  0  1.032326  0  0  0.115856  0.124488  0  1.037526  0
H  H34  1  0.90572823  0.73648011  0.86096040  1  0  0.118166  0  0.969301  0  0  0.127138  0  1.035324  0  0  0.130846  0  1.032337  0  0  0.115841  0.124474  0  1.037539  0
H  H35  1  0.26351935  0.09427126  0.63904014  1  0  0.118171  0  0.969287  0  0  0.127118  0  1.03534  0  0  0.130827  0  1.032354  0  0  0.115842  0.124463  0  1.037567  0
H  H36  1  0.77532542  0.44782009  0.66115644  1  0  0.105415  0  0.949594  0  0  0.120585  0  1.006253  0  0  0.121887  0  1.00708  0  0  0.101046  0.119631  0  1.005821  0
H  H37  1  0.55218394  0.22467253  0.83884445  1  0  0.105329  0  0.949627  0  0  0.120541  0  1.00625  0  0  0.121844  0  1.007078  0  0  0.10102  0.119597  0  1.005802  0
H  H38  1  0.22467046  0.55218307  0.33884386  1  0  0.105354  0  0.949578  0  0  0.120549  0  1.00624  0  0  0.121863  0  1.007057  0  0  0.101033  0.119606  0  1.005793  0
H  H39  1  0.44781713  0.77532938  0.16115717  1  0  0.105354  0  0.949559  0  0  0.120529  0  1.006234  0  0  0.121845  0  1.007047  0  0  0.101013  0.119578  0  1.005793  0
H  H40  1  0.94820656  0.23577481  0.65057476  1  0  0.105237  0  0.949142  0  0  0.119948  0  1.008455  0  0  0.121775  0  1.008197  0  0  0.101133  0.118619  0  1.008783  0
H  H41  1  0.76422965  0.05179380  0.84942548  1  0  0.105259  0  0.949119  0  0  0.119974  0  1.00843  0  0  0.121801  0  1.008175  0  0  0.101145  0.118653  0  1.008755  0
H  H42  1  0.05179160  0.76422838  0.34942592  1  0  0.105237  0  0.949118  0  0  0.119956  0  1.008442  0  0  0.121785  0  1.008186  0  0  0.101137  0.118631  0  1.00877  0
H  H43  1  0.23577142  0.94820812  0.15057460  1  0  0.10523  0  0.949129  0  0  0.119937  0  1.008453  0  0  0.121765  0  1.008199  0  0  0.101131  0.118617  0  1.008772  0
H  H44  1  0.58426264  0.30109346  0.71108022  1  0  0.060236  0  0.969746  0  0  0.079713  0  1.03052  0  0  0.079613  0  1.032671  0  0  0.087345  0.079716  0  1.029091  0
H  H45  1  0.69890494  0.41573836  0.78891928  1  0  0.060233  0  0.969754  0  0  0.079696  0  1.030545  0  0  0.079595  0  1.032696  0  0  0.08736  0.079709  0  1.0291  0
H  H46  1  0.41573562  0.69890713  0.28891958  1  0  0.060235  0  0.969764  0  0  0.079719  0  1.030533  0  0  0.07962  0  1.032684  0  0  0.087346  0.079717  0  1.029103  0
H  H47  1  0.30109095  0.58426481  0.21108051  1  0  0.060237  0  0.969731  0  0  0.079716  0  1.030511  0  0  0.079617  0  1.032662  0  0  0.087331  0.07971  0  1.029082  0
H  H48  1  0.77572802  0.10125485  0.71103871  1  0  0.064085  0  0.963399  0  0  0.081029  0  1.027121  0  0  0.081674  0  1.028302  0  0  0.086884  0.080478  0  1.026425  0
H  H49  1  0.89874557  0.22427488  0.78896008  1  0  0.064137  0  0.963307  0  0  0.081073  0  1.027052  0  0  0.081719  0  1.028232  0  0  0.08692  0.080532  0  1.02636  0
H  H50  1  0.22427191  0.89874705  0.28896144  1  0  0.064127  0  0.963311  0  0  0.081076  0  1.027042  0  0  0.081722  0  1.028222  0  0  0.086904  0.080533  0  1.026348  0
H  H51  1  0.10125313  0.77572962  0.21103846  1  0  0.064107  0  0.963343  0  0  0.081057  0  1.027074  0  0  0.081703  0  1.028254  0  0  0.086912  0.080512  0  1.02638  0
C  C52  1  0.45493939  0.23436176  0.34696511  1  0  0.635476  0  3.931148  0  0  0.584795  0  4.233298  0  0  0.618209  0  4.226009  0  0  0.201064  0.562312  0  4.237005  0
C  C53  1  0.76563644  0.54506196  0.15303545  1  0  0.635496  0  3.931147  0  0  0.584798  0  4.233359  0  0  0.618211  0  4.226071  0  0  0.201072  0.562273  0  4.237085  0
C  C54  1  0.54506238  0.76563625  0.65303566  1  0  0.635436  0  3.931139  0  0  0.584744  0  4.233324  0  0  0.618161  0  4.226033  0  0  0.201027  0.562215  0  4.237089  0
C  C55  1  0.23436358  0.45493733  0.84696432  1  0  0.635494  0  3.93105  0  0  0.584775  0  4.23327  0  0  0.61819  0  4.225977  0  0  0.201074  0.562252  0  4.237022  0
C  C56  1  0.20653724  0.21959762  0.30375165  1  0  -0.162941  0  3.656509  0  0  -0.198787  0  3.907428  0  0  -0.199379  0  3.92331  0  0  -0.085039  -0.19811  0  3.896889  0
C  C57  1  0.78039709  0.79346735  0.19624738  1  0  -0.163019  0  3.65655  0  0  -0.198872  0  3.907485  0  0  -0.199466  0  3.923368  0  0  -0.085075  -0.198187  0  3.896924  0
C  C58  1  0.79346805  0.78039782  0.69624856  1  0  -0.162966  0  3.6566  0  0  -0.198821  0  3.907498  0  0  -0.199414  0  3.923379  0  0  -0.085031  -0.198109  0  3.896915  0
C  C59  1  0.21959774  0.20653320  0.80375108  1  0  -0.162985  0  3.656656  0  0  -0.198814  0  3.907575  0  0  -0.199407  0  3.923458  0  0  -0.085039  -0.198142  0  3.897042  0
C  C60  1  0.38016429  0.32013486  0.09598618  1  0  0.726306  0  3.82621  0  0  0.68082  0  4.11445  0  0  0.716173  0  4.10309  0  0  0.239539  0.656761  0  4.121227  0
C  C61  1  0.67986241  0.61983853  0.40401383  1  0  0.726279  0  3.826395  0  0  0.680741  0  4.114676  0  0  0.716095  0  4.103319  0  0  0.239522  0.656664  0  4.121452  0
C  C62  1  0.61983573  0.67986443  0.90401359  1  0  0.726284  0  3.82621  0  0  0.680794  0  4.114433  0  0  0.716147  0  4.103074  0  0  0.239515  0.656726  0  4.121211  0
C  C63  1  0.32013575  0.38016466  0.59598635  1  0  0.726296  0  3.826369  0  0  0.680865  0  4.11451  0  0  0.716219  0  4.103153  0  0  0.239575  0.656805  0  4.121299  0
C  C64  1  0.41265110  0.26799506  0.22148278  1  0  -0.092707  0  3.722161  0  0  -0.135101  0  3.977799  0  0  -0.133304  0  3.995336  0  0  -0.084954  -0.136024  0  3.966228  0
C  C65  1  0.73200061  0.58735092  0.27851737  1  0  -0.092566  0  3.722023  0  0  -0.134957  0  3.977672  0  0  -0.13316  0  3.995211  0  0  -0.084931  -0.13589  0  3.966035  0
C  C66  1  0.58735006  0.73200425  0.77851744  1  0  -0.092632  0  3.722077  0  0  -0.13503  0  3.977726  0  0  -0.133231  0  3.995264  0  0  -0.084934  -0.135961  0  3.96612  0
C  C67  1  0.26799246  0.41265092  0.72148316  1  0  -0.092675  0  3.722238  0  0  -0.135064  0  3.977892  0  0  -0.13327  0  3.99543  0  0  -0.084987  -0.136022  0  3.96624  0
C  C68  1  0.16794701  0.25921463  0.18078866  1  0  -0.188639  0  3.695709  0  0  -0.223473  0  3.946878  0  0  -0.225181  0  3.964903  0  0  -0.090213  -0.222076  0  3.934845  0
C  C69  1  0.74078361  0.83205446  0.31921136  1  0  -0.188569  0  3.695708  0  0  -0.223436  0  3.946844  0  0  -0.225144  0  3.964875  0  0  -0.090172  -0.222037  0  3.934851  0
C  C70  1  0.83205414  0.74078468  0.81921309  1  0  -0.188512  0  3.695672  0  0  -0.223384  0  3.946798  0  0  -0.225088  0  3.964819  0  0  -0.090146  -0.221986  0  3.93479  0
C  C71  1  0.25921061  0.16794738  0.68078757  1  0  -0.188555  0  3.695717  0  0  -0.223367  0  3.946882  0  0  -0.225073  0  3.96491  0  0  -0.090146  -0.221968  0  3.934903  0
C  C72  1  0.31840695  0.27801047  0.16711654  1  0  -0.037892  0  3.758271  0  0  -0.012895  0  3.99158  0  0  -0.019552  0  4.01258  0  0  -0.012397  -0.008806  0  3.977674  0
C  C73  1  0.72198843  0.68159565  0.33288339  1  0  -0.037978  0  3.758318  0  0  -0.012906  0  3.991547  0  0  -0.019563  0  4.012545  0  0  -0.012404  -0.008803  0  3.977624  0
C  C74  1  0.68159536  0.72198885  0.83288311  1  0  -0.038048  0  3.758401  0  0  -0.013012  0  3.991666  0  0  -0.019669  0  4.012666  0  0  -0.012448  -0.008922  0  3.977762  0
C  C75  1  0.27800807  0.31840622  0.66711643  1  0  -0.038027  0  3.758455  0  0  -0.013042  0  3.991752  0  0  -0.019699  0  4.012753  0  0  -0.012438  -0.008939  0  3.977836  0
C  C76  1  0.35699744  0.23857771  0.28951794  1  0  -0.056425  0  3.814476  0  0  -0.031776  0  4.054271  0  0  -0.039717  0  4.077518  0  0  -0.020916  -0.02683  0  4.038782  0
C  C77  1  0.76141938  0.64300506  0.21048159  1  0  -0.056439  0  3.814291  0  0  -0.031868  0  4.054236  0  0  -0.039809  0  4.077483  0  0  -0.020912  -0.026875  0  4.038661  0
C  C78  1  0.64300724  0.76141903  0.71048120  1  0  -0.056462  0  3.814368  0  0  -0.031875  0  4.05427  0  0  -0.039815  0  4.077512  0  0  -0.020941  -0.026889  0  4.038731  0
C  C79  1  0.23857659  0.35699550  0.78951885  1  0  -0.056427  0  3.814498  0  0  -0.031791  0  4.05432  0  0  -0.039731  0  4.077567  0  0  -0.020943  -0.026816  0  4.038758  0
C  C80  1  0.74087869  0.31112082  0.58624989  1  0  0.76297  0  3.756999  0  0  0.721518  0  4.051448  0  0  0.756298  0  4.04081  0  0  0.234735  0.697778  0  4.057618  0
C  C81  1  0.68888372  0.25912109  0.91374986  1  0  0.763218  0  3.756914  0  0  0.721712  0  4.051434  0  0  0.756517  0  4.040767  0  0  0.234846  0.69797  0  4.057595  0
C  C82  1  0.25912009  0.68888107  0.41374981  1  0  0.763019  0  3.756981  0  0  0.721597  0  4.05141  0  0  0.756378  0  4.040774  0  0  0.234785  0.69786  0  4.057549  0
C  C83  1  0.31112026  0.74087955  0.08625013  1  0  0.763023  0  3.757037  0  0  0.721578  0  4.051487  0  0  0.756356  0  4.040851  0  0  0.234747  0.697848  0  4.057626  0
C  C84  1  0.11280037  0.22951010  0.24913653  1  0  0.324429  0  3.835259  0  0  0.316386  0  4.103913  0  0  0.324709  0  4.121437  0  0  0.082947  0.310304  0  4.09209  0
C  C85  1  0.77048687  0.88720157  0.25086252  1  0  0.324405  0  3.835357  0  0  0.316435  0  4.103913  0  0  0.324757  0  4.121438  0  0  0.082959  0.310348  0  4.092117  0
C  C86  1  0.88720255  0.77048792  0.75086315  1  0  0.324449  0  3.835308  0  0  0.31649  0  4.103859  0  0  0.324813  0  4.121383  0  0  0.08299  0.31041  0  4.092034  0
C  C87  1  0.22950682  0.11279897  0.74913702  1  0  0.3245  0  3.835387  0  0  0.316438  0  4.104056  0  0  0.324761  0  4.12158  0  0  0.082973  0.310342  0  4.092277  0
C  C88  1  0.80630889  0.31412120  0.65366316  1  0  -0.263277  0  3.62446  0  0  -0.296946  0  3.863326  0  0  -0.302834  0  3.871107  0  0  -0.159258  -0.293007  0  3.858253  0
C  C89  1  0.68588409  0.19369070  0.84633655  1  0  -0.263342  0  3.624359  0  0  -0.297032  0  3.863252  0  0  -0.302933  0  3.871037  0  0  -0.159276  -0.293092  0  3.858177  0
C  C90  1  0.19368927  0.68588200  0.34633701  1  0  -0.26322  0  3.62444  0  0  -0.29695  0  3.863386  0  0  -0.302856  0  3.87118  0  0  -0.159225  -0.293017  0  3.858309  0
C  C91  1  0.31411812  0.80631123  0.15366347  1  0  -0.26321  0  3.62437  0  0  -0.296897  0  3.863278  0  0  -0.3028  0  3.871064  0  0  -0.159225  -0.292973  0  3.858201  0
C  C92  1  0.72513793  0.24107188  0.71490469  1  0  -0.070302  0  3.631075  0  0  -0.109529  0  3.888084  0  0  -0.109807  0  3.901765  0  0  -0.161052  -0.10914  0  3.878642  0
C  C93  1  0.75892919  0.27486270  0.78509469  1  0  -0.070294  0  3.630974  0  0  -0.109513  0  3.888006  0  0  -0.109792  0  3.90169  0  0  -0.16106  -0.109111  0  3.878559  0
C  C94  1  0.27486086  0.75893001  0.28509551  1  0  -0.07033  0  3.63099  0  0  -0.10956  0  3.888055  0  0  -0.109838  0  3.901741  0  0  -0.16105  -0.109153  0  3.878605  0
C  C95  1  0.24106959  0.72513919  0.21490501  1  0  -0.070326  0  3.630947  0  0  -0.109564  0  3.888003  0  0  -0.109843  0  3.90169  0  0  -0.161086  -0.109169  0  3.878558  0
O  O96  1  0.59460944  0.25047965  0.33381757  1  0  -0.691768  0  2.000391  0  0  -0.64017  0  2.239755  0  0  -0.66479  0  2.2297  0  0  -0.359618  -0.622574  0  2.246054  0
O  O97  1  0.74951715  0.40539086  0.16618313  1  0  -0.691787  0  2.000368  0  0  -0.640163  0  2.239738  0  0  -0.664783  0  2.229683  0  0  -0.359626  -0.622547  0  2.246042  0
O  O98  1  0.40539348  0.74951837  0.66618263  1  0  -0.691689  0  2.000401  0  0  -0.640057  0  2.239737  0  0  -0.664677  0  2.229683  0  0  -0.359555  -0.622436  0  2.246058  0
O  O99  1  0.25048348  0.59460714  0.83381668  1  0  -0.691739  0  2.000352  0  0  -0.640111  0  2.239701  0  0  -0.664725  0  2.229646  0  0  -0.359591  -0.622504  0  2.246021  0
O  O100  1  0.54135641  0.27145544  0.08512304  1  0  -0.708657  0  2.052891  0  0  -0.667334  0  2.298534  0  0  -0.69286  0  2.287671  0  0  -0.388583  -0.64879  0  2.305374  0
O  O101  1  0.72854061  0.45864695  0.41487701  1  0  -0.708611  0  2.052935  0  0  -0.66729  0  2.298606  0  0  -0.692814  0  2.287744  0  0  -0.388586  -0.648738  0  2.305431  0
O  O102  1  0.45864598  0.72854127  0.91487674  1  0  -0.708615  0  2.052948  0  0  -0.667303  0  2.298581  0  0  -0.692822  0  2.287719  0  0  -0.38855  -0.648726  0  2.305399  0
O  O103  1  0.27145704  0.54135493  0.58512326  1  0  -0.708588  0  2.052968  0  0  -0.667287  0  2.298585  0  0  -0.692812  0  2.287721  0  0  -0.388556  -0.64874  0  2.305418  0
O  O104  1  0.80712471  0.16998879  0.55559645  1  0  -0.691708  0  1.959143  0  0  -0.635539  0  2.177312  0  0  -0.662128  0  2.166704  0  0  -0.353256  -0.616579  0  2.184148  0
O  O105  1  0.83001246  0.19287705  0.94440337  1  0  -0.691779  0  1.95919  0  0  -0.635597  0  2.177396  0  0  -0.662197  0  2.166778  0  0  -0.353247  -0.616581  0  2.184216  0
O  O106  1  0.19287583  0.83001182  0.44440424  1  0  -0.691725  0  1.959112  0  0  -0.635567  0  2.177279  0  0  -0.662156  0  2.166668  0  0  -0.353238  -0.616556  0  2.184093  0
O  O107  1  0.16999151  0.80712359  0.05559560  1  0  -0.691726  0  1.959191  0  0  -0.63554  0  2.177335  0  0  -0.662126  0  2.166729  0  0  -0.35321  -0.616539  0  2.184143  0
O  O108  1  0.61474267  0.44594480  0.56002042  1  0  -0.800276  0  2.142685  0  0  -0.758999  0  2.399056  0  0  -0.786501  0  2.389873  0  0  -0.404436  -0.738694  0  2.404626  0
O  O109  1  0.55405849  0.38525600  0.93997893  1  0  -0.800385  0  2.142777  0  0  -0.7591  0  2.39918  0  0  -0.786598  0  2.389974  0  0  -0.404466  -0.73879  0  2.404734  0
O  O110  1  0.38525673  0.55405580  0.43997880  1  0  -0.800308  0  2.142727  0  0  -0.759053  0  2.399119  0  0  -0.786548  0  2.389923  0  0  -0.404442  -0.738726  0  2.404647  0
O  O111  1  0.44594443  0.61474202  0.06002229  1  0  -0.800315  0  2.14272  0  0  -0.759056  0  2.399107  0  0  -0.786547  0  2.389913  0  0  -0.404466  -0.738782  0  2.404677  0
O  O112  1  0.26600518  0.40924409  0.05234349  1  0  -0.730084  0  2.044563  0  0  -0.679213  0  2.280746  0  0  -0.705437  0  2.269422  0  0  -0.37066  -0.660221  0  2.288003  0
O  O113  1  0.59075416  0.73399752  0.44765595  1  0  -0.730099  0  2.044698  0  0  -0.67919  0  2.280899  0  0  -0.70542  0  2.269569  0  0  -0.370647  -0.660213  0  2.288168  0
O  O114  1  0.73399475  0.59075781  0.94765665  1  0  -0.73008  0  2.044484  0  0  -0.679201  0  2.280688  0  0  -0.705431  0  2.269361  0  0  -0.370623  -0.660193  0  2.287951  0
O  O115  1  0.40924515  0.26600568  0.55234364  1  0  -0.730123  0  2.04458  0  0  -0.679258  0  2.280745  0  0  -0.705486  0  2.269416  0  0  -0.370718  -0.660295  0  2.288027  0
O  O116  1  0.89721052  0.09618388  0.40208875  1  0  -0.916306  0  1.871397  0  0  -0.878571  0  2.070208  0  0  -0.897554  0  2.036296  0  0  -0.650966  -0.864355  0  2.094081  0
O  O117  1  0.90381708  0.10279068  0.09791118  1  0  -0.916232  0  1.871439  0  0  -0.878491  0  2.070259  0  0  -0.897476  0  2.036351  0  0  -0.650932  -0.86426  0  2.094133  0
O  O118  1  0.10279222  0.90381936  0.59791373  1  0  -0.916193  0  1.871426  0  0  -0.878444  0  2.07025  0  0  -0.897431  0  2.036337  0  0  -0.650993  -0.864275  0  2.094128  0
O  O119  1  0.09617959  0.89720597  0.90208790  1  0  -0.91619  0  1.871446  0  0  -0.878467  0  2.070249  0  0  -0.897447  0  2.03634  0  0  -0.650953  -0.864265  0  2.094145  0
O  O120  1  0.96900894  0.20641990  0.26436168  1  0  -0.543832  0  2.189826  0  0  -0.483112  0  2.404453  0  0  -0.502829  0  2.395549  0  0  -0.345874  -0.469023  0  2.410435  0
O  O121  1  0.79357901  0.03099098  0.23563791  1  0  -0.543865  0  2.189881  0  0  -0.483151  0  2.404457  0  0  -0.502866  0  2.395552  0  0  -0.34585  -0.469012  0  2.410466  0
O  O122  1  0.03099284  0.79357810  0.73563960  1  0  -0.543787  0  2.189844  0  0  -0.483136  0  2.404474  0  0  -0.502853  0  2.395569  0  0  -0.345839  -0.469002  0  2.410441  0
O  O123  1  0.20641934  0.96900700  0.76436100  1  0  -0.543829  0  2.189924  0  0  -0.483114  0  2.404563  0  0  -0.502832  0  2.395659  0  0  -0.345814  -0.468959  0  2.410522  0
O  O124  1  0.69630833  0.95958334  0.48680435  1  0  -0.886895  0  1.846104  0  0  -0.850983  0  2.024272  0  0  -0.868936  0  1.992026  0  0  -0.633723  -0.837661  0  2.047085  0
O  O125  1  0.04041697  0.30369248  0.01319508  1  0  -0.886938  0  1.846038  0  0  -0.851032  0  2.024222  0  0  -0.868977  0  1.991987  0  0  -0.633805  -0.837775  0  2.047075  0
O  O126  1  0.30368922  0.04042115  0.51319579  1  0  -0.886906  0  1.845958  0  0  -0.850991  0  2.024162  0  0  -0.86894  0  1.991922  0  0  -0.63374  -0.837664  0  2.046986  0
O  O127  1  0.95958419  0.69630683  0.98680565  1  0  -0.886959  0  1.84601  0  0  -0.851071  0  2.024159  0  0  -0.869005  0  1.991932  0  0  -0.633803  -0.837798  0  2.047007  0
O  O128  1  0.40039441  0.21797036  0.40947161  1  0  -0.685596  0  2.045908  0  0  -0.637232  0  2.281248  0  0  -0.66206  0  2.27149  0  0  -0.356503  -0.619558  0  2.287408  0
O  O129  1  0.78203107  0.59960434  0.09052943  1  0  -0.685605  0  2.045954  0  0  -0.637213  0  2.281293  0  0  -0.662038  0  2.271534  0  0  -0.356471  -0.619482  0  2.287456  0
O  O130  1  0.59960490  0.78203285  0.59052799  1  0  -0.685606  0  2.045871  0  0  -0.637222  0  2.281212  0  0  -0.662054  0  2.271456  0  0  -0.356461  -0.619482  0  2.287376  0
O  O131  1  0.21797246  0.40039239  0.90947183  1  0  -0.685603  0  2.045822  0  0  -0.637231  0  2.281177  0  0  -0.662058  0  2.271426  0  0  -0.356488  -0.619505  0  2.287344  0
