# generated using pymatgen
data_Ba2CuH14(C3O8)2
_symmetry_space_group_name_H-M   'P 1'
_cell_length_a   6.94195231
_cell_length_b   7.17878940
_cell_length_c   8.79165165
_cell_angle_alpha   82.25599710
_cell_angle_beta   71.35701702
_cell_angle_gamma   81.58285545
_symmetry_Int_Tables_number   1
_chemical_formula_structural   Ba2CuH14(C3O8)2
_chemical_formula_sum   'Ba2 Cu1 H14 C6 O16'
_cell_volume   408.85747126
_cell_formula_units_Z   1
loop_
 _symmetry_equiv_pos_site_id
 _symmetry_equiv_pos_as_xyz
  1  'x, y, z'
loop_
 _atom_site_type_symbol
 _atom_site_label
 _atom_site_symmetry_multiplicity
 _atom_site_fract_x
 _atom_site_fract_y
 _atom_site_fract_z
 _atom_site_occupancy
 _atom_site_pbe_bader_charge
 _atom_site_pbe_bader_spin_density
 _atom_site_pbe_cm5_charge
 _atom_site_pbe_ddec_charge
 _atom_site_pbe_ddec_spin_density
 _atom_site_pbe_ddec_sum_bond_order
 _atom_site_pbe_magmom
Ba  Ba0  1  0.09830491  0.73435257  0.35340987  1  1.705145  0.001378  0.910193  1.48179  0.001119  1.559709  0.001
Ba  Ba1  1  0.90169454  0.26564683  0.64659097  1  1.705164  0.001378  0.910195  1.481747  0.001119  1.559776  0.001
Cu  Cu2  1  0.00000517  0.99999776  0.99999986  1  1.142811  0.613436  0.72247  0.909228  0.764102  2.182011  0.612
H  H3  1  0.59629623  0.90436682  0.07226429  1  0.089814  0.001004  0.117777  0.015817  0.000335  1.021105  0.001
H  H4  1  0.40370491  0.09563116  0.92773741  1  0.089747  0.001004  0.117751  0.015804  0.000335  1.021092  0.001
H  H5  1  0.00460535  0.36603387  0.08997702  1  0.112846  0.000719  0.118912  0.019429  0.000198  1.004185  0.001
H  H6  1  0.99539477  0.63395988  0.91001972  1  0.112779  0.000719  0.118933  0.019471  0.000199  1.004206  0.001
H  H7  1  0.45740440  0.39774234  0.12471460  1  0.055405  -0.000132  0.112501  0.005645  -0.000113  1.012423  0.0
H  H8  1  0.54259522  0.60225564  0.87527952  1  0.056804  -0.000132  0.112457  0.005564  -0.000113  1.01248  0.0
H  H9  1  0.34667918  0.05719876  0.42535163  1  0.637736  9e-06  0.310347  0.38612  2.7e-05  0.947266  0.0
H  H10  1  0.65332314  0.94280205  0.57465515  1  0.637715  9e-06  0.31034  0.386134  2.7e-05  0.947235  0.0
H  H11  1  0.30121594  0.92728771  0.59164359  1  0.637674  -9e-06  0.305323  0.393568  -4.6e-05  0.939641  0.0
H  H12  1  0.69878199  0.07271169  0.40836218  1  0.637727  -9e-06  0.305333  0.393622  -4.6e-05  0.939558  0.0
H  H13  1  0.38406320  0.34763759  0.41905977  1  0.625563  7e-06  0.296364  0.368885  -1.3e-05  0.982663  0.0
H  H14  1  0.61593675  0.65235756  0.58094141  1  0.625553  7e-06  0.296362  0.368887  -1.3e-05  0.982652  0.0
H  H15  1  0.35028880  0.40454035  0.59270859  1  0.641051  -3.5e-05  0.303033  0.390619  1.7e-05  0.944994  0.0
H  H16  1  0.64970812  0.59546754  0.40729081  1  0.640936  -3.5e-05  0.303028  0.390588  1.7e-05  0.945034  0.0
C  C17  1  0.65178813  0.80750039  0.16207635  1  1.557242  -0.002106  0.161638  0.50075  -0.002056  4.196747  -0.003
C  C18  1  0.34821436  0.19249901  0.83792485  1  1.557719  -0.002106  0.161648  0.500733  -0.002057  4.196779  -0.003
C  C19  1  0.04497797  0.27531563  0.19007171  1  1.520673  -0.002093  0.170002  0.517375  -0.001982  4.176439  -0.003
C  C20  1  0.95502300  0.72468376  0.80992647  1  1.520636  -0.002093  0.170013  0.51726  -0.001982  4.176778  -0.003
C  C21  1  0.57703131  0.28113492  0.13766959  1  1.56908  -0.000193  0.15406  0.508782  -0.000223  4.230174  0.0
C  C22  1  0.42296661  0.71886448  0.86232822  1  1.567746  -0.000193  0.15408  0.508756  -0.000223  4.230121  0.0
O  O23  1  0.83700339  0.81494706  0.15897972  1  -1.156484  0.086693  -0.36304  -0.571781  0.054296  2.495984  0.078
O  O24  1  0.16299910  0.18505234  0.84102035  1  -1.156428  0.086697  -0.363001  -0.571706  0.054299  2.495968  0.078
O  O25  1  0.53521993  0.69684834  0.25823823  1  -1.200942  0.010585  -0.325245  -0.52896  0.006382  2.28955  0.009
O  O26  1  0.46478054  0.30315530  0.74176757  1  -1.201473  0.010585  -0.325251  -0.528978  0.006382  2.28961  0.009
O  O27  1  0.06417235  0.35074004  0.30403184  1  -1.20455  0.011742  -0.352288  -0.553597  0.007118  2.287778  0.01
O  O28  1  0.93581917  0.64926219  0.69596727  1  -1.204559  0.011742  -0.35232  -0.553591  0.007117  2.287901  0.01
O  O29  1  0.07041927  0.09574826  0.17915093  1  -1.153303  0.086372  -0.352319  -0.565987  0.054124  2.43172  0.078
O  O30  1  0.92959099  0.90424973  0.82084733  1  -1.153391  0.086371  -0.352336  -0.565885  0.054122  2.431823  0.078
O  O31  1  0.71897665  0.24145801  0.01129704  1  -1.210142  -0.001495  -0.338325  -0.605742  -0.001672  2.349485  0.0
O  O32  1  0.28102601  0.75853997  0.98870201  1  -1.210125  -0.001496  -0.338292  -0.605681  -0.001672  2.349534  0.0
O  O33  1  0.55542234  0.20130160  0.28060418  1  -1.214286  -0.000162  -0.309715  -0.550045  -0.000225  2.266586  0.0
O  O34  1  0.44457238  0.79869921  0.71939428  1  -1.214283  -0.000162  -0.309727  -0.549992  -0.000225  2.266444  0.0
O  O35  1  0.24143604  0.98685352  0.50576925  1  -1.286431  0.000255  -0.627387  -0.818559  0.000188  2.057378  0.0
O  O36  1  0.75856307  0.01314871  0.49423591  1  -1.286496  0.000255  -0.627385  -0.818616  0.000188  2.057298  0.0
O  O37  1  0.28603665  0.42259145  0.50474150  1  -1.297388  0.000744  -0.653064  -0.848744  0.000474  2.114873  0.0
O  O38  1  0.71396263  0.57740937  0.49525694  1  -1.297285  0.000744  -0.653064  -0.84871  0.000474  2.114914  0.0
