# generated using pymatgen
data_AlH5C14N2O9F
_symmetry_space_group_name_H-M   'P 1'
_cell_length_a   6.64325831
_cell_length_b   11.19651243
_cell_length_c   17.51572024
_cell_angle_alpha   83.70985486
_cell_angle_beta   83.32799289
_cell_angle_gamma   72.07995269
_symmetry_Int_Tables_number   1
_chemical_formula_structural   AlH5C14N2O9F
_chemical_formula_sum   'Al2 H10 C28 N4 O18 F2'
_cell_volume   1227.48056339
_cell_formula_units_Z   2
loop_
 _symmetry_equiv_pos_site_id
 _symmetry_equiv_pos_as_xyz
  1  'x, y, z'
loop_
 _atom_site_type_symbol
 _atom_site_label
 _atom_site_symmetry_multiplicity
 _atom_site_fract_x
 _atom_site_fract_y
 _atom_site_fract_z
 _atom_site_occupancy
 _atom_site_pbe_bader_charge
 _atom_site_pbe_bader_spin_density
 _atom_site_pbe_cm5_charge
 _atom_site_pbe_ddec_charge
 _atom_site_pbe_ddec_spin_density
 _atom_site_pbe_ddec_sum_bond_order
 _atom_site_pbe_magmom
Al  Al0  1  0.49534013  0.49861127  0.49973311  1  2.503653  0  0.393757  1.644428  0  2.575459  0
Al  Al1  1  0.99499558  0.50200696  0.49894013  1  2.501834  0  0.395592  1.634838  0  2.568083  0
H  H2  1  0.29671485  0.35425603  0.55612141  1  0.640832  0  0.341885  0.424353  0  0.88134  0
H  H3  1  0.73556184  0.57665190  0.40756700  1  0.658672  0  0.34233  0.420046  0  0.88271  0
H  H4  1  0.59146863  0.57219039  0.27414793  1  0.112902  0  0.109613  0.114074  0  1.011554  0
H  H5  1  0.67814535  0.57196085  0.13261635  1  0.093046  0  0.109279  0.115584  0  0.990512  0
H  H6  1  0.13876652  0.43977508  0.11455392  1  0.104104  0  0.117586  0.144121  0  0.976365  0
H  H7  1  0.90031872  0.47730236  0.88875588  1  0.086561  0  0.115136  0.139553  0  0.987266  0
H  H8  1  0.33642049  0.53054387  0.71378376  1  0.133689  0  0.115531  0.126957  0  1.000296  0
H  H9  1  0.23961899  0.53868391  0.85497865  1  0.093636  0  0.104981  0.108711  0  1.010647  0
H  H10  1  0.19774581  0.23557120  0.39068580  1  0.129855  0  0.129209  0.147387  0  0.996097  0
H  H11  1  0.45274603  0.76677819  0.42227406  1  0.1627  0  0.131387  0.141881  0  1.033257  0
C  C12  1  0.85876412  0.27482743  0.48958866  1  1.652937  0  0.272501  0.643479  0  4.106643  0
C  C13  1  0.71255815  0.49608676  0.63630463  1  1.58286  0  0.274906  0.670214  0  4.078782  0
C  C14  1  0.13838563  0.72390568  0.50829605  1  1.640252  0  0.274252  0.640507  0  4.116874  0
C  C15  1  0.27674599  0.51039288  0.35996909  1  1.569764  0  0.26922  0.667611  0  4.078248  0
C  C16  1  0.31800420  0.50843049  0.27502954  1  0.045815  0  -0.023261  -0.166736  0  3.969381  0
C  C17  1  0.49320014  0.54403362  0.23840467  1  -0.001401  0  -0.071  -0.045259  0  3.970547  0
C  C18  1  0.54180175  0.54381908  0.15948226  1  -0.003038  0  -0.082374  -0.13893  0  3.935775  0
C  C19  1  0.41403331  0.50737782  0.11302436  1  0.120942  0  0.013836  0.182402  0  4.106762  0
C  C20  1  0.23873713  0.47036905  0.14839153  1  0.047437  0  -0.090977  -0.259065  0  3.923661  0
C  C21  1  0.19477370  0.47110300  0.22766472  1  0.411164  0  0.111155  0.293143  0  4.031517  0
C  C22  1  0.46288744  0.50778488  0.03226578  1  -0.02558  0  -0.035721  -0.097754  0  4.083778  0
C  C23  1  0.51000735  0.50929035  0.96277018  1  -0.317548  0  -0.033085  -0.090497  0  4.083174  0
C  C24  1  0.56220944  0.50904643  0.88214196  1  0.050559  0  0.011522  0.176989  0  4.114519  0
C  C25  1  0.77395321  0.49113655  0.85126944  1  0.087456  0  -0.091057  -0.25955  0  3.928118  0
C  C26  1  0.82229379  0.48785275  0.77222526  1  0.433368  0  0.115349  0.294212  0  4.042097  0
C  C27  1  0.66770265  0.50184167  0.72101941  1  0.023771  0  -0.017799  -0.159824  0  3.961148  0
C  C28  1  0.45721747  0.52019971  0.75298173  1  0.035973  0  -0.067763  -0.0456  0  3.958958  0
C  C29  1  0.40371346  0.52432592  0.83162125  1  -0.031464  0  -0.084284  -0.141809  0  3.944585  0
C  C30  1  0.93185114  0.13351153  0.48918486  1  0.131814  0  0.017379  -0.084409  0  3.852629  0
C  C31  1  0.12555961  0.06800440  0.44799953  1  -0.045544  0  0.02525  0.098066  0  3.900699  0
C  C32  1  0.81343917  0.06457343  0.53352272  1  0.262441  0  0.098855  0.023028  0  3.905313  0
C  C33  1  0.24985354  0.13325303  0.39887160  1  0.111628  0  -0.053976  -0.125622  0  3.862388  0
C  C34  1  0.43645863  0.06756472  0.36057523  1  0.2425  0  0.092276  0.038241  0  3.940306  0
C  C35  1  0.07225412  0.86563815  0.50323594  1  0.080612  0  0.022941  -0.071181  0  3.861847  0
C  C36  1  0.88432313  0.93219493  0.54156723  1  0.152645  0  0.094735  0.010922  0  3.91869  0
C  C37  1  0.19587520  0.93288606  0.45515277  1  0.160264  0  0.022708  0.090688  0  3.90533  0
C  C38  1  0.39004316  0.86853624  0.41464311  1  0.101773  0  -0.053563  -0.119668  0  3.868082  0
C  C39  1  0.50866306  0.93441170  0.36955605  1  0.172822  0  0.089554  0.029271  0  3.937095  0
N  N40  1  0.76058411  0.86341636  0.59506315  1  0.428334  0  0.063701  0.513718  0  4.226467  0
N  N41  1  0.61921755  0.13141300  0.58115543  1  0.436338  0  0.064613  0.509383  0  4.238451  0
N  N42  1  0.54973593  0.13795637  0.30451005  1  0.421442  0  0.059369  0.51061  0  4.240979  0
N  N43  1  0.72280080  0.86262806  0.33916879  1  0.401775  0  0.065767  0.526549  0  4.210977  0
O  O44  1  0.66395776  0.32795066  0.48100679  1  -1.241149  0  -0.225434  -0.577016  0  2.383447  0
O  O45  1  0.88330475  0.51362391  0.60335862  1  -1.25178  0  -0.230795  -0.584725  0  2.354563  0
O  O46  1  0.99817083  0.67540135  0.49490985  1  -1.230916  0  -0.222782  -0.561981  0  2.335028  0
O  O47  1  0.41824045  0.53180459  0.39565518  1  -1.272803  0  -0.241265  -0.610853  0  2.353967  0
O  O48  1  0.32833642  0.66748711  0.52178284  1  -1.2465  0  -0.215644  -0.546587  0  2.354471  0
O  O49  1  0.10484483  0.49300375  0.39235261  1  -1.25486  0  -0.240145  -0.607583  0  2.377925  0
O  O50  1  0.99717162  0.32603229  0.50075769  1  -1.238118  0  -0.219086  -0.561396  0  2.353569  0
O  O51  1  0.57169844  0.47301101  0.60153136  1  -1.270507  0  -0.235588  -0.602124  0  2.372335  0
O  O52  1  0.26593750  0.43892634  0.53079298  1  -1.439037  0  -0.450298  -0.990878  0  2.202649  0
O  O53  1  0.72529283  0.55902772  0.46328415  1  -1.458801  0  -0.450346  -0.987191  0  2.186858  0
O  O54  1  0.85570786  0.79246523  0.64686823  1  -0.406474  0  -0.095209  -0.279026  0  1.885263  0
O  O55  1  0.57219048  0.88400974  0.58367721  1  -0.436226  0  -0.110696  -0.298876  0  1.90783  0
O  O56  1  0.44684191  0.15665066  0.55372319  1  -0.43936  0  -0.086182  -0.284841  0  1.99692  0
O  O57  1  0.64899642  0.15664843  0.64496201  1  -0.394777  0  -0.097858  -0.276375  0  1.850902  0
O  O58  1  0.57593501  0.23369277  0.32531051  1  -0.445306  0  -0.107966  -0.298046  0  1.937936  0
O  O59  1  0.60433573  0.09670611  0.24016370  1  -0.418542  0  -0.12526  -0.312941  0  1.865516  0
O  O60  1  0.74680095  0.75773552  0.31669178  1  -0.441794  0  -0.111559  -0.309967  0  1.917318  0
O  O61  1  0.86624688  0.91107639  0.34147104  1  -0.456783  0  -0.121896  -0.32409  0  1.931011  0
F  F62  1  0.02719165  0.43081086  0.25849229  1  -0.631248  0  -0.092806  -0.135661  0  1.358316  0
F  F63  1  0.02947439  0.46565844  0.74558597  1  -0.628612  0  -0.0805  -0.124905  0  1.384339  0
