# generated using pymatgen
data_ZnH8C9N5O4
_symmetry_space_group_name_H-M   'P 1'
_cell_length_a   9.78688432
_cell_length_b   10.89215923
_cell_length_c   11.94868425
_cell_angle_alpha   84.89733724
_cell_angle_beta   91.16677657
_cell_angle_gamma   93.93895838
_symmetry_Int_Tables_number   1
_chemical_formula_structural   ZnH8C9N5O4
_chemical_formula_sum   'Zn2 H16 C18 N10 O8'
_cell_volume   1265.55836878
_cell_formula_units_Z   2
loop_
 _symmetry_equiv_pos_site_id
 _symmetry_equiv_pos_as_xyz
  1  'x, y, z'
loop_
 _atom_site_type_symbol
 _atom_site_label
 _atom_site_symmetry_multiplicity
 _atom_site_fract_x
 _atom_site_fract_y
 _atom_site_fract_z
 _atom_site_occupancy
 _atom_site_pbe_bader_charge
 _atom_site_pbe_bader_spin_density
 _atom_site_pbe_cm5_charge
 _atom_site_pbe_ddec_charge
 _atom_site_pbe_ddec_spin_density
 _atom_site_pbe_ddec_sum_bond_order
 _atom_site_pbe_magmom
Zn  Zn0  1  0.65973024  0.51303652  0.49865344  1  1.29542  0  0.683351  0.843491  0  2.360127  0
Zn  Zn1  1  0.35637591  0.50057180  0.49078757  1  1.285652  0  0.683339  0.850941  0  2.34626  0
H  H2  1  0.30486869  0.80415532  0.36852733  1  0.499845  0  0.281799  0.287767  0  1.031932  0
H  H3  1  0.07817689  0.28931956  0.69544694  1  0.480849  0  0.318326  0.318757  0  0.936296  0
H  H4  1  0.83102444  0.73166013  0.39061980  1  0.429607  0  0.29521  0.304201  0  0.944205  0
H  H5  1  0.80474375  0.63032220  0.29776814  1  0.452775  0  0.288177  0.300328  0  0.975708  0
H  H6  1  0.23351939  0.58564980  0.29131643  1  0.498843  0  0.305358  0.314837  0  0.965751  0
H  H7  1  0.09177416  0.67469442  0.26465736  1  0.478351  0  0.311364  0.310055  0  0.945118  0
H  H8  1  0.77778107  0.40372548  0.68514844  1  0.471427  0  0.287256  0.300805  0  0.99467  0
H  H9  1  0.82954846  0.27245232  0.64585823  1  0.460922  0  0.279611  0.280292  0  1.011241  0
H  H10  1  0.23763113  0.94499903  0.34500020  1  0.436921  0  0.294302  0.283277  0  0.973227  0
H  H11  1  0.74250733  0.05558178  0.70769862  1  0.427006  0  0.293472  0.274983  0  0.986183  0
H  H12  1  0.63171309  0.16219346  0.72481343  1  0.419699  0  0.30052  0.286644  0  0.93914  0
H  H13  1  0.31984181  0.23209875  0.38537081  1  0.462588  0  0.288553  0.291988  0  0.984971  0
H  H14  1  0.32302643  0.12498594  0.29304679  1  0.415272  0  0.296861  0.285084  0  0.95257  0
H  H15  1  0.69597295  0.78095059  0.62897447  1  0.484092  0  0.285933  0.297311  0  1.000982  0
H  H16  1  0.67021256  0.87186539  0.73206585  1  0.373829  0  0.291281  0.273713  0  0.966553  0
H  H17  1  0.23034210  0.30433097  0.61545982  1  0.534167  0  0.308003  0.329152  0  0.967271  0
C  C18  1  0.51631920  0.74380004  0.48449779  1  1.516269  0  0.216904  0.622555  0  4.116959  0
C  C19  1  0.59272219  0.06114332  0.58904037  1  0.363027  0  0.061104  0.138414  0  4.075934  0
C  C20  1  0.41238372  0.07544242  0.44411232  1  0.384231  0  0.071285  0.154174  0  4.067613  0
C  C21  1  0.59826969  0.93436782  0.57762070  1  0.380015  0  0.071483  0.166023  0  4.069308  0
C  C22  1  0.50303625  0.13134428  0.52002320  1  -0.024624  0  -0.035552  -0.218542  0  3.993137  0
C  C23  1  0.51120893  0.87705727  0.49711058  1  0.036591  0  -0.043633  -0.252237  0  3.950799  0
C  C24  1  0.07244501  0.41162775  0.55895093  1  1.091253  0  0.241939  0.3542  0  4.078233  0
C  C25  1  0.94103674  0.58152544  0.42082849  1  0.944628  0  0.177423  0.23617  0  4.052526  0
C  C26  1  0.07945335  0.56139535  0.40592063  1  0.962443  0  0.222739  0.326621  0  4.101745  0
C  C27  1  0.93059083  0.42936206  0.57337177  1  0.968348  0  0.20782  0.286773  0  4.029729  0
C  C28  1  0.50988886  0.26879793  0.51849304  1  1.567579  0  0.222889  0.630524  0  4.132018  0
C  C29  1  0.50508165  0.50060718  0.27401715  1  1.649258  0  0.224813  0.661684  0  4.255249  0
C  C30  1  0.49276567  0.51152856  0.71356680  1  1.698918  0  0.218228  0.650274  0  4.270476  0
C  C31  1  0.50407602  0.50532999  0.15287832  1  0.214197  0  -0.020143  -0.158297  0  3.878318  0
C  C32  1  0.49110708  0.51274020  0.83445547  1  0.099235  0  -0.01787  -0.147718  0  3.872265  0
C  C33  1  0.49943385  0.50872697  0.05017586  1  -0.346787  0  -0.019644  0.021308  0  4.263112  0
C  C34  1  0.49499657  0.51137158  0.93706124  1  -0.209434  0  -0.021639  0.012771  0  4.263033  0
C  C35  1  0.41423107  0.94684890  0.43377054  1  0.435612  0  0.089163  0.199039  0  4.055793  0
N  N36  1  0.87019270  0.51322033  0.50377761  1  -1.252748  0  -0.325179  -0.34763  0  3.539408  0
N  N37  1  0.86206291  0.36160448  0.66223413  1  -1.225388  0  -0.616859  -0.667313  0  3.283656  0
N  N38  1  0.14564140  0.48101509  0.47868835  1  -1.268529  0  -0.342141  -0.397844  0  3.424796  0
N  N39  1  0.32363351  0.89763412  0.35633433  1  -1.246974  0  -0.6138  -0.614716  0  3.329331  0
N  N40  1  0.68154912  0.11825893  0.66759155  1  -1.181802  0  -0.597576  -0.593327  0  3.317488  0
N  N41  1  0.31767598  0.14013390  0.37580118  1  -1.216846  0  -0.613674  -0.621674  0  3.30181  0
N  N42  1  0.69079080  0.86962428  0.64892955  1  -1.183811  0  -0.622295  -0.636141  0  3.300156  0
N  N43  1  0.13163994  0.32489803  0.62694325  1  -1.289624  0  -0.567114  -0.591774  0  3.33399  0
N  N44  1  0.87907079  0.67103713  0.34668598  1  -1.190357  0  -0.624225  -0.679865  0  3.232374  0
N  N45  1  0.15090598  0.62489116  0.32009003  1  -1.281113  0  -0.577737  -0.599367  0  3.341469  0
O  O46  1  0.62987936  0.69335686  0.50824181  1  -1.179897  0  -0.315179  -0.558639  0  2.379538  0
O  O47  1  0.39806042  0.31953566  0.53550072  1  -1.186117  0  -0.315145  -0.576952  0  2.36624  0
O  O48  1  0.62316008  0.32763696  0.49507946  1  -1.149496  0  -0.302454  -0.517737  0  2.336547  0
O  O49  1  0.40933895  0.68249958  0.45056983  1  -1.182601  0  -0.314849  -0.550804  0  2.384777  0
O  O50  1  0.61862650  0.52676114  0.32236950  1  -1.154055  0  -0.294148  -0.532488  0  2.288253  0
O  O51  1  0.38205883  0.53229261  0.66028862  1  -1.130809  0  -0.3046  -0.524201  0  2.249678  0
O  O52  1  0.60683024  0.48905726  0.67247171  1  -1.157516  0  -0.305546  -0.551548  0  2.295688  0
O  O53  1  0.39010356  0.47044391  0.32123578  1  -1.160338  0  -0.307503  -0.555342  0  2.27927  0
