# generated using pymatgen
data_NaH3C2(N3O)2
_symmetry_space_group_name_H-M   'P 1'
_cell_length_a   3.63314962
_cell_length_b   8.36415622
_cell_length_c   18.92728098
_cell_angle_alpha   89.99997555
_cell_angle_beta   91.37821104
_cell_angle_gamma   90.00000374
_symmetry_Int_Tables_number   1
_chemical_formula_structural   NaH3C2(N3O)2
_chemical_formula_sum   'Na4 H12 C8 N24 O8'
_cell_volume   575.00019625
_cell_formula_units_Z   4
loop_
 _symmetry_equiv_pos_site_id
 _symmetry_equiv_pos_as_xyz
  1  'x, y, z'
loop_
 _atom_site_type_symbol
 _atom_site_label
 _atom_site_symmetry_multiplicity
 _atom_site_fract_x
 _atom_site_fract_y
 _atom_site_fract_z
 _atom_site_occupancy
 _atom_site_hle17_bader_spin_density
 _atom_site_hle17_ddec_charge
 _atom_site_hle17_ddec_spin_density
 _atom_site_hle17_ddec_sum_bond_order
 _atom_site_hle17_magmom
 _atom_site_hse06_10hf_bader_spin_density
 _atom_site_hse06_10hf_ddec_charge
 _atom_site_hse06_10hf_ddec_spin_density
 _atom_site_hse06_10hf_ddec_sum_bond_order
 _atom_site_hse06_10hf_magmom
 _atom_site_hse06_bader_spin_density
 _atom_site_hse06_ddec_charge
 _atom_site_hse06_ddec_spin_density
 _atom_site_hse06_ddec_sum_bond_order
 _atom_site_hse06_magmom
 _atom_site_pbe_bader_spin_density
 _atom_site_pbe_cm5_charge
 _atom_site_pbe_ddec_charge
 _atom_site_pbe_ddec_spin_density
 _atom_site_pbe_ddec_sum_bond_order
 _atom_site_pbe_magmom
Na  Na0  1  0.76067883  0.16027670  0.21718414  1  0  0.871118  0  0.403599  0  0  0.800115  0  0.586231  0  0  0.813638  0  0.563033  0  0  0.72552  0.790354  0  0.602717  0
Na  Na1  1  0.73931525  0.66027450  0.28281537  1  0  0.871142  0  0.403569  0  0  0.800137  0  0.586216  0  0  0.813664  0  0.563022  0  0  0.725532  0.790371  0  0.602699  0
Na  Na2  1  0.23931720  0.83972451  0.78281582  1  0  0.87113  0  0.403592  0  0  0.800123  0  0.586247  0  0  0.813647  0  0.563049  0  0  0.725535  0.790353  0  0.60273  0
Na  Na3  1  0.26067802  0.33972551  0.71718406  1  0  0.871131  0  0.403579  0  0  0.800115  0  0.586244  0  0  0.813646  0  0.563046  0  0  0.725545  0.790357  0  0.602727  0
H  H4  1  0.53536665  0.85820567  0.98235557  1  0  0.117484  0  0.962041  0  0  0.126757  0  1.044543  0  0  0.128456  0  1.041904  0  0  0.113995  0.125603  0  1.046066  0
H  H5  1  0.96463704  0.35820209  0.51764392  1  0  0.117494  0  0.962008  0  0  0.126771  0  1.044528  0  0  0.128474  0  1.04189  0  0  0.114019  0.125621  0  1.04605  0
H  H6  1  0.46463488  0.14179435  0.01764283  1  0  0.117494  0  0.962043  0  0  0.126777  0  1.044551  0  0  0.128476  0  1.041913  0  0  0.114017  0.125627  0  1.04607  0
H  H7  1  0.03537001  0.64179673  0.48235715  1  0  0.117513  0  0.962034  0  0  0.126778  0  1.044563  0  0  0.128481  0  1.041925  0  0  0.114013  0.125622  0  1.04609  0
H  H8  1  0.50975049  0.64658719  0.99770611  1  0  0.121131  0  0.953291  0  0  0.133684  0  1.028546  0  0  0.135989  0  1.025035  0  0  0.111465  0.13211  0  1.030663  0
H  H9  1  0.99025047  0.14658362  0.50229446  1  0  0.121058  0  0.953308  0  0  0.133633  0  1.028558  0  0  0.135936  0  1.02505  0  0  0.111449  0.13206  0  1.030676  0
H  H10  1  0.49024829  0.35341283  0.00229386  1  0  0.121118  0  0.953321  0  0  0.133687  0  1.028571  0  0  0.135991  0  1.025059  0  0  0.111462  0.132116  0  1.030687  0
H  H11  1  0.00975657  0.85341520  0.49770661  1  0  0.121077  0  0.953347  0  0  0.133644  0  1.028608  0  0  0.135947  0  1.025101  0  0  0.111446  0.13207  0  1.030727  0
H  H12  1  0.13125968  0.75003218  0.95683611  1  0  0.119431  0  0.958569  0  0  0.135079  0  1.029026  0  0  0.135511  0  1.028636  0  0  0.113374  0.13478  0  1.02905  0
H  H13  1  0.36874656  0.25002856  0.54316436  1  0  0.119431  0  0.958527  0  0  0.135063  0  1.029024  0  0  0.135497  0  1.028633  0  0  0.113382  0.13477  0  1.029048  0
H  H14  1  0.86873910  0.24996784  0.04316333  1  0  0.119455  0  0.958563  0  0  0.135108  0  1.029026  0  0  0.135539  0  1.028638  0  0  0.113384  0.134813  0  1.029047  0
H  H15  1  0.63126048  0.74997145  0.45683671  1  0  0.119467  0  0.958545  0  0  0.135125  0  1.028997  0  0  0.135557  0  1.028609  0  0  0.113398  0.134826  0  1.029025  0
C  C16  1  0.35583588  0.75877662  0.99633153  1  0  -0.189972  0  3.608101  0  0  -0.308139  0  3.861093  0  0  -0.295317  0  3.871324  0  0  -0.130668  -0.312646  0  3.857244  0
C  C17  1  0.14416760  0.25877184  0.50366788  1  0  -0.18981  0  3.608037  0  0  -0.308019  0  3.861101  0  0  -0.29522  0  3.871331  0  0  -0.130675  -0.312531  0  3.857257  0
C  C18  1  0.64416290  0.24122579  0.00366739  1  0  -0.190017  0  3.608197  0  0  -0.308236  0  3.861172  0  0  -0.295421  0  3.871405  0  0  -0.130715  -0.312733  0  3.857319  0
C  C19  1  0.85583944  0.74122698  0.49633319  1  0  -0.189934  0  3.608158  0  0  -0.30814  0  3.861122  0  0  -0.295332  0  3.871363  0  0  -0.130692  -0.31264  0  3.857278  0
C  C20  1  0.13909864  0.68093893  0.11856293  1  0  0.404527  0  3.820907  0  0  0.35296  0  4.118139  0  0  0.378913  0  4.128796  0  0  0.333845  0.339297  0  4.111413  0
C  C21  1  0.36090349  0.18093022  0.38143756  1  0  0.404516  0  3.820933  0  0  0.352988  0  4.118101  0  0  0.378923  0  4.128763  0  0  0.333833  0.339319  0  4.111387  0
C  C22  1  0.86089739  0.31907185  0.88143651  1  0  0.404611  0  3.820761  0  0  0.352985  0  4.118035  0  0  0.378935  0  4.128687  0  0  0.333841  0.339316  0  4.11133  0
C  C23  1  0.63909804  0.81906741  0.61856348  1  0  0.404526  0  3.820808  0  0  0.352977  0  4.117988  0  0  0.378923  0  4.128647  0  0  0.333839  0.339325  0  4.111253  0
N  N24  1  0.20721113  0.78745299  0.06577421  1  0  0.004922  0  3.496397  0  0  0.123865  0  3.684003  0  0  0.083605  0  3.743083  0  0  -0.118846  0.137198  0  3.662958  0
N  N25  1  0.29279099  0.28744781  0.43422574  1  0  0.004766  0  3.496465  0  0  0.123755  0  3.683996  0  0  0.08354  0  3.74304  0  0  -0.118869  0.137092  0  3.662953  0
N  N26  1  0.79278490  0.21254942  0.93422629  1  0  0.004814  0  3.49635  0  0  0.123851  0  3.683888  0  0  0.083607  0  3.74295  0  0  -0.118861  0.137169  0  3.66286  0
N  N27  1  0.70721330  0.71254982  0.56577479  1  0  0.004837  0  3.496462  0  0  0.123874  0  3.683949  0  0  0.083632  0  3.743014  0  0  -0.118816  0.137201  0  3.662903  0
N  N28  1  0.09939870  0.93374986  0.08633139  1  0  -0.085456  0  2.891051  0  0  -0.09494  0  3.174058  0  0  -0.084947  0  3.1897  0  0  -0.066437  -0.097672  0  3.166625  0
N  N29  1  0.40059790  0.43374471  0.41366744  1  0  -0.085456  0  2.8911  0  0  -0.094931  0  3.174053  0  0  -0.084953  0  3.189691  0  0  -0.066397  -0.097658  0  3.166609  0
N  N30  1  0.90060008  0.06625375  0.91366700  1  0  -0.08543  0  2.891193  0  0  -0.094913  0  3.174139  0  0  -0.084926  0  3.189779  0  0  -0.066396  -0.097635  0  3.166696  0
N  N31  1  0.59939813  0.56625411  0.58633358  1  0  -0.085645  0  2.891363  0  0  -0.095157  0  3.174336  0  0  -0.085167  0  3.189974  0  0  -0.066522  -0.097888  0  3.166908  0
N  N32  1  0.98818395  0.76337642  0.17175464  1  0  -0.403871  0  3.001777  0  0  -0.38706  0  3.315965  0  0  -0.397433  0  3.320703  0  0  -0.288688  -0.379772  0  3.311162  0
N  N33  1  0.51181563  0.26337012  0.32824487  1  0  -0.403834  0  3.001601  0  0  -0.387035  0  3.315771  0  0  -0.397408  0  3.320514  0  0  -0.288638  -0.379749  0  3.310972  0
N  N34  1  0.01181483  0.23662599  0.82824428  1  0  -0.403963  0  3.001509  0  0  -0.387149  0  3.31572  0  0  -0.397522  0  3.320458  0  0  -0.288726  -0.379858  0  3.310919  0
N  N35  1  0.48818315  0.73662511  0.67175563  1  0  -0.403941  0  3.001649  0  0  -0.387159  0  3.315839  0  0  -0.397531  0  3.320578  0  0  -0.288716  -0.37987  0  3.311037  0
N  N36  1  0.97076174  0.91759760  0.14961951  1  0  -0.103933  0  3.048995  0  0  -0.095563  0  3.376381  0  0  -0.093225  0  3.380419  0  0  -0.132364  -0.096276  0  3.371902  0
N  N37  1  0.52923507  0.41759129  0.35037943  1  0  -0.103907  0  3.049002  0  0  -0.09556  0  3.376416  0  0  -0.093221  0  3.380456  0  0  -0.132425  -0.096266  0  3.371928  0
N  N38  1  0.02923704  0.08240600  0.85037941  1  0  -0.103887  0  3.049056  0  0  -0.095533  0  3.376459  0  0  -0.093194  0  3.380497  0  0  -0.132374  -0.096239  0  3.371963  0
N  N39  1  0.47076096  0.58240634  0.64962107  1  0  -0.103655  0  3.049032  0  0  -0.095277  0  3.376392  0  0  -0.092937  0  3.380428  0  0  -0.132267  -0.095993  0  3.371918  0
N  N40  1  0.24112061  0.52579478  0.10876477  1  0  -0.387617  0  2.858972  0  0  -0.400283  0  3.145508  0  0  -0.413076  0  3.147697  0  0  -0.218802  -0.391151  0  3.142402  0
N  N41  1  0.25888428  0.02578964  0.39123524  1  0  -0.387643  0  2.859296  0  0  -0.400319  0  3.145849  0  0  -0.413106  0  3.148033  0  0  -0.218827  -0.391188  0  3.142753  0
N  N42  1  0.75887541  0.47420165  0.89123467  1  0  -0.387631  0  2.859163  0  0  -0.400282  0  3.145632  0  0  -0.41309  0  3.147851  0  0  -0.218843  -0.391155  0  3.142546  0
N  N43  1  0.74112001  0.97420919  0.60876635  1  0  -0.387583  0  2.859161  0  0  -0.400282  0  3.145719  0  0  -0.413066  0  3.147902  0  0  -0.218803  -0.391164  0  3.142631  0
N  N44  1  0.15626896  0.42155112  0.15741035  1  0  0.618788  0  4.074472  0  0  0.679168  0  4.323946  0  0  0.703072  0  4.334051  0  0  0.091367  0.663149  0  4.317013  0
N  N45  1  0.34372489  0.92154409  0.34259111  1  0  0.618765  0  4.074554  0  0  0.679101  0  4.32406  0  0  0.703003  0  4.334171  0  0  0.091382  0.663078  0  4.317139  0
N  N46  1  0.84373257  0.57845368  0.84258805  1  0  0.618672  0  4.074523  0  0  0.679146  0  4.323848  0  0  0.703049  0  4.333951  0  0  0.091449  0.663125  0  4.316916  0
N  N47  1  0.65627664  0.07845234  0.65740888  1  0  0.618713  0  4.074535  0  0  0.679096  0  4.324008  0  0  0.702996  0  4.334118  0  0  0.091373  0.663074  0  4.31708  0
O  O48  1  0.26005507  0.27745291  0.14706708  1  0  -0.547565  0  1.773947  0  0  -0.534564  0  2.003034  0  0  -0.549888  0  1.995553  0  0  -0.27325  -0.523775  0  2.008063  0
O  O49  1  0.23993879  0.77744826  0.35293282  1  0  -0.547562  0  1.773993  0  0  -0.534552  0  2.003095  0  0  -0.549879  0  1.995625  0  0  -0.273226  -0.523745  0  2.008091  0
O  O50  1  0.73994371  0.72254950  0.85293183  1  0  -0.547475  0  1.774006  0  0  -0.53452  0  2.003077  0  0  -0.549842  0  1.995599  0  0  -0.273252  -0.523712  0  2.008074  0
O  O51  1  0.76005724  0.22255056  0.64706767  1  0  -0.547575  0  1.774042  0  0  -0.534568  0  2.003104  0  0  -0.549911  0  1.995666  0  0  -0.273274  -0.523764  0  2.0081  0
O  O52  1  0.97403568  0.45290157  0.21219449  1  0  -0.538976  0  1.819813  0  0  -0.53109  0  2.052101  0  0  -0.545307  0  2.045479  0  0  -0.260528  -0.521226  0  2.056678  0
O  O53  1  0.52596113  0.95289696  0.28780392  1  0  -0.538947  0  1.819705  0  0  -0.531018  0  2.051983  0  0  -0.545234  0  2.045358  0  0  -0.260528  -0.52115  0  2.05656  0
O  O54  1  0.02596585  0.54710204  0.78780550  1  0  -0.538908  0  1.819908  0  0  -0.53105  0  2.05216  0  0  -0.54526  0  2.045535  0  0  -0.260524  -0.52119  0  2.056745  0
O  O55  1  0.47403490  0.04710186  0.71219658  1  0  -0.538938  0  1.819636  0  0  -0.531021  0  2.051896  0  0  -0.545235  0  2.045271  0  0  -0.260521  -0.521152  0  2.056469  0
