# generated using pymatgen
data_CuH4C4NO4
_symmetry_space_group_name_H-M   'P 1'
_cell_length_a   6.85015879
_cell_length_b   7.73676791
_cell_length_c   12.90882452
_cell_angle_alpha   100.29307006
_cell_angle_beta   90.00733235
_cell_angle_gamma   116.29747894
_symmetry_Int_Tables_number   1
_chemical_formula_structural   CuH4C4NO4
_chemical_formula_sum   'Cu4 H16 C16 N4 O16'
_cell_volume   601.02457643
_cell_formula_units_Z   4
loop_
 _symmetry_equiv_pos_site_id
 _symmetry_equiv_pos_as_xyz
  1  'x, y, z'
loop_
 _atom_site_type_symbol
 _atom_site_label
 _atom_site_symmetry_multiplicity
 _atom_site_fract_x
 _atom_site_fract_y
 _atom_site_fract_z
 _atom_site_occupancy
 _atom_site_hle17_ddec_charge
 _atom_site_hle17_ddec_spin_density
 _atom_site_hle17_ddec_sum_bond_order
 _atom_site_hle17_magmom
 _atom_site_hse06_10hf_ddec_charge
 _atom_site_hse06_10hf_ddec_spin_density
 _atom_site_hse06_10hf_ddec_sum_bond_order
 _atom_site_hse06_10hf_magmom
 _atom_site_hse06_ddec_charge
 _atom_site_hse06_ddec_spin_density
 _atom_site_hse06_ddec_sum_bond_order
 _atom_site_hse06_magmom
 _atom_site_pbe_cm5_charge
 _atom_site_pbe_ddec_charge
 _atom_site_pbe_ddec_spin_density
 _atom_site_pbe_ddec_sum_bond_order
 _atom_site_pbe_magmom
Cu  Cu0  1  0.48970331  0.64899328  0.56013300  1  0.796168  0.63315  1.939122  0.457  0.780696  0.770998  2.349641  0.61  0.885587  0.875975  2.267798  0.72  0.66309  0.712403  0.616482  2.407814  0.48
Cu  Cu1  1  0.84075422  0.35063421  0.93993572  1  0.797321  -0.633693  1.937028  -0.457  0.781814  -0.771709  2.347516  -0.61  0.887446  -0.876748  2.264453  -0.72  0.663265  0.713888  -0.617442  2.405211  -0.481
Cu  Cu2  1  0.51028781  0.35099778  0.43986355  1  0.796244  -0.63315  1.939098  -0.457  0.780671  -0.770984  2.349713  -0.61  0.885669  -0.875975  2.267748  -0.72  0.663075  0.712321  -0.616534  2.407949  -0.481
Cu  Cu3  1  0.15925447  0.64937153  0.06006940  1  0.797264  0.633678  1.936803  0.457  0.781753  0.771696  2.347268  0.61  0.887397  0.876745  2.264217  0.72  0.663236  0.713814  0.617485  2.405001  0.481
H  H4  1  0.81052937  0.45077841  0.71435686  1  0.055007  -0.000234  0.92524  -0.001  0.056686  -4.6e-05  0.995061  0.0  0.051101  4e-06  0.993504  0.0  0.123503  0.062659  -4.4e-05  0.99537  0.0
H  H5  1  0.36033597  0.54866755  0.78590836  1  0.055057  0.000241  0.925175  0.001  0.057088  5.4e-05  0.994559  0.0  0.051517  2e-06  0.993065  0.0  0.123657  0.063087  5.2e-05  0.994772  0.0
H  H6  1  0.18946617  0.54922149  0.28563832  1  0.054939  0.000235  0.925287  0.001  0.056655  4.7e-05  0.995081  0.0  0.05107  -4e-06  0.993523  0.0  0.123477  0.062625  5e-05  0.995383  0.0
H  H7  1  0.63965585  0.45131614  0.21409204  1  0.055127  -0.000241  0.92525  -0.001  0.057142  -5.4e-05  0.994626  0.0  0.051573  -2e-06  0.993133  0.0  0.123687  0.06314  -5.5e-05  0.994819  0.0
H  H8  1  0.02031352  0.84051089  0.42069873  1  0.054015  0.000268  0.913568  0.0  0.057147  0.000292  0.982175  0.0  0.052486  0.000223  0.97904  0.0  0.125306  0.062466  0.000272  0.98369  0.0
H  H9  1  0.18035850  0.16045785  0.07985043  1  0.054273  -0.000273  0.912951  0.0  0.057347  -0.000293  0.981611  0.0  0.052753  -0.000223  0.978359  0.0  0.125327  0.062616  -0.00027  0.983152  0.0
H  H10  1  0.97968264  0.15946107  0.57929187  1  0.053998  -0.000268  0.913489  0.0  0.057167  -0.000292  0.982074  0.0  0.052509  -0.000223  0.978932  0.0  0.125315  0.062475  -0.000266  0.983618  0.0
H  H11  1  0.81963557  0.83954201  0.92015327  1  0.054308  0.000274  0.91293  0.0  0.057336  0.000293  0.981636  0.0  0.052743  0.000222  0.978385  0.0  0.125307  0.062605  0.000268  0.983184  0.0
H  H12  1  0.75326693  0.00005800  0.74966911  1  0.065339  -0.0  0.93221  0.0  0.073959  -2e-06  0.997983  0.0  0.076921  -1e-06  0.993299  0.0  0.131589  0.071489  -4e-06  1.00174  0.0
H  H13  1  0.24673079  0.99994624  0.25034282  1  0.065383  -1e-06  0.932228  0.0  0.073991  2e-06  0.998003  0.0  0.076954  1e-06  0.993318  0.0  0.131605  0.071499  4e-06  1.00177  0.0
H  H14  1  0.12273169  0.76944290  0.60963353  1  0.091468  -0.000109  0.926307  0.0  0.104131  -0.0001  0.982311  0.0  0.107291  -9.3e-05  0.978532  0.0  0.126803  0.101592  -8.9e-05  0.985344  0.0
H  H15  1  0.35328474  0.22954623  0.89056032  1  0.091502  0.000116  0.925257  0.0  0.103428  0.000101  0.982145  0.0  0.106597  9.5e-05  0.978355  0.0  0.126931  0.100902  9e-05  0.98519  0.0
H  H16  1  0.87727413  0.23057170  0.39036557  1  0.091536  0.000111  0.926267  0.0  0.104213  0.0001  0.982252  0.0  0.107378  9.3e-05  0.978474  0.0  0.126838  0.101654  8.9e-05  0.985288  0.0
H  H17  1  0.64670940  0.77046836  0.10944033  1  0.09149  -0.000115  0.925395  0.0  0.103418  -0.000101  0.982279  0.0  0.106586  -9.5e-05  0.978488  0.0  0.126968  0.100877  -9e-05  0.985332  0.0
H  H18  1  0.04494649  0.99963182  0.75013976  1  0.11935  -3e-06  0.95876  0.0  0.129568  -1e-06  1.017523  0.0  0.133905  -0.0  1.01558  0.0  0.114333  0.126198  -2e-06  1.019551  0.0
H  H19  1  0.95505498  0.00038575  0.24985424  1  0.119276  2e-06  0.958859  0.0  0.129456  1e-06  1.017668  0.0  0.133794  0.0  1.015728  0.0  0.114328  0.126131  2e-06  1.019628  0.0
C  C20  1  0.71474540  0.46289273  0.64950000  1  0.552666  0.000826  3.86354  0.001  0.496215  0.000271  4.178492  0.0  0.539519  0.000318  4.172968  0.001  0.141968  0.465573  0.000193  4.182474  0.0
C  C21  1  0.25228816  0.53681006  0.85068548  1  0.55163  -0.000818  3.865561  -0.001  0.495168  -0.000273  4.180337  0.0  0.538445  -0.000318  4.174977  -0.001  0.141529  0.464536  -0.000197  4.184285  0.0
C  C22  1  0.28525013  0.53710422  0.35049564  1  0.552845  -0.000832  3.863253  -0.001  0.496364  -0.000272  4.178227  0.0  0.539669  -0.000316  4.172702  -0.001  0.142073  0.465725  -0.000201  4.182174  0.0
C  C23  1  0.74771607  0.46317801  0.14932159  1  0.551439  0.000829  3.865999  0.001  0.494975  0.000272  4.180813  0.0  0.538258  0.00032  4.175446  0.001  0.141458  0.464343  0.000199  4.184724  0.0
C  C24  1  0.86132678  0.73868452  0.44408348  1  0.549995  -0.000524  3.873645  -0.001  0.491904  -0.000376  4.189602  -0.001  0.535414  -0.00034  4.182714  -0.001  0.143614  0.461127  -0.00037  4.194413  -0.001
C  C25  1  0.12281147  0.26183131  0.05626173  1  0.550083  0.000541  3.872987  0.001  0.492018  0.000386  4.188946  0.001  0.535548  0.000355  4.18215  0.001  0.143466  0.461225  0.000346  4.193892  0.001
C  C26  1  0.13866721  0.26129185  0.55590760  1  0.549959  0.000527  3.874004  0.001  0.491847  0.000375  4.189929  0.001  0.535361  0.000342  4.183042  0.001  0.143588  0.461074  0.000362  4.194755  0.001
C  C27  1  0.87719504  0.73817591  0.94374200  1  0.550117  -0.000549  3.873138  -0.001  0.492091  -0.000387  4.189045  -0.001  0.535623  -0.000354  4.182248  -0.001  0.143476  0.461299  -0.000345  4.194008  -0.001
C  C28  1  0.59419298  0.99987577  0.74982836  1  0.31412  -3.6e-05  3.671858  0.0  0.271  -4e-06  3.939712  0.0  0.289053  -5e-06  3.949428  0.0  0.192943  0.259065  -6e-06  3.934132  0.0
C  C29  1  0.40580327  0.00012554  0.25018014  1  0.314143  3.8e-05  3.672041  0.0  0.271054  5e-06  3.939858  0.0  0.289109  6e-06  3.949578  0.0  0.192931  0.25911  7e-06  3.934264  0.0
C  C30  1  0.24559746  0.87356406  0.67278904  1  0.199346  -9.8e-05  3.631466  0.0  0.170163  -8.1e-05  3.875807  0.0  0.184231  -9.2e-05  3.887529  0.0  0.079135  0.160816  -5.1e-05  3.868566  0.0
C  C31  1  0.37196768  0.12568228  0.82725076  1  0.199987  2.8e-05  3.632994  0.0  0.171284  7.8e-05  3.877204  0.0  0.185371  8.5e-05  3.888918  0.0  0.079056  0.161913  5e-05  3.869998  0.0
C  C32  1  0.75440908  0.12644907  0.32721068  1  0.199274  8.3e-05  3.631514  0.0  0.17006  8.1e-05  3.875853  0.0  0.184125  9.1e-05  3.887579  0.0  0.079042  0.160697  5.2e-05  3.868622  0.0
C  C33  1  0.62803302  0.87433085  0.17274974  1  0.19998  -1.8e-05  3.633194  0.0  0.171279  -7.8e-05  3.877403  0.0  0.18537  -8.4e-05  3.889115  0.0  0.079061  0.161893  -4.9e-05  3.870226  0.0
C  C34  1  0.20337695  0.99962420  0.75005829  1  -0.161137  3.6e-05  3.687803  0.0  -0.166188  -0.0  3.924015  0.0  -0.176635  2e-06  3.94045  0.0  -0.070674  -0.15991  0.0  3.914007  0.0
C  C35  1  0.79662742  0.00039336  0.24993881  1  -0.16105  -3.3e-05  3.687923  0.0  -0.166068  1e-06  3.92418  0.0  -0.176514  -2e-06  3.940609  0.0  -0.07073  -0.159846  1e-06  3.91414  0.0
N  N36  1  0.44174052  0.87329004  0.67274891  1  -0.337679  -0.001431  3.184656  -0.001  -0.284698  -0.000941  3.462461  0.0  -0.308108  -0.000934  3.472192  0.0  -0.324216  -0.270125  -0.00085  3.45756  0.0
N  N37  1  0.56847287  0.12620232  0.82706662  1  -0.338863  0.001486  3.18722  0.001  -0.285543  0.000944  3.464429  0.0  -0.309123  0.00094  3.474194  0.0  -0.324343  -0.271001  0.000841  3.459502  0.0
N  N38  1  0.55826304  0.12671129  0.32725573  1  -0.337717  0.001433  3.184926  0.001  -0.284655  0.000941  3.46264  0.0  -0.308083  0.000933  3.472375  0.0  -0.324166  -0.27009  0.000848  3.457729  0.0
N  N39  1  0.43152560  0.87380341  0.17294159  1  -0.338863  -0.001488  3.187151  -0.001  -0.285615  -0.000944  3.464415  0.0  -0.309198  -0.00094  3.474182  0.0  -0.324453  -0.271092  -0.000841  3.459506  0.0
O  O40  1  0.66255330  0.60333551  0.66948712  1  -0.548551  0.070015  2.12483  0.092  -0.522588  0.050021  2.41072  0.072  -0.568334  0.041259  2.404072  0.063  -0.320062  -0.492154  0.046376  2.416166  0.065
O  O41  1  0.05963517  0.39618990  0.83075842  1  -0.548464  -0.070022  2.125397  -0.092  -0.522601  -0.050041  2.411282  -0.072  -0.568522  -0.041278  2.404551  -0.063  -0.320086  -0.492187  -0.046456  2.416726  -0.065
O  O42  1  0.33743273  0.39665703  0.33050804  1  -0.548608  -0.07001  2.124849  -0.092  -0.522643  -0.050021  2.410769  -0.072  -0.568406  -0.041257  2.404118  -0.063  -0.320034  -0.492186  -0.046373  2.41618  -0.065
O  O43  1  0.94036977  0.60379667  0.16925701  1  -0.548391  0.070022  2.125494  0.092  -0.5225  0.050043  2.411292  0.072  -0.568422  0.041277  2.404566  0.063  -0.320005  -0.492072  0.04646  2.416716  0.065
O  O44  1  0.77282110  0.81935819  0.50941771  1  -0.530413  0.073398  2.129699  0.097  -0.504109  0.052343  2.412668  0.076  -0.549956  0.043168  2.406038  0.066  -0.315741  -0.473683  0.048752  2.418064  0.069
O  O45  1  0.95339649  0.18061336  0.99101228  1  -0.530407  -0.073429  2.129561  -0.098  -0.504172  -0.052377  2.412742  -0.076  -0.550193  -0.043195  2.406054  -0.067  -0.315735  -0.473916  -0.048679  2.418077  -0.069
O  O46  1  0.22717876  0.18062407  0.49057402  1  -0.530437  -0.073399  2.130233  -0.097  -0.504154  -0.052345  2.413281  -0.076  -0.55003  -0.043169  2.406661  -0.066  -0.315758  -0.473705  -0.048742  2.418642  -0.069
O  O47  1  0.04660200  0.81940119  0.00899921  1  -0.53032  0.07343  2.129615  0.098  -0.504094  0.052375  2.412789  0.076  -0.550102  0.043192  2.406075  0.067  -0.315579  -0.473822  0.048668  2.418121  0.069
O  O48  1  0.67137582  0.33563025  0.56491098  1  -0.515228  -0.07577  2.095886  -0.1  -0.491021  -0.052979  2.370943  -0.077  -0.53706  -0.043479  2.364647  -0.067  -0.313751  -0.460436  -0.049102  2.376087  -0.069
O  O49  1  0.33607595  0.66447859  0.93515564  1  -0.514876  0.075803  2.097161  0.1  -0.490767  0.053007  2.37242  0.077  -0.536922  0.043497  2.366016  0.067  -0.313566  -0.460221  0.049188  2.377605  0.069
O  O50  1  0.32862996  0.66437261  0.43508220  1  -0.515279  0.075776  2.095586  0.1  -0.491096  0.05298  2.370687  0.077  -0.53711  0.04348  2.364377  0.067  -0.313831  -0.460521  0.04912  2.375831  0.069
O  O51  1  0.66393279  0.33553602  0.06484269  1  -0.514825  -0.075807  2.097429  -0.1  -0.490732  -0.053007  2.372708  -0.077  -0.536889  -0.043498  2.366304  -0.067  -0.31362  -0.460184  -0.049203  2.377854  -0.069
O  O52  1  0.79166913  0.55769927  0.40400363  1  -0.535491  -0.06877  2.157035  -0.091  -0.508649  -0.049255  2.442633  -0.071  -0.553807  -0.040442  2.435832  -0.062  -0.313554  -0.478543  -0.046194  2.448164  -0.065
O  O53  1  0.23405820  0.44298056  0.09609660  1  -0.536228  0.068735  2.156153  0.091  -0.509193  0.049265  2.441693  0.071  -0.554522  0.040459  2.434928  0.062  -0.313696  -0.479206  0.046172  2.4473  0.065
O  O54  1  0.20831904  0.44228006  0.59598390  1  -0.53546  0.068764  2.156943  0.091  -0.508661  0.04925  2.442625  0.071  -0.553763  0.040439  2.435734  0.062  -0.313573  -0.478567  0.046198  2.448167  0.065
O  O55  1  0.76597022  0.55702668  0.90390481  1  -0.536363  -0.06872  2.156238  -0.091  -0.509344  -0.049258  2.441803  -0.071  -0.554672  -0.040455  2.435027  -0.062  -0.313806  -0.479372  -0.046169  2.447423  -0.065
