# generated using pymatgen
data_MnH19C26(N3O2)2
_symmetry_space_group_name_H-M   'P 1'
_cell_length_a   8.20763018
_cell_length_b   10.16023850
_cell_length_c   15.66398501
_cell_angle_alpha   88.80906251
_cell_angle_beta   75.01204826
_cell_angle_gamma   79.49038470
_symmetry_Int_Tables_number   1
_chemical_formula_structural   MnH19C26(N3O2)2
_chemical_formula_sum   'Mn2 H38 C52 N12 O8'
_cell_volume   1240.15826086
_cell_formula_units_Z   2
loop_
 _symmetry_equiv_pos_site_id
 _symmetry_equiv_pos_as_xyz
  1  'x, y, z'
loop_
 _atom_site_type_symbol
 _atom_site_label
 _atom_site_symmetry_multiplicity
 _atom_site_fract_x
 _atom_site_fract_y
 _atom_site_fract_z
 _atom_site_occupancy
 _atom_site_hle17_ddec_charge
 _atom_site_hle17_ddec_spin_density
 _atom_site_hle17_ddec_sum_bond_order
 _atom_site_hle17_magmom
 _atom_site_hse06_10hf_ddec_charge
 _atom_site_hse06_10hf_ddec_spin_density
 _atom_site_hse06_10hf_ddec_sum_bond_order
 _atom_site_hse06_10hf_magmom
 _atom_site_hse06_ddec_charge
 _atom_site_hse06_ddec_spin_density
 _atom_site_hse06_ddec_sum_bond_order
 _atom_site_hse06_magmom
 _atom_site_pbe_cm5_charge
 _atom_site_pbe_ddec_charge
 _atom_site_pbe_ddec_spin_density
 _atom_site_pbe_ddec_sum_bond_order
 _atom_site_pbe_magmom
Mn  Mn0  1  0.33418855  0.37124413  0.04362350  1  1.073719  -4.767093  1.99979  -4.63  0.959703  -4.591878  2.510078  -4.366  0.973385  -4.728956  2.44873  -4.541  0.683228  0.939577  -4.425572  2.558028  -4.186
Mn  Mn1  1  0.66580656  0.62875502  0.95638395  1  1.07373  4.767123  1.999747  4.63  0.959582  4.592019  2.510072  4.366  0.973322  4.728993  2.448709  4.541  0.683147  0.939478  4.425676  2.558021  4.187
H  H2  1  0.52336782  0.23162016  0.86467077  1  0.086553  -4.3e-05  0.943385  0.0  0.093906  -0.000249  1.00674  0.0  0.097458  -0.000373  1.003571  0.0  0.119946  0.091058  -0.000158  1.00944  0.0
H  H3  1  0.47660564  0.76837478  0.13534093  1  0.086516  4.8e-05  0.94345  0.0  0.093919  0.000249  1.00675  0.0  0.097467  0.000373  1.003584  0.0  0.119997  0.091085  0.000159  1.009457  0.0
H  H4  1  0.51151063  0.24754530  0.70642889  1  0.109385  -0.000311  0.943803  0.0  0.118887  -0.000145  1.004914  0.0  0.12181  -0.000214  1.002921  0.0  0.108881  0.116896  -0.000109  1.006706  0.0
H  H5  1  0.48848299  0.75245482  0.29358067  1  0.109481  0.000305  0.943664  0.0  0.118956  0.000145  1.004795  0.0  0.121868  0.000213  1.002803  0.0  0.108949  0.116965  0.000109  1.006589  0.0
H  H6  1  0.10150831  0.59050348  0.78787761  1  0.118427  -0.0005  0.952087  0.0  0.127437  -0.000291  1.014137  0.0  0.130529  -0.000442  1.013299  0.0  0.112215  0.125201  -0.000193  1.015018  0.0
H  H7  1  0.89849059  0.40950577  0.21212734  1  0.118375  0.000493  0.952218  0.0  0.127387  0.000292  1.014253  0.0  0.130478  0.000442  1.013415  0.0  0.112211  0.12515  0.000193  1.015143  0.0
H  H8  1  0.12802244  0.55981661  0.93931588  1  0.100722  -0.000111  0.953429  0.0  0.104914  -0.000303  1.018737  0.0  0.109814  -0.000457  1.013447  0.0  0.123727  0.100727  -0.000206  1.023744  0.0
H  H9  1  0.87196160  0.44018650  0.06069113  1  0.100733  0.000109  0.953396  0.0  0.104906  0.000304  1.018722  0.0  0.1098  0.000457  1.013442  0.0  0.123744  0.100718  0.000208  1.02373  0.0
H  H10  1  0.19310012  0.52655326  0.63251892  1  0.078537  0.000122  0.936015  0.0  0.082234  5.2e-05  1.013156  0.0  0.087257  3.9e-05  1.004457  0.0  0.111104  0.078322  4.5e-05  1.020351  0.0
H  H11  1  0.80690938  0.47345907  0.36748584  1  0.078581  -0.000115  0.935909  0.0  0.082263  -5.2e-05  1.01304  0.0  0.087284  -3.9e-05  1.004347  0.0  0.111166  0.078359  -4.5e-05  1.020237  0.0
H  H12  1  0.56533586  0.26206152  0.43811665  1  0.082524  0.000101  0.962056  0.0  0.082963  2.9e-05  1.044192  0.0  0.087913  3.2e-05  1.036392  0.0  0.11219  0.079234  1.8e-05  1.050298  0.0
H  H13  1  0.43465873  0.73793969  0.56188766  1  0.082509  -9.2e-05  0.962074  0.0  0.082926  -2.8e-05  1.044242  0.0  0.087876  -3.2e-05  1.036443  0.0  0.112202  0.079197  -1.8e-05  1.050345  0.0
H  H14  1  0.63850951  0.19286622  0.28592668  1  0.10989  -0.000287  0.948814  0.0  0.118262  -0.000105  1.01394  0.0  0.121687  -0.000199  1.012149  0.0  0.108618  0.115757  -4.4e-05  1.015515  0.0
H  H15  1  0.36147971  0.80711089  0.71407662  1  0.109818  0.000284  0.94898  0.0  0.118193  0.000105  1.014093  0.0  0.121618  0.000199  1.012303  0.0  0.108658  0.115689  4.4e-05  1.015657  0.0
H  H16  1  0.58943245  0.22122269  0.13380224  1  0.094242  0.000118  0.941863  0.0  0.0996  -2.8e-05  1.007602  0.0  0.104695  -0.000213  1.001993  0.0  0.121199  0.095146  0.0001  1.012785  0.0
H  H17  1  0.41055322  0.77875342  0.86619963  1  0.094267  -0.000115  0.941886  0.0  0.099554  2.8e-05  1.007704  0.0  0.104675  0.000213  1.00207  0.0  0.121234  0.095082  -9.9e-05  1.012921  0.0
H  H18  1  0.15813906  0.51305505  0.22538674  1  0.087485  0.000361  0.951223  0.0  0.093963  0.00022  1.01507  0.0  0.097655  0.000103  1.011898  0.0  0.117722  0.091116  0.000304  1.017723  0.0
H  H19  1  0.84186860  0.48694935  0.77461193  1  0.087449  -0.000359  0.951323  0.0  0.093954  -0.00022  1.015147  0.0  0.097643  -0.000103  1.011976  0.0  0.11772  0.091104  -0.000303  1.017802  0.0
H  H20  1  0.18586225  0.49507230  0.38165976  1  0.110032  -0.000296  0.947477  0.0  0.118281  -0.000126  1.011047  0.0  0.121187  -0.000201  1.009223  0.0  0.1087  0.116443  -7.9e-05  1.01243  0.0
H  H21  1  0.81415173  0.50493713  0.61833993  1  0.110109  0.000297  0.947514  0.0  0.118335  0.000126  1.011096  0.0  0.121242  0.000201  1.009272  0.0  0.108735  0.116496  7.9e-05  1.01248  0.0
H  H22  1  0.86302534  0.15253190  0.15436569  1  0.090574  3.9e-05  0.967518  0.0  0.101028  -0.000182  1.033229  0.0  0.102394  -7.7e-05  1.033236  0.0  0.10357  0.100351  -0.000243  1.032877  0.0
H  H23  1  0.13696729  0.84746166  0.84561532  1  0.090417  -5.6e-05  0.967544  0.0  0.10096  0.000181  1.033207  0.0  0.102302  7.8e-05  1.033248  0.0  0.103573  0.100283  0.000242  1.032853  0.0
H  H24  1  0.73266308  0.94573885  0.19150575  1  0.08428  -2.4e-05  0.95309  0.0  0.097887  3.9e-05  1.00835  0.0  0.098812  -8e-06  1.009901  0.0  0.099267  0.098012  0.000105  1.006326  0.0
H  H25  1  0.26731146  0.05425601  0.80845026  1  0.084242  3.3e-05  0.952981  0.0  0.097759  -3.9e-05  1.008355  0.0  0.098677  7e-06  1.00991  0.0  0.099246  0.097888  -0.000105  1.006324  0.0
H  H26  1  0.91620862  0.72116302  0.14572554  1  0.086725  3.8e-05  0.997065  0.0  0.095132  3e-05  1.06507  0.0  0.095458  -1e-06  1.067692  0.0  0.098523  0.095299  5.3e-05  1.062667  0.0
H  H27  1  0.08378902  0.27883061  0.85425287  1  0.086728  -3.5e-05  0.996857  0.0  0.095074  -3e-05  1.06496  0.0  0.095399  1e-06  1.067577  0.0  0.09846  0.095244  -5.3e-05  1.062553  0.0
H  H28  1  0.34776063  0.90950327  0.02769667  1  0.126642  -0.000429  0.956945  0.0  0.130889  -0.000566  1.026123  0.0  0.136432  -0.000548  1.021551  0.0  0.111426  0.126893  -0.000543  1.029283  0.0
H  H29  1  0.65224777  0.09049307  0.97230388  1  0.126572  0.000422  0.957113  0.0  0.130938  0.000566  1.026152  0.0  0.136485  0.000549  1.021575  0.0  0.111406  0.126938  0.000543  1.029324  0.0
H  H30  1  0.26818894  0.08805716  0.59397335  1  0.075315  9e-06  0.914682  0.0  0.081644  -8e-06  0.98375  0.0  0.087034  1e-06  0.977853  0.0  0.115576  0.077387  -2.4e-05  0.988464  0.0
H  H31  1  0.73182852  0.91195343  0.40601884  1  0.075298  -8e-06  0.914456  0.0  0.081509  8e-06  0.983654  0.0  0.086896  -1e-06  0.977763  0.0  0.115547  0.07725  2.3e-05  0.98837  0.0
H  H32  1  0.28788554  0.04179541  0.34930796  1  0.108006  1.4e-05  0.944785  0.0  0.115377  -2.9e-05  1.006773  0.0  0.120394  1.5e-05  1.003426  0.0  0.106225  0.11151  -4.1e-05  1.00963  0.0
H  H33  1  0.71212969  0.95822416  0.65068638  1  0.108076  -1.7e-05  0.944911  0.0  0.115443  2.9e-05  1.006877  0.0  0.120463  -1.5e-05  1.003528  0.0  0.106196  0.111568  4e-05  1.009735  0.0
H  H34  1  0.03703273  0.12624407  0.28708165  1  0.072951  3.2e-05  0.944014  0.0  0.078864  2.3e-05  1.008058  0.0  0.083158  2.8e-05  1.005537  0.0  0.10539  0.075186  3.7e-05  1.010414  0.0
H  H35  1  0.96298000  0.87377545  0.71291431  1  0.072912  -2.9e-05  0.943983  0.0  0.078871  -2.3e-05  1.007986  0.0  0.083163  -2.8e-05  1.005469  0.0  0.105364  0.075184  -3.7e-05  1.010348  0.0
H  H36  1  0.73723673  0.28550996  0.53051105  1  0.070536  4e-06  0.949533  0.0  0.071989  4e-06  1.026049  0.0  0.074917  -2e-06  1.023017  0.0  0.106725  0.069949  5e-06  1.028215  0.0
H  H37  1  0.26277042  0.71449142  0.46948772  1  0.070571  7e-06  0.949504  0.0  0.07201  -4e-06  1.026033  0.0  0.074941  1e-06  1.023  0.0  0.106713  0.069971  -5e-06  1.028203  0.0
H  H38  1  0.97567858  0.20809114  0.60276985  1  0.104099  1e-06  0.934644  0.0  0.117813  9e-06  0.9861  0.0  0.121806  7e-06  0.984905  0.0  0.107425  0.114673  7e-06  0.987346  0.0
H  H39  1  0.02432577  0.79190623  0.39722741  1  0.104126  -3e-06  0.934515  0.0  0.117835  -1e-05  0.985982  0.0  0.12183  -8e-06  0.984786  0.0  0.107455  0.114693  -7e-06  0.987231  0.0
C  C40  1  0.43288301  0.30983943  0.84386328  1  0.124586  -0.006835  3.692025  -0.007  0.093282  -0.008632  3.950853  -0.007  0.101616  -0.008237  3.961425  -0.007  0.045758  0.086287  -0.008687  3.945996  -0.007
C  C41  1  0.56709774  0.69016166  0.15614292  1  0.124731  0.006774  3.691882  0.007  0.093322  0.008631  3.950753  0.007  0.101666  0.008238  3.961336  0.007  0.045723  0.08629  0.008687  3.945898  0.007
C  C42  1  0.42553066  0.31859012  0.75662817  1  -0.153709  0.003683  3.702629  0.003  -0.172457  -0.000463  3.94704  0.0  -0.178103  0.00336  3.967701  0.003  -0.081384  -0.169663  -0.003165  3.934483  -0.002
C  C43  1  0.57445796  0.68141492  0.24338523  1  -0.153713  -0.003621  3.701962  -0.003  -0.172398  0.000456  3.94644  0.0  -0.178029  -0.003363  3.967087  -0.003  -0.081376  -0.169601  0.003157  3.933881  0.002
C  C44  1  0.30626793  0.42204459  0.73279408  1  0.079928  -0.005976  3.815294  -0.005  0.100223  -0.012252  4.047642  -0.009  0.098143  -0.007792  4.069384  -0.006  0.003149  0.102379  -0.015014  4.033582  -0.01
C  C45  1  0.69373396  0.57795767  0.26720986  1  0.079953  0.005928  3.815506  0.005  0.100155  0.012241  4.047905  0.009  0.098072  0.007787  4.069661  0.006  0.003151  0.102318  0.015002  4.033826  0.01
C  C46  1  0.19772880  0.50913866  0.80076545  1  -0.138774  0.003063  3.674608  0.003  -0.164968  -0.001576  3.931529  0.0  -0.167549  0.002545  3.945532  0.003  -0.077656  -0.164726  -0.003937  3.924782  -0.002
C  C47  1  0.80226736  0.49086648  0.19924437  1  -0.138843  -0.003002  3.674889  -0.003  -0.164984  0.001568  3.931836  0.0  -0.167568  -0.002544  3.945841  -0.003  -0.077724  -0.164738  0.003928  3.925086  0.002
C  C48  1  0.21274508  0.49318797  0.88654972  1  0.155248  -0.008415  3.646179  -0.007  0.116637  -0.013158  3.917148  -0.01  0.129528  -0.010632  3.918745  -0.008  0.053173  0.105963  -0.014126  3.919839  -0.01
C  C49  1  0.78724473  0.50681218  0.11345589  1  0.155475  0.008384  3.64593  0.007  0.116828  0.013156  3.91692  0.01  0.129731  0.010631  3.918522  0.008  0.053185  0.106139  0.014127  3.919594  0.01
C  C50  1  0.28848253  0.44158506  0.64385759  1  0.087094  -0.001704  3.656572  -0.001  0.040282  -0.015504  3.932439  -0.01  0.061877  -0.002416  3.927395  -0.001  0.05758  0.022821  -0.021134  3.939319  -0.014
C  C51  1  0.71151842  0.55843122  0.35614766  1  0.087075  0.00169  3.656657  0.001  0.040371  0.01547  3.932461  0.01  0.06195  0.002409  3.927438  0.001  0.057652  0.022899  0.021105  3.939349  0.014
C  C52  1  0.44795714  0.32894098  0.43238057  1  0.090095  -0.001048  3.650973  0.0  0.042668  -0.013985  3.930902  -0.009  0.061619  -0.001425  3.929377  0.0  0.059318  0.027411  -0.020677  3.934198  -0.014
C  C53  1  0.55204602  0.67106130  0.56762320  1  0.090044  0.001026  3.651279  0.0  0.042685  0.013956  3.931111  0.009  0.061622  0.001422  3.929604  0.0  0.059318  0.027435  0.020653  3.934401  0.014
C  C54  1  0.41697097  0.34317766  0.34582332  1  0.091661  -0.006737  3.800755  -0.006  0.109557  -0.014471  4.035305  -0.011  0.109702  -0.008924  4.055345  -0.007  0.006444  0.110392  -0.015739  4.022258  -0.011
C  C55  1  0.58302915  0.65682158  0.65418089  1  0.091615  0.006705  3.800935  0.006  0.10951  0.014456  4.035442  0.011  0.109653  0.008914  4.055489  0.007  0.006379  0.110329  0.015726  4.022404  0.011
C  C56  1  0.52937573  0.26348226  0.27474902  1  -0.154673  0.003415  3.701335  0.003  -0.177737  -0.00085  3.956476  0.001  -0.182371  0.003165  3.971767  0.003  -0.081609  -0.175794  -0.003638  3.947983  -0.001
C  C57  1  0.47061778  0.73650293  0.72525299  1  -0.154536  -0.003362  3.701494  -0.003  -0.177567  0.000841  3.956565  -0.001  -0.182212  -0.003163  3.971882  -0.003  -0.081586  -0.175608  0.003628  3.948054  0.001
C  C58  1  0.50352060  0.27895228  0.19094395  1  0.132375  -0.007645  3.677899  -0.007  0.096973  -0.012513  3.940428  -0.01  0.108618  -0.009846  3.94466  -0.008  0.046019  0.087907  -0.012599  3.940346  -0.009
C  C59  1  0.49646867  0.72103482  0.80906246  1  0.132383  0.007602  3.677662  0.007  0.096983  0.01251  3.940238  0.01  0.108606  0.00984  3.94446  0.008  0.045988  0.087917  0.012597  3.940179  0.009
C  C60  1  0.26117515  0.44267618  0.24258733  1  0.118104  -0.006803  3.700227  -0.006  0.086427  -0.009742  3.959886  -0.008  0.094079  -0.008502  3.970278  -0.007  0.042287  0.080402  -0.009421  3.95473  -0.007
C  C61  1  0.73883079  0.55732508  0.75741798  1  0.118081  0.006777  3.700337  0.006  0.086373  0.009736  3.959981  0.008  0.094023  0.008495  3.970379  0.007  0.042329  0.080364  0.009415  3.954802  0.007
C  C62  1  0.27730781  0.43277711  0.32826130  1  -0.143695  0.003851  3.696258  0.003  -0.165273  -9.5e-05  3.943246  0.001  -0.170254  0.003772  3.962886  0.003  -0.080854  -0.162983  -0.003086  3.931102  -0.001
C  C63  1  0.72270661  0.56722034  0.67173522  1  -0.143704  -0.003834  3.695829  -0.003  -0.165264  8.7e-05  3.942806  -0.001  -0.170248  -0.003771  3.962447  -0.003  -0.080838  -0.162961  0.00308  3.930645  0.001
C  C64  1  0.18633476  0.16656872  0.07155906  1  0.613875  -0.006253  3.933877  -0.004  0.570122  -0.010745  4.214056  -0.007  0.602403  -0.009395  4.215498  -0.006  0.201477  0.547976  -0.011929  4.209592  -0.008
C  C65  1  0.81366396  0.83343129  0.92845874  1  0.613428  0.006262  3.934038  0.004  0.569772  0.010748  4.214132  0.007  0.60205  0.009399  4.215576  0.006  0.201317  0.547631  0.011932  4.209655  0.008
C  C66  1  0.11213666  0.04247646  0.09053751  1  -0.064075  0.002349  3.776396  0.002  -0.037946  0.002546  4.003767  0.003  -0.046544  0.002073  4.028779  0.002  -0.0179  -0.032808  0.002508  3.987031  0.003
C  C67  1  0.88787272  0.95751592  0.90945974  1  -0.063764  -0.002417  3.776351  -0.002  -0.037727  -0.002545  4.003814  -0.003  -0.046322  -0.002073  4.028819  -0.002  -0.017825  -0.032583  -0.002508  3.987068  -0.003
C  C68  1  0.93876868  0.05275563  0.13596545  1  -0.065708  -0.002227  3.736926  -0.002  -0.089743  -0.0025  3.980847  -0.002  -0.090719  -0.002459  4.006781  -0.002  -0.07874  -0.087318  -0.001115  3.961176  -0.001
C  C69  1  0.06122373  0.94723885  0.86402005  1  -0.065608  0.002334  3.736917  0.002  -0.089729  0.002502  3.980874  0.002  -0.09068  0.002458  4.006804  0.002  -0.07871  -0.087307  0.001116  3.961201  0.001
C  C70  1  0.86761039  0.93780572  0.15637213  1  -0.090667  0.000856  3.792245  0.001  -0.097872  0.000447  4.036821  0.0  -0.105759  0.000555  4.066521  0.001  -0.094011  -0.09199  0.000269  4.013836  0.0
C  C71  1  0.13237939  0.06218897  0.84359968  1  -0.090567  -0.000931  3.791966  -0.001  -0.097662  -0.000448  4.036539  0.0  -0.105535  -0.000554  4.066221  -0.001  -0.094016  -0.091784  -0.00027  4.013557  0.0
C  C72  1  0.96923978  0.81214447  0.13077524  1  -0.053396  -0.001749  3.723254  -0.001  -0.077609  -0.001778  3.963704  -0.001  -0.077214  -0.001889  3.98946  -0.001  -0.079934  -0.076076  -0.000262  3.943878  0.0
C  C73  1  0.03075563  0.18784808  0.86920732  1  -0.053447  0.001784  3.723277  0.001  -0.077643  0.00178  3.963731  0.001  -0.077247  0.001889  3.98949  0.001  -0.079935  -0.076112  0.000263  3.9439  0.0
C  C74  1  0.14192535  0.80112551  0.08378499  1  -0.08168  0.000497  3.771068  0.0  -0.056889  0.000869  4.003318  0.0  -0.066514  0.000722  4.02925  0.0  -0.02136  -0.05083  0.000868  3.985968  0.001
C  C75  1  0.85808124  0.19886790  0.91621008  1  -0.081856  -0.000543  3.771364  0.0  -0.057032  -0.000869  4.003592  0.0  -0.066659  -0.000722  4.029526  0.0  -0.021374  -0.050961  -0.000868  3.986229  -0.001
C  C76  1  0.21351040  0.91669806  0.06393165  1  -0.073406  -0.000735  3.677506  -0.001  -0.105944  -0.000981  3.919138  -0.001  -0.104471  -0.00105  3.93787  -0.001  -0.073821  -0.106734  -0.002007  3.907134  -0.002
C  C77  1  0.78649195  0.08329724  0.93606845  1  -0.073418  0.000809  3.677466  0.001  -0.106025  0.000983  3.919043  0.001  -0.104549  0.00105  3.93777  0.001  -0.073808  -0.106815  0.002008  3.907029  0.002
C  C78  1  0.24936271  0.66703081  0.05262261  1  0.652856  0.00333  3.896738  0.005  0.602899  0.003687  4.184379  0.005  0.634667  0.002503  4.184512  0.004  0.227185  0.580359  0.004934  4.181382  0.006
C  C79  1  0.75063687  0.33295538  0.94738177  1  0.653197  -0.003327  3.896843  -0.005  0.603293  -0.003683  4.1844  -0.005  0.635058  -0.002503  4.184534  -0.004  0.227208  0.580745  -0.004931  4.181409  -0.006
C  C80  1  0.29142509  0.07217770  0.52227474  1  0.104209  -0.000213  3.658122  0.0  0.06717  -0.000634  3.9265  0.0  0.073646  -0.000186  3.938271  0.0  0.080344  0.063087  -0.000783  3.918181  0.0
C  C81  1  0.70855745  0.92784150  0.47772853  1  0.104136  0.000208  3.659027  0.0  0.0672  0.000632  3.927404  0.0  0.073671  0.000185  3.939169  0.0  0.080378  0.063122  0.00078  3.919075  0.0
C  C82  1  0.15126293  0.11777490  0.48145078  1  0.080627  1.4e-05  3.807022  0.0  0.098278  -5.4e-05  4.035021  0.0  0.098452  -5e-06  4.061638  0.0  0.004377  0.098618  -9.1e-05  4.016249  0.0
C  C83  1  0.84874623  0.88223358  0.51854383  1  0.080739  -3.4e-05  3.80652  0.0  0.098333  5.5e-05  4.034551  0.0  0.098512  6e-06  4.061162  0.0  0.004368  0.098669  9.1e-05  4.015779  0.0
C  C84  1  0.16740729  0.09533011  0.39113874  1  -0.143048  -2e-05  3.707921  0.0  -0.161727  -0.000214  3.950418  0.0  -0.168098  -5.1e-05  3.971103  0.0  -0.079839  -0.157689  -0.000269  3.936988  0.0
C  C85  1  0.83260770  0.90468538  0.60885885  1  -0.143331  6.9e-05  3.708165  0.0  -0.161981  0.000212  3.950703  0.0  -0.168357  5.1e-05  3.971385  0.0  -0.079861  -0.157931  0.000268  3.937257  0.0
C  C86  1  0.02786039  0.14262575  0.35707522  1  0.10825  3e-06  3.753887  0.0  0.0861  -8e-06  4.01331  0.0  0.092119  2.1e-05  4.028199  0.0  0.035508  0.081873  -3.1e-05  4.004138  0.0
C  C87  1  0.97214577  0.85738973  0.64291975  1  0.108335  -4.6e-05  3.753934  0.0  0.086148  8e-06  4.013342  0.0  0.092164  -2.1e-05  4.028242  0.0  0.035532  0.081923  3.1e-05  4.004159  0.0
C  C88  1  0.86160377  0.23143125  0.49208427  1  0.115022  -2.3e-05  3.746418  0.0  0.092113  -3.8e-05  4.005937  0.0  0.095998  0.0  4.026713  0.0  0.040966  0.090068  -6e-05  3.990775  0.0
C  C89  1  0.13839734  0.76857412  0.50791338  1  0.114858  -4.1e-05  3.74678  0.0  0.09197  3.9e-05  4.006261  0.0  0.095853  -1e-06  4.027041  0.0  0.040925  0.089924  5.9e-05  3.991098  0.0
C  C90  1  0.99403510  0.18798695  0.53243445  1  -0.15178  -7e-06  3.708674  0.0  -0.169198  6e-06  3.946444  0.0  -0.176693  -1.2e-05  3.970091  0.0  -0.080297  -0.16396  1.2e-05  3.929952  0.0
C  C91  1  0.00597912  0.81201645  0.46756589  1  -0.151757  3.7e-05  3.708875  0.0  -0.169144  -6e-06  3.946634  0.0  -0.176638  1.2e-05  3.970279  0.0  -0.080297  -0.163904  -1.2e-05  3.930145  0.0
N  N92  1  0.33090266  0.39739203  0.90843561  1  -0.315019  -0.026397  3.226013  -0.009  -0.256675  -0.026146  3.519228  -0.004  -0.26376  -0.025449  3.516987  -0.004  -0.329715  -0.250687  -0.025862  3.522656  -0.005
N  N93  1  0.66907712  0.60260796  0.09157584  1  -0.315309  0.026438  3.226397  0.009  -0.256839  0.026148  3.519556  0.004  -0.263969  0.025451  3.517364  0.004  -0.329626  -0.250798  0.025863  3.522936  0.005
N  N94  1  0.38139619  0.36142136  0.57844203  1  -0.199687  -0.002333  3.059953  -0.002  -0.170483  -0.006165  3.36038  -0.005  -0.17883  -0.003367  3.370063  -0.003  -0.21046  -0.165456  -0.009441  3.355427  -0.008
N  N95  1  0.61860797  0.63858699  0.42155838  1  -0.199681  0.002317  3.060208  0.002  -0.170491  0.006154  3.360606  0.005  -0.178842  0.003365  3.370298  0.003  -0.210501  -0.165458  0.009426  3.355654  0.008
N  N96  1  0.33815427  0.39277319  0.50081569  1  -0.207199  -0.003076  3.053674  -0.003  -0.180156  -0.007649  3.352415  -0.007  -0.189292  -0.004505  3.364593  -0.004  -0.216676  -0.173538  -0.00874  3.344675  -0.008
N  N97  1  0.66185015  0.60723919  0.49918401  1  -0.207307  0.003077  3.053804  0.003  -0.180285  0.007641  3.352541  0.007  -0.189424  0.004502  3.364729  0.004  -0.216774  -0.173666  0.008735  3.344795  0.008
N  N98  1  0.37432810  0.36970450  0.17374669  1  -0.300133  -0.025896  3.214871  -0.01  -0.240646  -0.026459  3.498986  -0.006  -0.245766  -0.025096  3.498069  -0.005  -0.328566  -0.236231  -0.025933  3.500912  -0.007
N  N99  1  0.62567649  0.63028684  0.82625186  1  -0.300131  0.02592  3.215084  0.01  -0.240596  0.026457  3.499205  0.006  -0.245725  0.025102  3.498302  0.005  -0.328602  -0.236183  0.025937  3.501134  0.007
N  N100  1  0.87630836  0.20944064  0.40590027  1  -0.321968  3e-06  3.077543  0.0  -0.283219  2.8e-05  3.347359  0.0  -0.29627  -1.6e-05  3.364197  0.0  -0.321834  -0.273968  0.000101  3.335474  0.0
N  N101  1  0.12370006  0.79057081  0.59409634  1  -0.321991  3.8e-05  3.077526  0.0  -0.283244  -2.9e-05  3.34735  0.0  -0.2963  1.7e-05  3.364195  0.0  -0.321873  -0.273991  -0.000102  3.335459  0.0
N  N102  1  0.44152547  0.01699932  0.47490372  1  -0.209865  0.000136  3.045191  0.0  -0.181373  1e-06  3.341518  0.0  -0.190891  9e-05  3.357775  0.0  -0.210683  -0.174565  -8.2e-05  3.329898  0.0
N  N103  1  0.55851053  0.98299243  0.52508160  1  -0.209739  -0.000141  3.046489  0.0  -0.181218  -1e-06  3.342777  0.0  -0.190732  -8.8e-05  3.35904  0.0  -0.210667  -0.174412  8.2e-05  3.331153  0.0
O  O104  1  0.09000404  0.28059465  0.09275107  1  -0.635349  -0.02755  1.971873  -0.02  -0.575332  -0.037591  2.216226  -0.029  -0.608344  -0.031342  2.210878  -0.022  -0.306071  -0.547746  -0.044769  2.218105  -0.037
O  O105  1  0.90999888  0.71939391  0.90729305  1  -0.635283  0.027556  1.971891  0.02  -0.5752  0.037588  2.216098  0.029  -0.608215  0.031343  2.210747  0.022  -0.305958  -0.547614  0.044773  2.217971  0.037
O  O106  1  0.34748792  0.15818594  0.03551466  1  -0.630023  -0.032498  1.976089  -0.024  -0.564925  -0.029005  2.219404  -0.018  -0.602618  -0.032065  2.215947  -0.021  -0.310537  -0.533752  -0.030447  2.217972  -0.02
O  O107  1  0.65251040  0.84181540  0.96448276  1  -0.629784  0.032481  1.976182  0.024  -0.564791  0.029016  2.21952  0.018  -0.602468  0.032065  2.216056  0.021  -0.310513  -0.533627  0.030461  2.218089  0.02
O  O108  1  0.39561718  0.66287553  0.99940591  1  -0.650097  0.029979  2.151079  0.016  -0.594232  0.03782  2.44674  0.021  -0.621174  0.032913  2.43181  0.015  -0.302563  -0.570788  0.043548  2.454531  0.028
O  O109  1  0.60438413  0.33709861  0.00059959  1  -0.650186  -0.029981  2.150828  -0.016  -0.594488  -0.037832  2.446648  -0.021  -0.62143  -0.03292  2.431737  -0.015  -0.302602  -0.571034  -0.043555  2.454436  -0.028
O  O110  1  0.18618356  0.56249617  0.07945069  1  -0.64057  -0.033511  2.081433  -0.019  -0.568999  -0.032799  2.346115  -0.014  -0.604917  -0.034419  2.339819  -0.016  -0.300747  -0.536909  -0.029668  2.347275  -0.012
O  O111  1  0.81380350  0.43749483  0.92056111  1  -0.64066  0.033498  2.08163  0.019  -0.569105  0.032804  2.346276  0.014  -0.605017  0.034418  2.339975  0.016  -0.3007  -0.537026  0.029679  2.347465  0.012
