# generated using pymatgen
data_BiH13C6S2NCl
_symmetry_space_group_name_H-M   'P 1'
_cell_length_a   7.92343284
_cell_length_b   9.91007812
_cell_length_c   14.45154497
_cell_angle_alpha   104.45857072
_cell_angle_beta   89.99988207
_cell_angle_gamma   90.00009245
_symmetry_Int_Tables_number   1
_chemical_formula_structural   BiH13C6S2NCl
_chemical_formula_sum   'Bi4 H52 C24 S8 N4 Cl4'
_cell_volume   1098.82219066
_cell_formula_units_Z   4
loop_
 _symmetry_equiv_pos_site_id
 _symmetry_equiv_pos_as_xyz
  1  'x, y, z'
loop_
 _atom_site_type_symbol
 _atom_site_label
 _atom_site_symmetry_multiplicity
 _atom_site_fract_x
 _atom_site_fract_y
 _atom_site_fract_z
 _atom_site_occupancy
 _atom_site_hle17_bader_spin_density
 _atom_site_hle17_ddec_charge
 _atom_site_hle17_ddec_spin_density
 _atom_site_hle17_ddec_sum_bond_order
 _atom_site_hle17_magmom
 _atom_site_hse06_10hf_bader_spin_density
 _atom_site_hse06_10hf_ddec_charge
 _atom_site_hse06_10hf_ddec_spin_density
 _atom_site_hse06_10hf_ddec_sum_bond_order
 _atom_site_hse06_10hf_magmom
 _atom_site_hse06_bader_spin_density
 _atom_site_hse06_ddec_charge
 _atom_site_hse06_ddec_spin_density
 _atom_site_hse06_ddec_sum_bond_order
 _atom_site_hse06_magmom
 _atom_site_pbe_bader_spin_density
 _atom_site_pbe_cm5_charge
 _atom_site_pbe_ddec_charge
 _atom_site_pbe_ddec_spin_density
 _atom_site_pbe_ddec_sum_bond_order
 _atom_site_pbe_magmom
Bi  Bi0  1  0.94421788  0.93355242  0.70508704  1  0  0.947437  0  2.478934  0  0  0.80636  0  2.958755  0  0  0.840584  0  2.942624  0  0  0.462611  0.78263  0  2.968985  0
Bi  Bi1  1  0.44423027  0.06645852  0.79491409  1  0  0.94741  0  2.478981  0  0  0.80633  0  2.958806  0  0  0.840555  0  2.94267  0  0  0.46258  0.782613  0  2.969027  0
Bi  Bi2  1  0.05578341  0.06644209  0.29491157  1  0  0.94738  0  2.479087  0  0  0.8063  0  2.958915  0  0  0.840521  0  2.942785  0  0  0.462584  0.782576  0  2.969145  0
Bi  Bi3  1  0.55578365  0.93355683  0.20508815  1  0  0.947426  0  2.479015  0  0  0.80635  0  2.958831  0  0  0.84057  0  2.942704  0  0  0.462607  0.782624  0  2.969059  0
H  H4  1  0.18039395  0.98080236  0.57084742  1  0  0.150695  0  0.995279  0  0  0.166305  0  1.054898  0  0  0.169371  0  1.055347  0  0  0.076669  0.164174  0  1.054565  0
H  H5  1  0.68039780  0.01919894  0.92915579  1  0  0.150741  0  0.99521  0  0  0.166325  0  1.054855  0  0  0.169383  0  1.055312  0  0  0.076704  0.164195  0  1.054517  0
H  H6  1  0.81960734  0.01919841  0.42915160  1  0  0.150717  0  0.99526  0  0  0.166327  0  1.054877  0  0  0.169394  0  1.055325  0  0  0.07668  0.1642  0  1.054542  0
H  H7  1  0.31960728  0.98080180  0.07084875  1  0  0.150712  0  0.995272  0  0  0.166322  0  1.05489  0  0  0.169387  0  1.055339  0  0  0.076682  0.164191  0  1.054557  0
H  H8  1  0.15843147  0.13442376  0.66785765  1  0  0.124247  0  1.027037  0  0  0.142914  0  1.08949  0  0  0.144971  0  1.091058  0  0  0.073208  0.14146  0  1.088305  0
H  H9  1  0.65843235  0.86557753  0.83214282  1  0  0.12422  0  1.027071  0  0  0.142885  0  1.089523  0  0  0.144943  0  1.09109  0  0  0.073195  0.141436  0  1.088333  0
H  H10  1  0.84156856  0.86557388  0.33214082  1  0  0.124223  0  1.027031  0  0  0.142889  0  1.089495  0  0  0.144946  0  1.091063  0  0  0.073195  0.141437  0  1.088314  0
H  H11  1  0.34156894  0.13442531  0.16785932  1  0  0.124224  0  1.027028  0  0  0.14289  0  1.089489  0  0  0.144949  0  1.091054  0  0  0.073189  0.141437  0  1.088299  0
H  H12  1  0.00249415  0.09670925  0.57533804  1  0  0.155189  0  0.990177  0  0  0.171602  0  1.048204  0  0  0.174327  0  1.049117  0  0  0.079544  0.16961  0  1.047785  0
H  H13  1  0.50249349  0.90329503  0.92466174  1  0  0.155186  0  0.990206  0  0  0.171597  0  1.048233  0  0  0.174323  0  1.049144  0  0  0.079551  0.169605  0  1.047822  0
H  H14  1  0.99750462  0.90328838  0.42466250  1  0  0.155205  0  0.990182  0  0  0.171617  0  1.048204  0  0  0.174342  0  1.049115  0  0  0.079549  0.169625  0  1.047791  0
H  H15  1  0.49750528  0.09671199  0.07533836  1  0  0.15519  0  0.990199  0  0  0.171599  0  1.048227  0  0  0.174324  0  1.049139  0  0  0.079532  0.169604  0  1.047815  0
H  H16  1  0.51470880  0.70388915  0.33545973  1  0  0.047432  0  0.963286  0  0  0.062871  0  1.036238  0  0  0.063233  0  1.03608  0  0  0.097463  0.062704  0  1.03611  0
H  H17  1  0.01471078  0.29611286  0.16454058  1  0  0.04742  0  0.963274  0  0  0.062859  0  1.036235  0  0  0.06322  0  1.036078  0  0  0.09745  0.062685  0  1.036109  0
H  H18  1  0.48529249  0.29610745  0.66453856  1  0  0.047407  0  0.963267  0  0  0.062874  0  1.036191  0  0  0.063236  0  1.036034  0  0  0.097469  0.062702  0  1.036061  0
H  H19  1  0.98529303  0.70388894  0.83546069  1  0  0.047407  0  0.963318  0  0  0.062858  0  1.036257  0  0  0.063219  0  1.036101  0  0  0.097463  0.062675  0  1.036145  0
H  H20  1  0.51481857  0.85089521  0.43476224  1  0  0.063457  0  0.972874  0  0  0.076908  0  1.044888  0  0  0.077535  0  1.044938  0  0  0.090677  0.076477  0  1.044749  0
H  H21  1  0.01481684  0.14910367  0.06523822  1  0  0.063496  0  0.972843  0  0  0.076939  0  1.044869  0  0  0.077567  0  1.044918  0  0  0.090672  0.076508  0  1.044725  0
H  H22  1  0.48518147  0.14910139  0.56523536  1  0  0.063513  0  0.972773  0  0  0.076941  0  1.044832  0  0  0.077571  0  1.044875  0  0  0.090665  0.076506  0  1.04469  0
H  H23  1  0.98518319  0.85089500  0.93476389  1  0  0.063495  0  0.972832  0  0  0.076936  0  1.044851  0  0  0.077564  0  1.044898  0  0  0.090677  0.076506  0  1.044704  0
H  H24  1  0.34483388  0.56911055  0.43128312  1  0  0.099126  0  0.954088  0  0  0.119383  0  1.018209  0  0  0.120682  0  1.01846  0  0  0.083513  0.118567  0  1.017737  0
H  H25  1  0.84483614  0.43088969  0.06871720  1  0  0.099148  0  0.954062  0  0  0.119384  0  1.018208  0  0  0.120683  0  1.018458  0  0  0.083509  0.118564  0  1.017739  0
H  H26  1  0.65516615  0.43088604  0.56871724  1  0  0.09914  0  0.954086  0  0  0.119382  0  1.018216  0  0  0.120681  0  1.018466  0  0  0.083507  0.118565  0  1.017741  0
H  H27  1  0.15516515  0.56911107  0.93128389  1  0  0.099109  0  0.954157  0  0  0.119368  0  1.01827  0  0  0.120667  0  1.01852  0  0  0.083503  0.118552  0  1.017797  0
H  H28  1  0.24057117  0.72285607  0.42075849  1  0  0.107884  0  0.961308  0  0  0.127979  0  1.026892  0  0  0.129304  0  1.026953  0  0  0.084386  0.126936  0  1.027013  0
H  H29  1  0.74057181  0.27714511  0.07924211  1  0  0.107887  0  0.961322  0  0  0.127984  0  1.026903  0  0  0.129308  0  1.026965  0  0  0.084382  0.126942  0  1.027022  0
H  H30  1  0.75942760  0.27714052  0.57924118  1  0  0.107884  0  0.961361  0  0  0.127984  0  1.026927  0  0  0.129309  0  1.026987  0  0  0.084397  0.126941  0  1.027043  0
H  H31  1  0.25942695  0.72285565  0.92075967  1  0  0.107904  0  0.961331  0  0  0.128004  0  1.0269  0  0  0.129329  0  1.026961  0  0  0.084396  0.126963  0  1.02702  0
H  H32  1  0.34403874  0.71990973  0.52972721  1  0  0.105852  0  0.977762  0  0  0.120404  0  1.051892  0  0  0.122135  0  1.051846  0  0  0.075937  0.118993  0  1.052205  0
H  H33  1  0.84403918  0.28009277  0.97027326  1  0  0.10588  0  0.977721  0  0  0.120433  0  1.051845  0  0  0.122163  0  1.051798  0  0  0.075947  0.119021  0  1.052164  0
H  H34  1  0.65596508  0.28008999  0.47027162  1  0  0.105878  0  0.977727  0  0  0.120406  0  1.05188  0  0  0.122136  0  1.051834  0  0  0.075936  0.118994  0  1.052198  0
H  H35  1  0.15596211  0.71990694  0.02972765  1  0  0.105907  0  0.977691  0  0  0.120427  0  1.051851  0  0  0.122157  0  1.051804  0  0  0.075946  0.119016  0  1.052163  0
H  H36  1  0.61893860  0.48505158  0.36306510  1  0  0.073427  0  0.920629  0  0  0.093322  0  0.977248  0  0  0.093711  0  0.97758  0  0  0.106515  0.09291  0  0.977176  0
H  H37  1  0.11893608  0.51494637  0.13693369  1  0  0.073446  0  0.920586  0  0  0.093337  0  0.977209  0  0  0.093726  0  0.97754  0  0  0.106518  0.092923  0  0.977143  0
H  H38  1  0.38106395  0.51494396  0.63693577  1  0  0.073445  0  0.920596  0  0  0.093328  0  0.977211  0  0  0.093719  0  0.977543  0  0  0.106492  0.092912  0  0.977142  0
H  H39  1  0.88106268  0.48505337  0.86306375  1  0  0.073418  0  0.920565  0  0  0.093315  0  0.977187  0  0  0.093706  0  0.977518  0  0  0.106505  0.092905  0  0.977117  0
H  H40  1  0.79962531  0.49824537  0.43643041  1  0  0.069984  0  0.967902  0  0  0.08542  0  1.035879  0  0  0.086184  0  1.035648  0  0  0.095564  0.084858  0  1.03599  0
H  H41  1  0.29962178  0.50175482  0.06356996  1  0  0.069983  0  0.967926  0  0  0.085419  0  1.035905  0  0  0.086181  0  1.035673  0  0  0.095575  0.084857  0  1.036008  0
H  H42  1  0.20037850  0.50175330  0.56357170  1  0  0.070021  0  0.96792  0  0  0.085433  0  1.035907  0  0  0.086198  0  1.035678  0  0  0.095591  0.084873  0  1.036003  0
H  H43  1  0.70037573  0.49824490  0.93642888  1  0  0.070039  0  0.967905  0  0  0.085475  0  1.035859  0  0  0.086239  0  1.035627  0  0  0.095583  0.084915  0  1.035964  0
H  H44  1  0.77262737  0.61899277  0.25926154  1  0  0.089578  0  0.965642  0  0  0.107959  0  1.035523  0  0  0.109187  0  1.035531  0  0  0.080984  0.107115  0  1.035359  0
H  H45  1  0.27262798  0.38100636  0.24073798  1  0  0.08958  0  0.965644  0  0  0.107967  0  1.035519  0  0  0.109198  0  1.035525  0  0  0.080979  0.10712  0  1.035355  0
H  H46  1  0.22737014  0.38100069  0.74073828  1  0  0.089582  0  0.96566  0  0  0.107964  0  1.03554  0  0  0.109194  0  1.035546  0  0  0.080959  0.107117  0  1.035376  0
H  H47  1  0.72737079  0.61899858  0.75926245  1  0  0.089595  0  0.965654  0  0  0.107978  0  1.035529  0  0  0.109208  0  1.035535  0  0  0.080969  0.107133  0  1.035361  0
H  H48  1  0.87599528  0.46287598  0.26558170  1  0  0.105947  0  0.971186  0  0  0.12893  0  1.032188  0  0  0.129892  0  1.03299  0  0  0.084934  0.128041  0  1.031878  0
H  H49  1  0.37599622  0.53712429  0.23441790  1  0  0.105969  0  0.971161  0  0  0.128951  0  1.032169  0  0  0.129913  0  1.032971  0  0  0.084944  0.128059  0  1.031864  0
H  H50  1  0.12400349  0.53711957  0.73441917  1  0  0.105985  0  0.971132  0  0  0.128954  0  1.032154  0  0  0.129914  0  1.032959  0  0  0.084942  0.128062  0  1.031848  0
H  H51  1  0.62400002  0.46287961  0.76558096  1  0  0.105973  0  0.971124  0  0  0.128944  0  1.032146  0  0  0.129906  0  1.032948  0  0  0.08493  0.128054  0  1.03183  0
H  H52  1  0.95503176  0.62628015  0.33311215  1  0  0.109225  0  0.953722  0  0  0.129526  0  1.015943  0  0  0.130716  0  1.016536  0  0  0.0863  0.128467  0  1.015831  0
H  H53  1  0.45503011  0.37371915  0.16688650  1  0  0.109218  0  0.95374  0  0  0.129528  0  1.015952  0  0  0.130719  0  1.016544  0  0  0.086301  0.128467  0  1.015837  0
H  H54  1  0.04496953  0.37371541  0.66688596  1  0  0.109223  0  0.953711  0  0  0.129534  0  1.015915  0  0  0.130728  0  1.0165  0  0  0.086307  0.128473  0  1.015799  0
H  H55  1  0.54496866  0.62628474  0.83311444  1  0  0.109231  0  0.953734  0  0  0.129538  0  1.015938  0  0  0.130733  0  1.016523  0  0  0.086312  0.128478  0  1.015822  0
C  C56  1  0.09155264  0.05138063  0.61687227  1  0  -0.634678  0  3.514817  0  0  -0.662715  0  3.727331  0  0  -0.673691  0  3.736951  0  0  -0.344673  -0.655083  0  3.721026  0
C  C57  1  0.59155476  0.94862267  0.88313001  1  0  -0.634714  0  3.514796  0  0  -0.66272  0  3.727329  0  0  -0.673688  0  3.736957  0  0  -0.344708  -0.655094  0  3.721028  0
C  C58  1  0.90844739  0.94861700  0.38312758  1  0  -0.634697  0  3.514871  0  0  -0.662741  0  3.727406  0  0  -0.673716  0  3.737023  0  0  -0.344677  -0.655113  0  3.721112  0
C  C59  1  0.40844779  0.05138329  0.11687268  1  0  -0.634688  0  3.514881  0  0  -0.662729  0  3.727411  0  0  -0.673706  0  3.737026  0  0  -0.344668  -0.655095  0  3.721105  0
C  C60  1  0.74447759  0.75431436  0.52735430  1  0  0.239076  0  3.762158  0  0  0.20816  0  4.062855  0  0  0.232139  0  4.072072  0  0  0.135433  0.192242  0  4.055814  0
C  C61  1  0.24448209  0.24568597  0.97264590  1  0  0.239015  0  3.762239  0  0  0.208124  0  4.062885  0  0  0.232104  0  4.072102  0  0  0.135417  0.192214  0  4.055836  0
C  C62  1  0.25551866  0.24568328  0.47264486  1  0  0.239061  0  3.762285  0  0  0.208126  0  4.062989  0  0  0.232108  0  4.072209  0  0  0.135394  0.192212  0  4.055935  0
C  C63  1  0.75551920  0.75431583  0.02735468  1  0  0.239005  0  3.762268  0  0  0.208094  0  4.062956  0  0  0.232072  0  4.072175  0  0  0.135385  0.192183  0  4.055906  0
C  C64  1  0.51074323  0.73649631  0.41393734  1  0  0.041191  0  3.66244  0  0  -0.018609  0  3.922086  0  0  -0.014295  0  3.935047  0  0  -0.067742  -0.02137  0  3.913187  0
C  C65  1  0.01074292  0.26350362  0.08606192  1  0  0.041175  0  3.662337  0  0  -0.018643  0  3.922002  0  0  -0.014329  0  3.934963  0  0  -0.067731  -0.021399  0  3.913093  0
C  C66  1  0.48925806  0.26350030  0.58605956  1  0  0.041263  0  3.66231  0  0  -0.018598  0  3.922029  0  0  -0.014285  0  3.934994  0  0  -0.067747  -0.021355  0  3.913117  0
C  C67  1  0.98925711  0.73649715  0.91393848  1  0  0.041217  0  3.662389  0  0  -0.018585  0  3.922019  0  0  -0.014272  0  3.934982  0  0  -0.067735  -0.021335  0  3.913121  0
C  C68  1  0.35106737  0.68350847  0.45159094  1  0  -0.314821  0  3.688012  0  0  -0.391574  0  3.935254  0  0  -0.394662  0  3.944776  0  0  -0.253423  -0.389246  0  3.928671  0
C  C69  1  0.85106695  0.31649281  0.04840955  1  0  -0.314888  0  3.688011  0  0  -0.391625  0  3.935255  0  0  -0.394713  0  3.944775  0  0  -0.253434  -0.389294  0  3.928673  0
C  C70  1  0.64893392  0.31648917  0.54840753  1  0  -0.314902  0  3.688054  0  0  -0.391613  0  3.93531  0  0  -0.394701  0  3.944833  0  0  -0.253435  -0.389288  0  3.928727  0
C  C71  1  0.14893434  0.68350794  0.95159222  1  0  -0.314879  0  3.68797  0  0  -0.39163  0  3.935244  0  0  -0.394718  0  3.944766  0  0  -0.253444  -0.389305  0  3.928659  0
C  C72  1  0.72916357  0.55034656  0.38997028  1  0  0.039995  0  3.63828  0  0  -0.018841  0  3.896036  0  0  -0.014073  0  3.907636  0  0  -0.065164  -0.021826  0  3.887975  0
C  C73  1  0.22916102  0.44965358  0.11002877  1  0  0.040006  0  3.638271  0  0  -0.018836  0  3.896039  0  0  -0.014058  0  3.907622  0  0  -0.065163  -0.021822  0  3.887979  0
C  C74  1  0.27083772  0.44965212  0.61003044  1  0  0.039926  0  3.63834  0  0  -0.018864  0  3.896032  0  0  -0.014101  0  3.90764  0  0  -0.065209  -0.021848  0  3.887966  0
C  C75  1  0.77083396  0.55034720  0.88996886  1  0  0.039896  0  3.638456  0  0  -0.018925  0  3.896174  0  0  -0.014156  0  3.907775  0  0  -0.065216  -0.021916  0  3.888115  0
C  C76  1  0.83999071  0.56722158  0.30735261  1  0  -0.304403  0  3.680125  0  0  -0.379569  0  3.919185  0  0  -0.382454  0  3.929201  0  0  -0.24677  -0.377516  0  3.912598  0
C  C77  1  0.33998907  0.43277761  0.19264684  1  0  -0.304421  0  3.680082  0  0  -0.379596  0  3.91914  0  0  -0.382485  0  3.929151  0  0  -0.246768  -0.377539  0  3.912548  0
C  C78  1  0.16001059  0.43277502  0.69264636  1  0  -0.304459  0  3.680166  0  0  -0.379629  0  3.919202  0  0  -0.382514  0  3.929212  0  0  -0.246777  -0.377574  0  3.912611  0
C  C79  1  0.66000970  0.56722628  0.80735410  1  0  -0.304436  0  3.680264  0  0  -0.379602  0  3.919292  0  0  -0.382492  0  3.929304  0  0  -0.246755  -0.377556  0  3.912711  0
S  S80  1  0.66838309  0.91405339  0.59190293  1  0  -0.357246  0  2.167634  0  0  -0.315315  0  2.503759  0  0  -0.331888  0  2.502316  0  0  -0.117048  -0.303995  0  2.504039  0
S  S81  1  0.16839508  0.08594585  0.90809371  1  0  -0.357237  0  2.167707  0  0  -0.315329  0  2.503851  0  0  -0.331906  0  2.502417  0  0  -0.11705  -0.304014  0  2.504134  0
S  S82  1  0.33161064  0.08594530  0.40809572  1  0  -0.357199  0  2.167692  0  0  -0.315262  0  2.50383  0  0  -0.331834  0  2.502389  0  0  -0.117029  -0.303948  0  2.504113  0
S  S83  1  0.83161252  0.91405284  0.09190356  1  0  -0.357208  0  2.167736  0  0  -0.315265  0  2.50383  0  0  -0.331837  0  2.502389  0  0  -0.117025  -0.303952  0  2.504116  0
S  S84  1  0.92947808  0.69327005  0.56468171  1  0  -0.314906  0  2.071605  0  0  -0.286878  0  2.401906  0  0  -0.301832  0  2.400844  0  0  -0.109712  -0.276525  0  2.401604  0
S  S85  1  0.42948285  0.30673459  0.93532319  1  0  -0.314892  0  2.071611  0  0  -0.28688  0  2.401906  0  0  -0.301834  0  2.400845  0  0  -0.109702  -0.276531  0  2.401608  0
S  S86  1  0.07051691  0.30672757  0.43531953  1  0  -0.314918  0  2.071608  0  0  -0.28691  0  2.401947  0  0  -0.301864  0  2.400886  0  0  -0.10972  -0.27656  0  2.401647  0
S  S87  1  0.57051845  0.69327240  0.06468106  1  0  -0.314925  0  2.071648  0  0  -0.286913  0  2.401958  0  0  -0.301868  0  2.400897  0  0  -0.109727  -0.276564  0  2.401658  0
N  N88  1  0.66525317  0.68370223  0.44862061  1  0  -0.118133  0  3.401894  0  0  -0.015741  0  3.618825  0  0  -0.033652  0  3.641944  0  0  -0.256554  -0.003958  0  3.603003  0
N  N89  1  0.16525561  0.31629785  0.05137850  1  0  -0.118108  0  3.401921  0  0  -0.015708  0  3.618846  0  0  -0.033623  0  3.641964  0  0  -0.256547  -0.003927  0  3.603019  0
N  N90  1  0.33474560  0.31629438  0.55137768  1  0  -0.118172  0  3.401927  0  0  -0.015741  0  3.618809  0  0  -0.033657  0  3.641935  0  0  -0.256462  -0.003954  0  3.602973  0
N  N91  1  0.83474568  0.68370396  0.94862138  1  0  -0.118096  0  3.401904  0  0  -0.015708  0  3.61881  0  0  -0.03362  0  3.641932  0  0  -0.256494  -0.003919  0  3.602975  0
Cl  Cl92  1  0.76908332  0.19378586  0.77386041  1  0  -0.525538  0  0.915482  0  0  -0.458759  0  1.160594  0  0  -0.477382  0  1.149853  0  0  -0.252627  -0.445618  0  1.16777  0
Cl  Cl93  1  0.26907979  0.80622283  0.72614122  1  0  -0.525527  0  0.91534  0  0  -0.458756  0  1.160462  0  0  -0.47738  0  1.149723  0  0  -0.252637  -0.445613  0  1.167635  0
Cl  Cl94  1  0.23091545  0.80621804  0.22613984  1  0  -0.525511  0  0.915435  0  0  -0.458723  0  1.160531  0  0  -0.477345  0  1.149788  0  0  -0.252617  -0.445581  0  1.167711  0
Cl  Cl95  1  0.73091520  0.19378001  0.27385954  1  0  -0.525519  0  0.915456  0  0  -0.458729  0  1.160554  0  0  -0.477352  0  1.149812  0  0  -0.252625  -0.445588  0  1.16773  0
