# generated using pymatgen
data_MgH12(CO2)4
_symmetry_space_group_name_H-M   'P 1'
_cell_length_a   7.43682937
_cell_length_b   7.66663296
_cell_length_c   14.32875529
_cell_angle_alpha   89.99978134
_cell_angle_beta   89.99996467
_cell_angle_gamma   98.68130044
_symmetry_Int_Tables_number   1
_chemical_formula_structural   MgH12(CO2)4
_chemical_formula_sum   'Mg4 H48 C16 O32'
_cell_volume   807.60055465
_cell_formula_units_Z   4
loop_
 _symmetry_equiv_pos_site_id
 _symmetry_equiv_pos_as_xyz
  1  'x, y, z'
loop_
 _atom_site_type_symbol
 _atom_site_label
 _atom_site_symmetry_multiplicity
 _atom_site_fract_x
 _atom_site_fract_y
 _atom_site_fract_z
 _atom_site_occupancy
 _atom_site_hle17_bader_spin_density
 _atom_site_hle17_ddec_charge
 _atom_site_hle17_ddec_spin_density
 _atom_site_hle17_ddec_sum_bond_order
 _atom_site_hle17_magmom
 _atom_site_hse06_10hf_bader_spin_density
 _atom_site_hse06_10hf_ddec_charge
 _atom_site_hse06_10hf_ddec_spin_density
 _atom_site_hse06_10hf_ddec_sum_bond_order
 _atom_site_hse06_10hf_magmom
 _atom_site_hse06_bader_spin_density
 _atom_site_hse06_ddec_charge
 _atom_site_hse06_ddec_spin_density
 _atom_site_hse06_ddec_sum_bond_order
 _atom_site_hse06_magmom
 _atom_site_pbe_bader_spin_density
 _atom_site_pbe_cm5_charge
 _atom_site_pbe_ddec_charge
 _atom_site_pbe_ddec_spin_density
 _atom_site_pbe_ddec_sum_bond_order
 _atom_site_pbe_magmom
Mg  Mg0  1  0.07677137  0.81621879  0.64422817  1  0  1.517402  0  1.078397  0  0  1.406075  0  1.332096  0  0  1.429102  0  1.296328  0  0  0.797152  1.389812  0  1.357179  0
Mg  Mg1  1  0.07677246  0.31621719  0.85577183  1  0  1.517398  0  1.078424  0  0  1.406105  0  1.332057  0  0  1.429147  0  1.296286  0  0  0.797162  1.389842  0  1.357141  0
Mg  Mg2  1  0.92322836  0.18378076  0.35577167  1  0  1.517402  0  1.078421  0  0  1.40608  0  1.332083  0  0  1.429132  0  1.296305  0  0  0.797151  1.389815  0  1.357171  0
Mg  Mg3  1  0.92322884  0.68378366  0.14422801  1  0  1.5174  0  1.078409  0  0  1.406118  0  1.33203  0  0  1.429156  0  1.296261  0  0  0.797156  1.389855  0  1.357115  0
H  H4  1  0.38758769  0.73228654  0.63666510  1  0  0.425514  0  0.87846  0  0  0.388964  0  0.950561  0  0  0.400728  0  0.933381  0  0  0.296773  0.380685  0  0.962632  0
H  H5  1  0.38758875  0.23228489  0.86333498  1  0  0.425532  0  0.878433  0  0  0.388984  0  0.95053  0  0  0.400748  0  0.93335  0  0  0.296781  0.380707  0  0.9626  0
H  H6  1  0.61241227  0.26771433  0.36333544  1  0  0.425522  0  0.878448  0  0  0.388967  0  0.950555  0  0  0.40073  0  0.933377  0  0  0.296777  0.38069  0  0.962625  0
H  H7  1  0.61241120  0.76771599  0.13666416  1  0  0.425549  0  0.878416  0  0  0.388998  0  0.950517  0  0  0.400762  0  0.933335  0  0  0.296797  0.380723  0  0.962585  0
H  H8  1  0.27624300  0.58942925  0.56648820  1  0  0.434834  0  0.869942  0  0  0.398857  0  0.941713  0  0  0.410019  0  0.925546  0  0  0.299231  0.391004  0  0.953074  0
H  H9  1  0.27624391  0.08942708  0.93351291  1  0  0.434805  0  0.869978  0  0  0.398824  0  0.94176  0  0  0.409986  0  0.925592  0  0  0.299219  0.390971  0  0.953122  0
H  H10  1  0.72375695  0.41057162  0.43351235  1  0  0.434682  0  0.870143  0  0  0.398685  0  0.941945  0  0  0.409847  0  0.925778  0  0  0.29915  0.390831  0  0.953307  0
H  H11  1  0.72375717  0.91057246  0.06648763  1  0  0.434825  0  0.869971  0  0  0.398841  0  0.941753  0  0  0.410002  0  0.925587  0  0  0.299221  0.390989  0  0.953114  0
H  H12  1  0.75291108  0.95197075  0.64064213  1  0  0.43576  0  0.863661  0  0  0.401523  0  0.93101  0  0  0.412826  0  0.914725  0  0  0.29922  0.393554  0  0.942483  0
H  H13  1  0.75291350  0.45196912  0.85935808  1  0  0.435776  0  0.863645  0  0  0.401554  0  0.930971  0  0  0.412857  0  0.914683  0  0  0.299216  0.393585  0  0.942445  0
H  H14  1  0.24708866  0.04802880  0.35935841  1  0  0.435777  0  0.863632  0  0  0.401537  0  0.930987  0  0  0.412838  0  0.914701  0  0  0.299217  0.393571  0  0.942455  0
H  H15  1  0.24708736  0.54802910  0.14064106  1  0  0.435781  0  0.863629  0  0  0.401547  0  0.930972  0  0  0.412848  0  0.914687  0  0  0.299223  0.393582  0  0.942438  0
H  H16  1  0.88271741  0.03588000  0.72173802  1  0  0.427457  0  0.879888  0  0  0.392759  0  0.949939  0  0  0.4039  0  0.933904  0  0  0.298709  0.38489  0  0.961264  0
H  H17  1  0.88272003  0.53588056  0.77826230  1  0  0.427474  0  0.879852  0  0  0.39278  0  0.949897  0  0  0.403918  0  0.933864  0  0  0.29872  0.384912  0  0.96122  0
H  H18  1  0.11728211  0.96411823  0.27826182  1  0  0.427459  0  0.879877  0  0  0.392767  0  0.949922  0  0  0.403906  0  0.933888  0  0  0.298707  0.384899  0  0.961245  0
H  H19  1  0.11728082  0.46411766  0.22173754  1  0  0.427449  0  0.879879  0  0  0.392752  0  0.949931  0  0  0.403891  0  0.933897  0  0  0.298706  0.384884  0  0.961256  0
H  H20  1  0.19100855  0.73060244  0.82021841  1  0  0.436901  0  0.858384  0  0  0.406864  0  0.919181  0  0  0.417002  0  0.904486  0  0  0.30246  0.399658  0  0.929652  0
H  H21  1  0.19100624  0.23060352  0.67978174  1  0  0.436914  0  0.858363  0  0  0.406879  0  0.919154  0  0  0.417016  0  0.904461  0  0  0.30248  0.399675  0  0.929624  0
H  H22  1  0.80899252  0.26939710  0.17978213  1  0  0.436916  0  0.858361  0  0  0.406885  0  0.919146  0  0  0.417023  0  0.904453  0  0  0.302476  0.39968  0  0.929618  0
H  H23  1  0.80899349  0.76939603  0.32021880  1  0  0.436908  0  0.85837  0  0  0.406873  0  0.919162  0  0  0.417013  0  0.904465  0  0  0.302478  0.399668  0  0.929633  0
H  H24  1  0.19998751  0.94026680  0.81191949  1  0  0.442018  0  0.851174  0  0  0.410989  0  0.914228  0  0  0.421236  0  0.899146  0  0  0.301455  0.403711  0  0.924946  0
H  H25  1  0.19998496  0.44026650  0.68808092  1  0  0.442087  0  0.851097  0  0  0.411054  0  0.914153  0  0  0.4213  0  0.899071  0  0  0.301506  0.403776  0  0.92487  0
H  H26  1  0.80001357  0.05973274  0.18808105  1  0  0.442034  0  0.851148  0  0  0.411008  0  0.914197  0  0  0.421254  0  0.899115  0  0  0.30147  0.403732  0  0.924912  0
H  H27  1  0.80001455  0.55973174  0.31191962  1  0  0.442018  0  0.85117  0  0  0.410991  0  0.91422  0  0  0.421238  0  0.899138  0  0  0.301478  0.403713  0  0.924937  0
H  H28  1  0.04669461  0.87195973  0.44645030  1  0  0.44672  0  0.843832  0  0  0.416018  0  0.906297  0  0  0.426198  0  0.891245  0  0  0.304947  0.408765  0  0.917043  0
H  H29  1  0.04669194  0.37195779  0.05354927  1  0  0.446717  0  0.843822  0  0  0.416014  0  0.90629  0  0  0.426194  0  0.891238  0  0  0.304952  0.408762  0  0.917036  0
H  H30  1  0.95330512  0.12803982  0.55355024  1  0  0.446691  0  0.843855  0  0  0.415992  0  0.906318  0  0  0.426169  0  0.89127  0  0  0.304923  0.408739  0  0.917064  0
H  H31  1  0.95330780  0.62804176  0.94645057  1  0  0.446708  0  0.843834  0  0  0.416007  0  0.906299  0  0  0.426187  0  0.891248  0  0  0.304952  0.408755  0  0.917045  0
H  H32  1  0.92047882  0.70514135  0.49533594  1  0  0.425439  0  0.880186  0  0  0.388455  0  0.953037  0  0  0.400699  0  0.935041  0  0  0.29568  0.379831  0  0.965702  0
H  H33  1  0.92047648  0.20514109  0.00466229  1  0  0.425421  0  0.880209  0  0  0.388433  0  0.953068  0  0  0.400678  0  0.93507  0  0  0.295673  0.37981  0  0.965732  0
H  H34  1  0.07952092  0.29485821  0.50466460  1  0  0.425448  0  0.880172  0  0  0.38847  0  0.953015  0  0  0.400714  0  0.935019  0  0  0.295681  0.379846  0  0.96568  0
H  H35  1  0.07952460  0.79485845  0.99533685  1  0  0.425584  0  0.880001  0  0  0.388532  0  0.95296  0  0  0.40078  0  0.934956  0  0  0.295723  0.379908  0  0.965626  0
H  H36  1  0.74225163  0.27090801  0.69263060  1  0  0.10959  0  0.952143  0  0  0.121897  0  1.018342  0  0  0.124716  0  1.016954  0  0  0.1063  0.119856  0  1.019438  0
H  H37  1  0.74224882  0.77090840  0.80736929  1  0  0.109529  0  0.952211  0  0  0.121835  0  1.018405  0  0  0.124653  0  1.017018  0  0  0.106272  0.119796  0  1.019502  0
H  H38  1  0.25774966  0.72909285  0.30737064  1  0  0.10956  0  0.952164  0  0  0.121859  0  1.018367  0  0  0.124681  0  1.016973  0  0  0.106285  0.119819  0  1.019463  0
H  H39  1  0.25775135  0.22909379  0.19263055  1  0  0.109547  0  0.952207  0  0  0.121833  0  1.018414  0  0  0.124657  0  1.017023  0  0  0.106272  0.119795  0  1.019509  0
H  H40  1  0.55967025  0.38928292  0.70449057  1  0  0.11299  0  0.942894  0  0  0.126385  0  1.00259  0  0  0.129315  0  1.001164  0  0  0.10299  0.124237  0  1.00377  0
H  H41  1  0.55966769  0.88928472  0.79550913  1  0  0.112972  0  0.942902  0  0  0.126362  0  1.002604  0  0  0.129289  0  1.001177  0  0  0.102971  0.12421  0  1.003789  0
H  H42  1  0.44032949  0.61071663  0.29551067  1  0  0.112957  0  0.942956  0  0  0.12636  0  1.002648  0  0  0.129288  0  1.001219  0  0  0.102984  0.124211  0  1.003829  0
H  H43  1  0.44033383  0.11071746  0.20449001  1  0  0.112987  0  0.942897  0  0  0.126364  0  1.002607  0  0  0.129294  0  1.001179  0  0  0.102976  0.12421  0  1.003794  0
H  H44  1  0.44989415  0.29711305  0.54246405  1  0  0.114574  0  0.951804  0  0  0.123103  0  1.018593  0  0  0.126296  0  1.016825  0  0  0.098787  0.120808  0  1.019947  0
H  H45  1  0.44989121  0.79711364  0.95753797  1  0  0.114583  0  0.951762  0  0  0.123127  0  1.018523  0  0  0.12632  0  1.016753  0  0  0.098802  0.120831  0  1.019876  0
H  H46  1  0.55010849  0.70288779  0.45753789  1  0  0.114567  0  0.951796  0  0  0.123114  0  1.018542  0  0  0.126307  0  1.01677  0  0  0.0988  0.120817  0  1.019896  0
H  H47  1  0.55010874  0.20288723  0.04246117  1  0  0.114516  0  0.951835  0  0  0.123085  0  1.018562  0  0  0.126276  0  1.016794  0  0  0.098776  0.120789  0  1.019919  0
H  H48  1  0.64347339  0.18924243  0.52816351  1  0  0.101701  0  0.971366  0  0  0.11461  0  1.036471  0  0  0.116723  0  1.035893  0  0  0.104581  0.113069  0  1.036981  0
H  H49  1  0.64347288  0.68924156  0.97183657  1  0  0.101704  0  0.971363  0  0  0.114615  0  1.036459  0  0  0.116729  0  1.035878  0  0  0.104572  0.113073  0  1.03697  0
H  H50  1  0.35652903  0.81075710  0.47183703  1  0  0.101716  0  0.971418  0  0  0.114616  0  1.036517  0  0  0.11673  0  1.035935  0  0  0.104577  0.113073  0  1.037027  0
H  H51  1  0.35652707  0.31075931  0.02816257  1  0  0.101667  0  0.971465  0  0  0.114569  0  1.03658  0  0  0.116682  0  1.035998  0  0  0.104565  0.113027  0  1.03709  0
C  C52  1  0.76765182  0.50405898  0.61173707  1  0  0.75535  0  3.750499  0  0  0.698846  0  4.054934  0  0  0.733319  0  4.045518  0  0  0.237039  0.675434  0  4.060636  0
C  C53  1  0.76765170  0.00405848  0.88826265  1  0  0.755372  0  3.75039  0  0  0.698774  0  4.055001  0  0  0.733248  0  4.045578  0  0  0.236986  0.675363  0  4.060708  0
C  C54  1  0.23234792  0.49594057  0.38826347  1  0  0.755338  0  3.750496  0  0  0.698824  0  4.054954  0  0  0.733297  0  4.045529  0  0  0.23703  0.675413  0  4.060654  0
C  C55  1  0.23235072  0.99594104  0.11173649  1  0  0.755264  0  3.750533  0  0  0.698693  0  4.055087  0  0  0.733167  0  4.04567  0  0  0.237008  0.675282  0  4.06079  0
C  C56  1  0.65093955  0.34288833  0.65269825  1  0  -0.251198  0  3.659011  0  0  -0.289718  0  3.909981  0  0  -0.29521  0  3.91671  0  0  -0.166747  -0.285781  0  3.905166  0
C  C57  1  0.65093509  0.84288712  0.84730292  1  0  -0.25111  0  3.658998  0  0  -0.289566  0  3.909922  0  0  -0.295077  0  3.916697  0  0  -0.166668  -0.285625  0  3.905108  0
C  C58  1  0.34906377  0.65710854  0.34730369  1  0  -0.251093  0  3.659066  0  0  -0.289587  0  3.909966  0  0  -0.295099  0  3.91674  0  0  -0.166687  -0.285648  0  3.905145  0
C  C59  1  0.34906486  0.15711376  0.15269483  1  0  -0.251146  0  3.659114  0  0  -0.289595  0  3.910041  0  0  -0.295091  0  3.916773  0  0  -0.166701  -0.285653  0  3.905228  0
C  C60  1  0.54544609  0.22521301  0.57898228  1  0  -0.266699  0  3.69698  0  0  -0.310859  0  3.952412  0  0  -0.31629  0  3.959843  0  0  -0.177612  -0.306946  0  3.947012  0
C  C61  1  0.54544569  0.72521253  0.92101846  1  0  -0.266782  0  3.69696  0  0  -0.310929  0  3.952398  0  0  -0.316366  0  3.959833  0  0  -0.177636  -0.307016  0  3.946996  0
C  C62  1  0.45455387  0.77478786  0.42101965  1  0  -0.266749  0  3.697037  0  0  -0.310878  0  3.952433  0  0  -0.31632  0  3.959889  0  0  -0.177612  -0.306963  0  3.947025  0
C  C63  1  0.45455336  0.27479099  0.07898069  1  0  -0.26671  0  3.697117  0  0  -0.310869  0  3.952503  0  0  -0.316307  0  3.959958  0  0  -0.177594  -0.306955  0  3.947097  0
C  C64  1  0.44191718  0.05467907  0.61670452  1  0  0.736916  0  3.772179  0  0  0.68594  0  4.073992  0  0  0.71944  0  4.065202  0  0  0.229587  0.663208  0  4.079295  0
C  C65  1  0.44191285  0.55467891  0.88329521  1  0  0.736978  0  3.772157  0  0  0.685974  0  4.07402  0  0  0.719479  0  4.06522  0  0  0.229552  0.663238  0  4.079328  0
C  C66  1  0.55808390  0.94532047  0.38329462  1  0  0.736893  0  3.77213  0  0  0.685898  0  4.073976  0  0  0.719389  0  4.06519  0  0  0.229526  0.663168  0  4.079277  0
C  C67  1  0.55808442  0.44532199  0.11670394  1  0  0.736988  0  3.772042  0  0  0.685991  0  4.073899  0  0  0.719482  0  4.065109  0  0  0.229564  0.663262  0  4.079201  0
O  O68  1  0.87445070  0.60066658  0.66807472  1  0  -0.739144  0  2.028537  0  0  -0.667386  0  2.263283  0  0  -0.69404  0  2.251841  0  0  -0.348297  -0.648899  0  2.270761  0
O  O69  1  0.87444938  0.10066651  0.83192408  1  0  -0.739147  0  2.028486  0  0  -0.667393  0  2.263307  0  0  -0.69405  0  2.251866  0  0  -0.348305  -0.648905  0  2.270787  0
O  O70  1  0.12555037  0.39933296  0.33192512  1  0  -0.739134  0  2.028557  0  0  -0.667383  0  2.26331  0  0  -0.694033  0  2.251864  0  0  -0.348295  -0.648896  0  2.270788  0
O  O71  1  0.12555192  0.89933435  0.16807437  1  0  -0.739079  0  2.028477  0  0  -0.66734  0  2.263264  0  0  -0.693984  0  2.251816  0  0  -0.348291  -0.648851  0  2.270742  0
O  O72  1  0.75682998  0.54009063  0.52572399  1  0  -0.631344  0  2.011653  0  0  -0.556894  0  2.225152  0  0  -0.583581  0  2.214456  0  0  -0.294632  -0.538491  0  2.232226  0
O  O73  1  0.75682720  0.04009083  0.97427497  1  0  -0.631333  0  2.011641  0  0  -0.556854  0  2.225198  0  0  -0.583538  0  2.214504  0  0  -0.29457  -0.538452  0  2.232276  0
O  O74  1  0.24316841  0.45990894  0.47427725  1  0  -0.631361  0  2.011605  0  0  -0.556934  0  2.225125  0  0  -0.583617  0  2.214427  0  0  -0.294649  -0.538533  0  2.232199  0
O  O75  1  0.24317544  0.95991001  0.02572417  1  0  -0.631278  0  2.011717  0  0  -0.5568  0  2.225276  0  0  -0.583488  0  2.214583  0  0  -0.294574  -0.538398  0  2.23235  0
O  O76  1  0.26995162  0.04448785  0.62882773  1  0  -0.734538  0  2.00813  0  0  -0.663386  0  2.236817  0  0  -0.688428  0  2.224938  0  0  -0.347517  -0.646081  0  2.244685  0
O  O77  1  0.26994978  0.54448644  0.87117277  1  0  -0.734532  0  2.008223  0  0  -0.663379  0  2.236923  0  0  -0.688421  0  2.225035  0  0  -0.347486  -0.64607  0  2.244789  0
O  O78  1  0.73004968  0.95551300  0.37117211  1  0  -0.734513  0  2.008167  0  0  -0.66337  0  2.236862  0  0  -0.68841  0  2.224985  0  0  -0.347487  -0.646065  0  2.244729  0
O  O79  1  0.73004883  0.45551445  0.12882777  1  0  -0.734591  0  2.008153  0  0  -0.663476  0  2.236876  0  0  -0.68851  0  2.224997  0  0  -0.347536  -0.646162  0  2.244737  0
O  O80  1  0.52758326  0.92515649  0.63226673  1  0  -0.645893  0  1.990703  0  0  -0.575956  0  2.201999  0  0  -0.602848  0  2.192068  0  0  -0.303025  -0.557372  0  2.20847  0
O  O81  1  0.52758229  0.42515879  0.86773221  1  0  -0.645914  0  1.990672  0  0  -0.575979  0  2.201971  0  0  -0.602867  0  2.192035  0  0  -0.303019  -0.557392  0  2.208441  0
O  O82  1  0.47241626  0.07484174  0.36773242  1  0  -0.645902  0  1.990665  0  0  -0.575946  0  2.201946  0  0  -0.602825  0  2.192015  0  0  -0.303018  -0.557368  0  2.208419  0
O  O83  1  0.47241520  0.57484343  0.13226623  1  0  -0.645908  0  1.990625  0  0  -0.575945  0  2.201898  0  0  -0.602826  0  2.191967  0  0  -0.303004  -0.557382  0  2.208384  0
O  O84  1  0.27458969  0.64221131  0.63067515  1  0  -0.914216  0  1.897817  0  0  -0.851335  0  2.08748  0  0  -0.871182  0  2.053625  0  0  -0.596299  -0.837301  0  2.110928  0
O  O85  1  0.27458940  0.14220962  0.86932515  1  0  -0.914212  0  1.897836  0  0  -0.85133  0  2.087474  0  0  -0.87119  0  2.053643  0  0  -0.596295  -0.837295  0  2.110922  0
O  O86  1  0.72541005  0.35778825  0.36932539  1  0  -0.914064  0  1.897931  0  0  -0.851163  0  2.087597  0  0  -0.871022  0  2.053761  0  0  -0.596216  -0.837126  0  2.111042  0
O  O87  1  0.72541034  0.85778993  0.13067470  1  0  -0.914238  0  1.897847  0  0  -0.851369  0  2.087516  0  0  -0.871226  0  2.053681  0  0  -0.596311  -0.837335  0  2.110966  0
O  O88  1  0.88530005  0.98708532  0.65649830  1  0  -0.915734  0  1.90447  0  0  -0.853223  0  2.100382  0  0  -0.872643  0  2.066195  0  0  -0.602957  -0.839482  0  2.124172  0
O  O89  1  0.88530429  0.48708643  0.84350249  1  0  -0.91574  0  1.904466  0  0  -0.853231  0  2.100331  0  0  -0.872677  0  2.06619  0  0  -0.602956  -0.839493  0  2.124121  0
O  O90  1  0.11469768  0.01291029  0.34350224  1  0  -0.915774  0  1.904498  0  0  -0.853221  0  2.100316  0  0  -0.872687  0  2.066218  0  0  -0.602951  -0.839482  0  2.124103  0
O  O91  1  0.11469657  0.51291179  0.15649735  1  0  -0.915726  0  1.904471  0  0  -0.853188  0  2.100304  0  0  -0.872645  0  2.066193  0  0  -0.602947  -0.839449  0  2.124089  0
O  O92  1  0.14179606  0.82552394  0.78594039  1  0  -0.898556  0  1.823295  0  0  -0.8427  0  2.010154  0  0  -0.859735  0  1.978514  0  0  -0.614655  -0.830783  0  2.032372  0
O  O93  1  0.14179501  0.32552475  0.71405888  1  0  -0.898647  0  1.823253  0  0  -0.84277  0  2.010103  0  0  -0.85981  0  1.978463  0  0  -0.61471  -0.830851  0  2.032321  0
O  O94  1  0.85820501  0.17447560  0.21405945  1  0  -0.898578  0  1.823291  0  0  -0.84272  0  2.010135  0  0  -0.859756  0  1.978493  0  0  -0.614664  -0.830803  0  2.03235  0
O  O95  1  0.85820628  0.67447611  0.28594166  1  0  -0.898561  0  1.823306  0  0  -0.842712  0  2.010156  0  0  -0.859744  0  1.978513  0  0  -0.614674  -0.830794  0  2.032376  0
O  O96  1  0.03136287  0.79589101  0.50228845  1  0  -0.92583  0  1.872531  0  0  -0.869848  0  2.069945  0  0  -0.887547  0  2.035724  0  0  -0.623198  -0.857412  0  2.093883  0
O  O97  1  0.03136250  0.29588969  0.99771092  1  0  -0.925819  0  1.872523  0  0  -0.869838  0  2.069923  0  0  -0.887539  0  2.035702  0  0  -0.623203  -0.857401  0  2.093859  0
O  O98  1  0.96863552  0.20410855  0.49771139  1  0  -0.925817  0  1.87254  0  0  -0.869838  0  2.069943  0  0  -0.887544  0  2.035723  0  0  -0.62318  -0.857401  0  2.093881  0
O  O99  1  0.96863745  0.70411118  0.00228892  1  0  -0.925968  0  1.872392  0  0  -0.869943  0  2.069854  0  0  -0.887648  0  2.03563  0  0  -0.623251  -0.857507  0  2.093792  0
