# generated using pymatgen
data_HgPH12C6N3Cl2O
_symmetry_space_group_name_H-M   'P 1'
_cell_length_a   7.31800685
_cell_length_b   7.30239771
_cell_length_c   21.08890000
_cell_angle_alpha   90.00000000
_cell_angle_beta   90.00000000
_cell_angle_gamma   103.16196131
_symmetry_Int_Tables_number   1
_chemical_formula_structural   HgPH12C6N3Cl2O
_chemical_formula_sum   'Hg4 P4 H48 C24 N12 Cl8 O4'
_cell_volume   1097.36448735
_cell_formula_units_Z   4
loop_
 _symmetry_equiv_pos_site_id
 _symmetry_equiv_pos_as_xyz
  1  'x, y, z'
loop_
 _atom_site_type_symbol
 _atom_site_label
 _atom_site_symmetry_multiplicity
 _atom_site_fract_x
 _atom_site_fract_y
 _atom_site_fract_z
 _atom_site_occupancy
 _atom_site_hle17_bader_spin_density
 _atom_site_hle17_ddec_charge
 _atom_site_hle17_ddec_spin_density
 _atom_site_hle17_ddec_sum_bond_order
 _atom_site_hle17_magmom
 _atom_site_hse06_10hf_bader_spin_density
 _atom_site_hse06_10hf_ddec_charge
 _atom_site_hse06_10hf_ddec_spin_density
 _atom_site_hse06_10hf_ddec_sum_bond_order
 _atom_site_hse06_10hf_magmom
 _atom_site_hse06_bader_spin_density
 _atom_site_hse06_ddec_charge
 _atom_site_hse06_ddec_spin_density
 _atom_site_hse06_ddec_sum_bond_order
 _atom_site_hse06_magmom
 _atom_site_pbe_bader_charge
 _atom_site_pbe_bader_spin_density
 _atom_site_pbe_cm5_charge
 _atom_site_pbe_ddec_charge
 _atom_site_pbe_ddec_spin_density
 _atom_site_pbe_ddec_sum_bond_order
 _atom_site_pbe_magmom
Hg  Hg0  1  0.43550790  0.53159482  0.59545590  1  0  0.786329  0  2.044862  0  0  0.636529  0  2.536045  0  0  0.686689  0  2.497323  0  0.827962  0  0.512665  0.601817  0  2.562292  0
Hg  Hg1  1  0.56449223  0.96840816  0.09545543  1  0  0.786304  0  2.044822  0  0  0.636503  0  2.535984  0  0  0.686661  0  2.497266  0  0.827904  0  0.512672  0.60179  0  2.56223  0
Hg  Hg2  1  0.56449383  0.46840576  0.40454410  1  0  0.786278  0  2.044839  0  0  0.636475  0  2.536017  0  0  0.68663  0  2.497295  0  0.827978  0  0.512651  0.601761  0  2.562263  0
Hg  Hg3  1  0.43550741  0.03159524  0.90454410  1  0  0.786298  0  2.044833  0  0  0.636509  0  2.536018  0  0  0.686666  0  2.497295  0  0.827959  0  0.512662  0.601795  0  2.562265  0
P  P4  1  0.10444863  0.80854887  0.65142516  1  0  0.991787  0  4.256764  0  0  0.906048  0  4.690009  0  0  0.936189  0  4.679483  0  2.534255  0  0.223819  0.885006  0  4.697026  0
P  P5  1  0.89553396  0.69146114  0.15142611  1  0  0.991799  0  4.257139  0  0  0.906126  0  4.690379  0  0  0.936266  0  4.679855  0  2.533795  0  0.223898  0.885085  0  4.697396  0
P  P6  1  0.89554900  0.19145171  0.34857437  1  0  0.991707  0  4.256848  0  0  0.906002  0  4.690065  0  0  0.936142  0  4.679541  0  2.534252  0  0.223835  0.884959  0  4.697084  0
P  P7  1  0.10444846  0.30855069  0.84857484  1  0  0.991799  0  4.25657  0  0  0.906103  0  4.689796  0  0  0.936246  0  4.67927  0  2.534253  0  0.223832  0.885061  0  4.696817  0
H  H8  1  0.89003388  0.56520959  0.59193177  1  0  0.121765  0  0.952555  0  0  0.134636  0  1.015349  0  0  0.136256  0  1.015247  0  0.09284  0  0.102666  0.133431  0  1.01557  0
H  H9  1  0.10996593  0.93479199  0.09193130  1  0  0.121774  0  0.952573  0  0  0.134677  0  1.015371  0  0  0.136301  0  1.015259  0  0.092801  0  0.102695  0.133471  0  1.015592  0
H  H10  1  0.10996616  0.43478959  0.40806870  1  0  0.121768  0  0.952512  0  0  0.134642  0  1.015315  0  0  0.136265  0  1.015203  0  0.092835  0  0.102677  0.133437  0  1.015537  0
H  H11  1  0.89003612  0.06521000  0.90806823  1  0  0.121752  0  0.952561  0  0  0.134627  0  1.015341  0  0  0.136244  0  1.015249  0  0.092834  0  0.102679  0.133424  0  1.015561  0
H  H12  1  0.83108250  0.55693036  0.67430307  1  0  0.127337  0  0.942839  0  0  0.135343  0  1.012767  0  0  0.137728  0  1.012158  0  0.099663  0  0.110544  0.133588  0  1.013312  0
H  H13  1  0.16891626  0.94307263  0.17430212  1  0  0.127315  0  0.942872  0  0  0.135333  0  1.012805  0  0  0.13772  0  1.012197  0  0.099649  0  0.110544  0.133578  0  1.013348  0
H  H14  1  0.16891722  0.44306741  0.32569740  1  0  0.127345  0  0.942838  0  0  0.135348  0  1.012765  0  0  0.137732  0  1.012156  0  0.099681  0  0.110561  0.133593  0  1.013315  0
H  H15  1  0.83108306  0.05692937  0.82569693  1  0  0.127327  0  0.942857  0  0  0.135335  0  1.012775  0  0  0.13772  0  1.012166  0  0.099659  0  0.110546  0.133579  0  1.013318  0
H  H16  1  0.25080452  0.08237319  0.58935649  1  0  0.110049  0  0.9688  0  0  0.117695  0  1.039923  0  0  0.11963  0  1.039152  0  0.087632  0  0.098141  0.116305  0  1.040545  0
H  H17  1  0.74919431  0.41762921  0.08935696  1  0  0.11004  0  0.968825  0  0  0.117688  0  1.039953  0  0  0.119623  0  1.039181  0  0.087616  0  0.09813  0.116297  0  1.040575  0
H  H18  1  0.74919552  0.91762599  0.41064351  1  0  0.110041  0  0.968796  0  0  0.11769  0  1.03992  0  0  0.119625  0  1.039148  0  0.087547  0  0.098134  0.116299  0  1.040542  0
H  H19  1  0.25080670  0.58237419  0.91064304  1  0  0.110041  0  0.968787  0  0  0.117688  0  1.039913  0  0  0.11962  0  1.039145  0  0.087625  0  0.098139  0.116298  0  1.040536  0
H  H20  1  0.14356929  0.88793074  0.54004192  1  0  0.123031  0  0.977313  0  0  0.129705  0  1.049743  0  0  0.132273  0  1.04862  0  0.116468  0  0.101902  0.127753  0  1.05075  0
H  H21  1  0.85643019  0.61206943  0.04004192  1  0  0.12303  0  0.977381  0  0  0.12971  0  1.049808  0  0  0.132276  0  1.048689  0  0.116437  0  0.101904  0.127759  0  1.050813  0
H  H22  1  0.85643212  0.11206844  0.45995761  1  0  0.123051  0  0.977342  0  0  0.129725  0  1.049771  0  0  0.132291  0  1.048651  0  0.116476  0  0.101912  0.127772  0  1.050777  0
H  H23  1  0.14356953  0.38792834  0.95995761  1  0  0.123026  0  0.977321  0  0  0.129699  0  1.049759  0  0  0.132267  0  1.048635  0  0.116471  0  0.101894  0.127756  0  1.050758  0
H  H24  1  0.99213762  0.86036191  0.75573169  1  0  0.122138  0  0.946205  0  0  0.133884  0  1.009927  0  0  0.135866  0  1.009629  0  0.08724  0  0.115129  0.13239  0  1.010265  0
H  H25  1  0.00786018  0.63963686  0.25573074  1  0  0.122135  0  0.946254  0  0  0.133902  0  1.009963  0  0  0.13588  0  1.009673  0  0.087262  0  0.115124  0.132408  0  1.010301  0
H  H26  1  0.00786515  0.13963727  0.24426879  1  0  0.122124  0  0.946243  0  0  0.133894  0  1.009924  0  0  0.135871  0  1.009633  0  0.087259  0  0.115132  0.132399  0  1.010264  0
H  H27  1  0.99213745  0.36036373  0.74426784  1  0  0.122115  0  0.946228  0  0  0.133891  0  1.009919  0  0  0.135869  0  1.00963  0  0.087247  0  0.115122  0.132397  0  1.010258  0
H  H28  1  0.15458880  0.06524094  0.72798913  1  0  0.135732  0  0.950611  0  0  0.143197  0  1.016159  0  0  0.14591  0  1.014938  0  0.129869  0  0.108546  0.141244  0  1.017156  0
H  H29  1  0.84541044  0.43475724  0.22798771  1  0  0.135727  0  0.950605  0  0  0.143199  0  1.016167  0  0  0.145914  0  1.014946  0  0.129854  0  0.108542  0.141246  0  1.017164  0
H  H30  1  0.84541502  0.93475683  0.27201134  1  0  0.135696  0  0.950602  0  0  0.143148  0  1.01618  0  0  0.145859  0  1.014962  0  0.129886  0  0.108546  0.141194  0  1.017177  0
H  H31  1  0.15458719  0.56524334  0.77201134  1  0  0.135719  0  0.950615  0  0  0.143191  0  1.016191  0  0  0.145906  0  1.014968  0  0.129876  0  0.108555  0.141237  0  1.017189  0
H  H32  1  0.81507777  0.80670795  0.52549920  1  0  0.078255  0  0.925656  0  0  0.088961  0  0.995221  0  0  0.08912  0  0.995172  0  0.084321  0  0.113099  0.088745  0  0.995403  0
H  H33  1  0.18492067  0.69329363  0.02549825  1  0  0.078217  0  0.925635  0  0  0.088921  0  0.995201  0  0  0.089078  0  0.995154  0  0.084582  0  0.113078  0.088706  0  0.995382  0
H  H34  1  0.18492259  0.19329263  0.47450175  1  0  0.078244  0  0.925639  0  0  0.088956  0  0.995189  0  0  0.089115  0  0.995143  0  0.084478  0  0.113087  0.088741  0  0.995371  0
H  H35  1  0.81507833  0.30670696  0.97450128  1  0  0.078227  0  0.925663  0  0  0.088938  0  0.99522  0  0  0.089096  0  0.995172  0  0.084474  0  0.113084  0.088722  0  0.995402  0
H  H36  1  0.67047030  0.95490572  0.55595645  1  0  0.074574  0  0.916393  0  0  0.085578  0  0.983845  0  0  0.085951  0  0.983195  0  0.056286  0  0.112862  0.085264  0  0.984368  0
H  H37  1  0.32952845  0.54509727  0.05595550  1  0  0.074571  0  0.916399  0  0  0.085588  0  0.983829  0  0  0.085958  0  0.983185  0  0.056316  0  0.112871  0.085273  0  0.984349  0
H  H38  1  0.32953006  0.04509486  0.44404450  1  0  0.074553  0  0.916409  0  0  0.08556  0  0.983853  0  0  0.085927  0  0.983217  0  0.05641  0  0.112854  0.085246  0  0.984377  0
H  H39  1  0.67047086  0.45490473  0.94404402  1  0  0.074562  0  0.916399  0  0  0.085574  0  0.983838  0  0  0.085942  0  0.983199  0  0.056288  0  0.112864  0.08526  0  0.984361  0
H  H40  1  0.05261960  0.25368867  0.64482358  1  0  0.064036  0  0.932129  0  0  0.077426  0  1.001095  0  0  0.077519  0  1.000248  0  0.072886  0  0.108669  0.077283  0  1.001813  0
H  H41  1  0.94738300  0.24631232  0.14482405  1  0  0.064033  0  0.932152  0  0  0.077435  0  1.001123  0  0  0.077527  0  1.000278  0  0.072894  0  0.108671  0.077292  0  1.001842  0
H  H42  1  0.94738317  0.74631051  0.35517595  1  0  0.064072  0  0.932131  0  0  0.077457  0  1.0011  0  0  0.077552  0  1.000255  0  0.072908  0  0.108681  0.077314  0  1.001819  0
H  H43  1  0.05261768  0.75368967  0.85517595  1  0  0.064076  0  0.932116  0  0  0.077471  0  1.001072  0  0  0.077564  0  1.000228  0  0.072899  0  0.10868  0.077328  0  1.001791  0
H  H44  1  0.80743585  0.21252317  0.62554472  1  0  0.069713  0  0.942779  0  0  0.077388  0  1.019007  0  0  0.077783  0  1.018527  0  0.074348  0  0.105728  0.077057  0  1.019475  0
H  H45  1  0.19256844  0.28747923  0.12554519  1  0  0.069731  0  0.942748  0  0  0.077426  0  1.018967  0  0  0.077821  0  1.018489  0  0.074329  0  0.105726  0.077096  0  1.019435  0
H  H46  1  0.19256692  0.78747601  0.37445528  1  0  0.06974  0  0.94276  0  0  0.077417  0  1.018981  0  0  0.077814  0  1.018505  0  0.074308  0  0.105732  0.077086  0  1.01945  0
H  H47  1  0.80743361  0.71252276  0.87445528  1  0  0.069742  0  0.942766  0  0  0.077423  0  1.018979  0  0  0.077819  0  1.018502  0  0.074324  0  0.105736  0.077093  0  1.019447  0
H  H48  1  0.67669556  0.78282518  0.71913756  1  0  0.088131  0  0.921419  0  0  0.097859  0  0.989228  0  0  0.099126  0  0.987866  0  0.095402  0  0.111978  0.096856  0  0.990398  0
H  H49  1  0.32330151  0.71717640  0.21913708  1  0  0.088153  0  0.921413  0  0  0.097883  0  0.989219  0  0  0.099149  0  0.987859  0  0.095409  0  0.111969  0.096881  0  0.990389  0
H  H50  1  0.32330754  0.21717540  0.28086339  1  0  0.088155  0  0.921421  0  0  0.097869  0  0.989251  0  0  0.099112  0  0.987915  0  0.095416  0  0.112002  0.096869  0  0.990419  0
H  H51  1  0.67669612  0.28282419  0.78086292  1  0  0.08814  0  0.921406  0  0  0.097877  0  0.989207  0  0  0.099144  0  0.987845  0  0.095405  0  0.111965  0.096875  0  0.990379  0
H  H52  1  0.59063443  0.94055665  0.66898890  1  0  0.08289  0  0.929031  0  0  0.090743  0  1.001475  0  0  0.091658  0  1.000309  0  0.108967  0  0.111737  0.090029  0  1.002424  0
H  H53  1  0.40936674  0.55944493  0.16898937  1  0  0.082903  0  0.929031  0  0  0.090755  0  1.001486  0  0  0.091671  0  1.000315  0  0.109026  0  0.111737  0.09004  0  1.002437  0
H  H54  1  0.40936866  0.05944393  0.33101157  1  0  0.08289  0  0.928974  0  0  0.09074  0  1.001428  0  0  0.091652  0  1.000258  0  0.108993  0  0.111743  0.090027  0  1.002379  0
H  H55  1  0.59063194  0.44055425  0.83101110  1  0  0.082885  0  0.929049  0  0  0.090738  0  1.001509  0  0  0.091651  0  1.000335  0  0.109012  0  0.111737  0.090023  0  1.002462  0
C  C56  1  0.87761287  0.65116337  0.63387754  1  0  -0.302073  0  3.608252  0  0  -0.339987  0  3.853717  0  0  -0.343414  0  3.865177  0  -0.247019  0  -0.088018  -0.337549  0  3.846027  0
C  C57  1  0.12238589  0.84883962  0.13387706  1  0  -0.302055  0  3.608136  0  0  -0.340061  0  3.853674  0  0  -0.343491  0  3.865142  0  -0.246562  0  -0.088079  -0.337623  0  3.845984  0
C  C58  1  0.12238854  0.34883581  0.36612294  1  0  -0.302024  0  3.608179  0  0  -0.339956  0  3.853658  0  0  -0.343381  0  3.865124  0  -0.247012  0  -0.088037  -0.337525  0  3.845978  0
C  C59  1  0.87761343  0.15116237  0.86612246  1  0  -0.302052  0  3.60824  0  0  -0.339954  0  3.853683  0  0  -0.343382  0  3.865143  0  -0.247017  0  -0.088025  -0.337515  0  3.845992  0
C  C60  1  0.12659316  0.96647864  0.58325897  1  0  -0.297992  0  3.645419  0  0  -0.330146  0  3.884353  0  0  -0.333767  0  3.894792  0  -0.253265  0  -0.085506  -0.327539  0  3.877252  0
C  C61  1  0.87340601  0.53352013  0.08325849  1  0  -0.298092  0  3.645459  0  0  -0.330244  0  3.884328  0  0  -0.333864  0  3.89477  0  -0.253317  0  -0.085564  -0.327634  0  3.877218  0
C  C62  1  0.87340793  0.03351913  0.41674151  1  0  -0.298035  0  3.645365  0  0  -0.330209  0  3.884317  0  0  -0.33383  0  3.894756  0  -0.253238  0  -0.085546  -0.327599  0  3.87721  0
C  C63  1  0.12659267  0.46647905  0.91674103  1  0  -0.29794  0  3.645374  0  0  -0.330109  0  3.884318  0  0  -0.333729  0  3.894755  0  -0.253252  0  -0.085481  -0.327512  0  3.877213  0
C  C64  1  0.03569443  0.95084978  0.71424256  1  0  -0.291095  0  3.620592  0  0  -0.324574  0  3.86721  0  0  -0.327987  0  3.876084  0  -0.272092  0  -0.078355  -0.322131  0  3.861143  0
C  C65  1  0.96430473  0.54914898  0.21424162  1  0  -0.291154  0  3.620498  0  0  -0.324716  0  3.867196  0  0  -0.328133  0  3.876084  0  -0.271768  0  -0.078418  -0.32227  0  3.861125  0
C  C66  1  0.96431075  0.04914799  0.28575838  1  0  -0.291024  0  3.620492  0  0  -0.324535  0  3.867103  0  0  -0.327943  0  3.875982  0  -0.271968  0  -0.078379  -0.322092  0  3.861034  0
C  C67  1  0.03569258  0.45085020  0.78575791  1  0  -0.291036  0  3.620576  0  0  -0.324612  0  3.867281  0  0  -0.328029  0  3.876168  0  -0.272083  0  -0.078372  -0.322167  0  3.861213  0
C  C68  1  0.78926655  0.89074346  0.56631403  1  0  0.05821  0  3.642228  0  0  -0.010652  0  3.901454  0  0  -0.002315  0  3.912931  0  0.579802  0  0.013714  -0.016303  0  3.893453  0
C  C69  1  0.21073253  0.60926094  0.06631403  1  0  0.058286  0  3.642155  0  0  -0.010578  0  3.901377  0  0  -0.002231  0  3.912833  0  0.579468  0  0.013744  -0.016226  0  3.89337  0
C  C70  1  0.21073518  0.10925713  0.43368644  1  0  0.058188  0  3.642239  0  0  -0.010669  0  3.901466  0  0  -0.002321  0  3.912913  0  0.579467  0  0.013717  -0.016322  0  3.893467  0
C  C71  1  0.78926574  0.39074246  0.93368644  1  0  0.058257  0  3.642218  0  0  -0.010621  0  3.901483  0  0  -0.002275  0  3.912935  0  0.579614  0  0.013704  -0.016274  0  3.893483  0
C  C72  1  0.92461923  0.14527395  0.63506679  1  0  0.065588  0  3.656307  0  0  -0.004127  0  3.922902  0  0  0.004419  0  3.932351  0  0.543598  0  0.015463  -0.009983  0  3.916301  0
C  C73  1  0.07538032  0.35472564  0.13506631  1  0  0.065539  0  3.656293  0  0  -0.004261  0  3.922986  0  0  0.004282  0  3.93244  0  0.544013  0  0.015433  -0.010115  0  3.916379  0
C  C74  1  0.07538355  0.85472523  0.36493369  1  0  0.065475  0  3.656373  0  0  -0.004253  0  3.922928  0  0  0.004281  0  3.932398  0  0.544007  0  0.015455  -0.010109  0  3.916323  0
C  C75  1  0.92461699  0.64527354  0.86493321  1  0  0.065509  0  3.656438  0  0  -0.004227  0  3.923022  0  0  0.00431  0  3.932483  0  0.544012  0  0.015454  -0.010084  0  3.91642  0
C  C76  1  0.71022986  0.87706100  0.67816529  1  0  0.061675  0  3.614827  0  0  -0.008738  0  3.87918  0  0  -0.00042  0  3.888696  0  0.543197  0  0.013569  -0.014395  0  3.872519  0
C  C77  1  0.28976963  0.62293917  0.17816482  1  0  0.061566  0  3.614926  0  0  -0.008862  0  3.879273  0  0  -0.000542  0  3.88879  0  0.543159  0  0.013543  -0.014528  0  3.872632  0
C  C78  1  0.28977292  0.12293818  0.32183518  1  0  0.061646  0  3.614779  0  0  -0.008819  0  3.879198  0  0  -0.000476  0  3.888707  0  0.543143  0  0.013522  -0.014472  0  3.872517  0
C  C79  1  0.71022800  0.37706141  0.82183471  1  0  0.061636  0  3.614829  0  0  -0.008831  0  3.879239  0  0  -0.000505  0  3.888747  0  0.543149  0  0.013535  -0.014487  0  3.872572  0
N  N80  1  0.73445542  0.76223751  0.62138898  1  0  -0.205113  0  3.218992  0  0  -0.107722  0  3.450733  0  0  -0.128964  0  3.475546  0  -0.941916  0  -0.315593  -0.092885  0  3.43323  0
N  N81  1  0.26554029  0.73776407  0.12138945  1  0  -0.205145  0  3.219071  0  0  -0.107749  0  3.450823  0  0  -0.128994  0  3.47564  0  -0.941886  0  -0.315617  -0.092909  0  3.433318  0
N  N82  1  0.26554494  0.23776307  0.37861102  1  0  -0.205101  0  3.219014  0  0  -0.107702  0  3.450741  0  0  -0.128945  0  3.475552  0  -0.941888  0  -0.315581  -0.092863  0  3.433242  0
N  N83  1  0.73445598  0.26223651  0.87861102  1  0  -0.205067  0  3.218908  0  0  -0.107685  0  3.450689  0  0  -0.128927  0  3.475502  0  -0.941903  0  -0.315547  -0.092846  0  3.433185  0
N  N84  1  0.95525155  0.04040044  0.57808468  1  0  -0.20834  0  3.192664  0  0  -0.139165  0  3.448763  0  0  -0.154355  0  3.467956  0  -0.983101  0  -0.333711  -0.128191  0  3.434983  0
N  N85  1  0.04474864  0.45960196  0.07808563  1  0  -0.208241  0  3.192662  0  0  -0.139042  0  3.448767  0  0  -0.154232  0  3.467962  0  -0.983052  0  -0.333667  -0.128068  0  3.434985  0
N  N86  1  0.04475186  0.95960155  0.42191485  1  0  -0.208219  0  3.192707  0  0  -0.139041  0  3.448803  0  0  -0.154228  0  3.467999  0  -0.983092  0  -0.33368  -0.128068  0  3.435023  0
N  N87  1  0.95524899  0.54039862  0.92191437  1  0  -0.208381  0  3.19278  0  0  -0.139201  0  3.448889  0  0  -0.15439  0  3.468082  0  -0.983036  0  -0.333713  -0.128227  0  3.435112  0
N  N88  1  0.87582780  0.02621732  0.69175870  1  0  -0.21858  0  3.186586  0  0  -0.153459  0  3.45268  0  0  -0.168546  0  3.471145  0  -1.011117  0  -0.334227  -0.142491  0  3.439308  0
N  N89  1  0.12417448  0.47378227  0.19175870  1  0  -0.218545  0  3.186552  0  0  -0.153358  0  3.45264  0  0  -0.16844  0  3.471097  0  -1.011549  0  -0.334202  -0.14239  0  3.439268  0
N  N90  1  0.12417634  0.97378186  0.30824178  1  0  -0.218606  0  3.186583  0  0  -0.153382  0  3.452578  0  0  -0.168466  0  3.471038  0  -1.011584  0  -0.334228  -0.142409  0  3.4392  0
N  N91  1  0.87582588  0.52621832  0.80824130  1  0  -0.218578  0  3.186626  0  0  -0.153369  0  3.452669  0  0  -0.16845  0  3.47113  0  -1.011573  0  -0.334199  -0.1424  0  3.439298  0
Cl  Cl92  1  0.31360475  0.63640786  0.49876760  1  0  -0.476103  0  1.047986  0  0  -0.414024  0  1.344038  0  0  -0.431911  0  1.32275  0  -0.507753  0  -0.248756  -0.401897  0  1.358677  0
Cl  Cl93  1  0.68639538  0.86359513  0.99876760  1  0  -0.476063  0  1.047999  0  0  -0.413993  0  1.344057  0  0  -0.431876  0  1.322771  0  -0.507739  0  -0.248738  -0.401867  0  1.358696  0
Cl  Cl94  1  0.68639698  0.36359272  0.50123288  1  0  -0.476088  0  1.047996  0  0  -0.414004  0  1.344041  0  0  -0.43189  0  1.322755  0  -0.507753  0  -0.248741  -0.401877  0  1.358679  0
Cl  Cl95  1  0.31360426  0.13640827  0.00123240  1  0  -0.476088  0  1.047993  0  0  -0.414005  0  1.344036  0  0  -0.43189  0  1.322749  0  -0.507742  0  -0.248745  -0.401878  0  1.358675  0
Cl  Cl96  1  0.46589164  0.30270727  0.67413711  1  0  -0.44739  0  0.971276  0  0  -0.378648  0  1.236607  0  0  -0.395834  0  1.218735  0  -0.504088  0  -0.23707  -0.367385  0  1.249215  0
Cl  Cl97  1  0.53410824  0.19729372  0.17413758  1  0  -0.447372  0  0.971252  0  0  -0.378636  0  1.236592  0  0  -0.395821  0  1.21872  0  -0.504006  0  -0.237063  -0.367375  0  1.2492  0
Cl  Cl98  1  0.53410977  0.69729190  0.32586289  1  0  -0.447389  0  0.971259  0  0  -0.378638  0  1.236577  0  0  -0.395815  0  1.218697  0  -0.504083  0  -0.237074  -0.367375  0  1.249187  0
Cl  Cl99  1  0.46589108  0.80270827  0.82586289  1  0  -0.447392  0  0.971271  0  0  -0.378648  0  1.2366  0  0  -0.395832  0  1.218728  0  -0.504085  0  -0.237076  -0.367385  0  1.24921  0
O  O100  1  0.26275789  0.71372520  0.66600724  1  0  -0.714553  0  1.950546  0  0  -0.643758  0  2.211189  0  0  -0.668611  0  2.197096  0  -1.414395  0  -0.358989  -0.626026  0  2.220218  0
O  O101  1  0.73724892  0.78626513  0.16600676  1  0  -0.714468  0  1.951307  0  0  -0.643672  0  2.211917  0  0  -0.668525  0  2.197837  0  -1.414662  0  -0.358948  -0.625943  0  2.220946  0
O  O102  1  0.73724761  0.28627398  0.33399229  1  0  -0.714473  0  1.950744  0  0  -0.643693  0  2.211377  0  0  -0.668546  0  2.197285  0  -1.414413  0  -0.358975  -0.625964  0  2.220404  0
O  O103  1  0.26275740  0.21372561  0.83399182  1  0  -0.714573  0  1.950373  0  0  -0.643791  0  2.211004  0  0  -0.668648  0  2.196918  0  -1.414385  0  -0.35902  -0.626061  0  2.220033  0
