# generated using pymatgen
data_Zn3H26(CO)22
_symmetry_space_group_name_H-M   'P 1'
_cell_length_a   8.06413642
_cell_length_b   12.10688316
_cell_length_c   14.20702322
_cell_angle_alpha   90.00006929
_cell_angle_beta   89.99991067
_cell_angle_gamma   90.58833992
_symmetry_Int_Tables_number   1
_chemical_formula_structural   Zn3H26(CO)22
_chemical_formula_sum   'Zn6 H52 C44 O44'
_cell_volume   1386.98067727
_cell_formula_units_Z   2
loop_
 _symmetry_equiv_pos_site_id
 _symmetry_equiv_pos_as_xyz
  1  'x, y, z'
loop_
 _atom_site_type_symbol
 _atom_site_label
 _atom_site_symmetry_multiplicity
 _atom_site_fract_x
 _atom_site_fract_y
 _atom_site_fract_z
 _atom_site_occupancy
 _atom_site_hle17_bader_spin_density
 _atom_site_hle17_ddec_charge
 _atom_site_hle17_ddec_spin_density
 _atom_site_hle17_ddec_sum_bond_order
 _atom_site_hle17_magmom
 _atom_site_hse06_10hf_bader_spin_density
 _atom_site_hse06_10hf_ddec_charge
 _atom_site_hse06_10hf_ddec_spin_density
 _atom_site_hse06_10hf_ddec_sum_bond_order
 _atom_site_hse06_10hf_magmom
 _atom_site_hse06_bader_spin_density
 _atom_site_hse06_ddec_charge
 _atom_site_hse06_ddec_spin_density
 _atom_site_hse06_ddec_sum_bond_order
 _atom_site_hse06_magmom
 _atom_site_pbe_bader_spin_density
 _atom_site_pbe_cm5_charge
 _atom_site_pbe_ddec_charge
 _atom_site_pbe_ddec_spin_density
 _atom_site_pbe_ddec_sum_bond_order
 _atom_site_pbe_magmom
Zn  Zn0  1  0.85023275  0.32515401  0.22262067  1  0  1.201224  0  1.681202  0  0  1.01215  0  2.168379  0  0  1.064355  0  2.100955  0  0  0.699937  0.974996  0  2.215337  0
Zn  Zn1  1  0.64976661  0.17484507  0.72262057  1  0  1.201255  0  1.681176  0  0  1.012175  0  2.168343  0  0  1.064372  0  2.100921  0  0  0.699938  0.975015  0  2.215309  0
Zn  Zn2  1  0.14976823  0.67484601  0.77737918  1  0  1.201253  0  1.681182  0  0  1.012183  0  2.168365  0  0  1.064382  0  2.100938  0  0  0.699945  0.975021  0  2.215328  0
Zn  Zn3  1  0.35023312  0.82515412  0.27737928  1  0  1.20124  0  1.681158  0  0  1.012169  0  2.168331  0  0  1.064369  0  2.100908  0  0  0.69995  0.97501  0  2.215294  0
Zn  Zn4  1  0.50000049  0.49999960  0.49999992  1  0  1.245139  0  1.643806  0  0  1.098389  0  2.084743  0  0  1.14182  0  2.025343  0  0  0.677731  1.067626  0  2.125783  0
Zn  Zn5  1  0.00000000  0.00000000  0.00000000  1  0  1.24518  0  1.643767  0  0  1.098444  0  2.084695  0  0  1.141874  0  2.025294  0  0  0.677758  1.06768  0  2.125761  0
H  H6  1  0.95489074  0.44803051  0.33750049  1  0  0.417492  0  0.890764  0  0  0.385048  0  0.955899  0  0  0.396975  0  0.938495  0  0  0.292214  0.376607  0  0.968207  0
H  H7  1  0.54511203  0.05196874  0.83750176  1  0  0.417528  0  0.890707  0  0  0.385102  0  0.955838  0  0  0.397033  0  0.938427  0  0  0.292211  0.376659  0  0.968148  0
H  H8  1  0.04511023  0.55196868  0.66249865  1  0  0.417523  0  0.890712  0  0  0.385086  0  0.955845  0  0  0.397015  0  0.938439  0  0  0.292224  0.376643  0  0.968159  0
H  H9  1  0.45488895  0.94803128  0.16249879  1  0  0.417476  0  0.890783  0  0  0.385039  0  0.95591  0  0  0.396966  0  0.938507  0  0  0.292207  0.376596  0  0.968221  0
H  H10  1  0.98842089  0.53631866  0.25286773  1  0  0.437641  0  0.864182  0  0  0.404924  0  0.929465  0  0  0.416759  0  0.912607  0  0  0.291906  0.396564  0  0.941342  0
H  H11  1  0.51157876  0.96367977  0.75286875  1  0  0.43764  0  0.864181  0  0  0.404929  0  0.929456  0  0  0.416765  0  0.912597  0  0  0.291915  0.396572  0  0.941326  0
H  H12  1  0.01157761  0.46368135  0.74713141  1  0  0.437631  0  0.864197  0  0  0.404917  0  0.929476  0  0  0.416752  0  0.912618  0  0  0.291913  0.396559  0  0.941347  0
H  H13  1  0.48841973  0.03631941  0.24713109  1  0  0.437628  0  0.86421  0  0  0.404918  0  0.929482  0  0  0.416753  0  0.912622  0  0  0.291898  0.396558  0  0.941355  0
H  H14  1  0.45876110  0.54323902  0.68973429  1  0  0.440387  0  0.844473  0  0  0.409256  0  0.907476  0  0  0.419656  0  0.892322  0  0  0.300528  0.401867  0  0.918235  0
H  H15  1  0.04123923  0.95675933  0.18973480  1  0  0.440377  0  0.844406  0  0  0.409315  0  0.907398  0  0  0.419719  0  0.892234  0  0  0.300557  0.40193  0  0.918154  0
H  H16  1  0.54123739  0.45676017  0.31026555  1  0  0.440376  0  0.844466  0  0  0.409272  0  0.907472  0  0  0.419677  0  0.892307  0  0  0.300525  0.401881  0  0.918239  0
H  H17  1  0.95876050  0.04323986  0.81026575  1  0  0.440386  0  0.844403  0  0  0.409322  0  0.90739  0  0  0.419724  0  0.892227  0  0  0.30055  0.401933  0  0.91815  0
H  H18  1  0.51979409  0.41903294  0.66749520  1  0  0.439935  0  0.837222  0  0  0.411078  0  0.901786  0  0  0.421412  0  0.886456  0  0  0.307002  0.40373  0  0.912694  0
H  H19  1  0.98020541  0.08096523  0.16749564  1  0  0.439938  0  0.83719  0  0  0.411078  0  0.901776  0  0  0.42141  0  0.88645  0  0  0.307001  0.403732  0  0.912679  0
H  H20  1  0.48020564  0.58096625  0.33250465  1  0  0.439934  0  0.837256  0  0  0.411066  0  0.901794  0  0  0.421395  0  0.886474  0  0  0.307011  0.403721  0  0.912695  0
H  H21  1  0.01979557  0.91903479  0.83250491  1  0  0.439908  0  0.837285  0  0  0.411037  0  0.901836  0  0  0.421365  0  0.886517  0  0  0.306985  0.403692  0  0.912737  0
H  H22  1  0.16856906  0.44782478  0.45947431  1  0  0.429691  0  0.86622  0  0  0.399531  0  0.927044  0  0  0.409552  0  0.912451  0  0  0.294908  0.392451  0  0.937355  0
H  H23  1  0.33143017  0.05217463  0.95947392  1  0  0.429678  0  0.866239  0  0  0.399526  0  0.927053  0  0  0.409544  0  0.912464  0  0  0.294909  0.392446  0  0.937362  0
H  H24  1  0.83143067  0.55217441  0.54052553  1  0  0.429703  0  0.866202  0  0  0.399541  0  0.927029  0  0  0.409561  0  0.912437  0  0  0.294921  0.392464  0  0.937334  0
H  H25  1  0.66856957  0.94782456  0.04052592  1  0  0.429681  0  0.866233  0  0  0.399528  0  0.927049  0  0  0.409548  0  0.912456  0  0  0.294913  0.392452  0  0.937352  0
H  H26  1  0.17211834  0.56312862  0.50918288  1  0  0.428275  0  0.86441  0  0  0.399607  0  0.923219  0  0  0.409055  0  0.909484  0  0  0.297097  0.392924  0  0.932937  0
H  H27  1  0.32788250  0.93687113  0.00918312  1  0  0.428265  0  0.864422  0  0  0.39961  0  0.92321  0  0  0.409059  0  0.909474  0  0  0.297102  0.39293  0  0.932922  0
H  H28  1  0.82788264  0.43687140  0.49081696  1  0  0.428273  0  0.864411  0  0  0.399609  0  0.923215  0  0  0.409058  0  0.909479  0  0  0.297096  0.392923  0  0.932938  0
H  H29  1  0.67211722  0.06312723  0.99081673  1  0  0.428282  0  0.8644  0  0  0.399628  0  0.923187  0  0  0.409077  0  0.909452  0  0  0.297109  0.392945  0  0.932906  0
H  H30  1  0.08168637  0.29323551  0.58254157  1  0  0.119816  0  0.963577  0  0  0.127936  0  1.028246  0  0  0.132056  0  1.025286  0  0  0.107643  0.124961  0  1.030492  0
H  H31  1  0.41831141  0.20676420  0.08254149  1  0  0.119824  0  0.963561  0  0  0.127948  0  1.028232  0  0  0.132065  0  1.025269  0  0  0.10764  0.12497  0  1.030482  0
H  H32  1  0.91831212  0.70676368  0.41745827  1  0  0.119862  0  0.963536  0  0  0.127986  0  1.028215  0  0  0.132102  0  1.02525  0  0  0.107659  0.125008  0  1.030461  0
H  H33  1  0.58168708  0.79323499  0.91745906  1  0  0.119857  0  0.963544  0  0  0.127982  0  1.028213  0  0  0.132099  0  1.025249  0  0  0.107657  0.125003  0  1.030456  0
H  H34  1  0.31160670  0.97915187  0.63295844  1  0  0.142109  0  0.974929  0  0  0.149168  0  1.040673  0  0  0.153888  0  1.036912  0  0  0.112688  0.145778  0  1.043514  0
H  H35  1  0.18839630  0.52084889  0.13295766  1  0  0.142131  0  0.974931  0  0  0.149171  0  1.040699  0  0  0.15389  0  1.036935  0  0  0.112695  0.145779  0  1.043548  0
H  H36  1  0.68839304  0.02084732  0.36704352  1  0  0.142119  0  0.974952  0  0  0.149181  0  1.040687  0  0  0.1539  0  1.036925  0  0  0.112694  0.145786  0  1.043536  0
H  H37  1  0.81160592  0.47915113  0.86704148  1  0  0.14209  0  0.974936  0  0  0.149149  0  1.040688  0  0  0.153867  0  1.036925  0  0  0.112679  0.145755  0  1.043531  0
H  H38  1  0.13348277  0.06200202  0.35420155  1  0  0.133881  0  0.938923  0  0  0.143477  0  1.000197  0  0  0.147812  0  0.997396  0  0  0.112223  0.140353  0  1.00235  0
H  H39  1  0.36651675  0.43799807  0.85420082  1  0  0.133876  0  0.93891  0  0  0.143469  0  1.000189  0  0  0.147804  0  0.997388  0  0  0.112221  0.140346  0  1.002337  0
H  H40  1  0.86651821  0.93799800  0.64579900  1  0  0.133868  0  0.938925  0  0  0.143443  0  1.000226  0  0  0.147778  0  0.997427  0  0  0.112226  0.140319  0  1.002375  0
H  H41  1  0.63348297  0.56200029  0.14579832  1  0  0.133884  0  0.938926  0  0  0.143469  0  1.00021  0  0  0.147805  0  0.997407  0  0  0.112223  0.140347  0  1.002362  0
H  H42  1  0.21604468  0.32622993  0.71713271  1  0  0.102936  0  0.930471  0  0  0.111522  0  0.996583  0  0  0.11344  0  0.994865  0  0  0.113146  0.110152  0  0.997872  0
H  H43  1  0.28395401  0.17377327  0.21713271  1  0  0.102915  0  0.930503  0  0  0.111528  0  0.996587  0  0  0.113447  0  0.994869  0  0  0.113152  0.110155  0  0.997873  0
H  H44  1  0.78395261  0.67377338  0.28286573  1  0  0.10291  0  0.930483  0  0  0.111521  0  0.996578  0  0  0.113445  0  0.994859  0  0  0.113164  0.11015  0  0.997863  0
H  H45  1  0.71604450  0.82622757  0.78286784  1  0  0.102913  0  0.930516  0  0  0.11154  0  0.996587  0  0  0.113459  0  0.99487  0  0  0.113149  0.110168  0  0.997872  0
H  H46  1  0.19854015  0.25285157  0.82542630  1  0  0.103328  0  0.942464  0  0  0.114161  0  1.005512  0  0  0.115254  0  1.00546  0  0  0.116197  0.113337  0  1.005735  0
H  H47  1  0.30145950  0.24715262  0.32542636  1  0  0.103388  0  0.942422  0  0  0.114214  0  1.005485  0  0  0.115309  0  1.005429  0  0  0.116192  0.113388  0  1.005706  0
H  H48  1  0.80145840  0.74715258  0.17457284  1  0  0.103342  0  0.942407  0  0  0.114162  0  1.005488  0  0  0.115259  0  1.005437  0  0  0.116182  0.113335  0  1.005712  0
H  H49  1  0.69854027  0.75284988  0.67457419  1  0  0.103388  0  0.942454  0  0  0.114225  0  1.005503  0  0  0.115319  0  1.005451  0  0  0.116216  0.113397  0  1.005726  0
H  H50  1  0.29044227  0.81930831  0.57025768  1  0  0.104028  0  0.940962  0  0  0.113245  0  1.005519  0  0  0.114798  0  1.004737  0  0  0.114647  0.112072  0  1.00625  0
H  H51  1  0.20955963  0.68069070  0.07025776  1  0  0.104076  0  0.940928  0  0  0.113302  0  1.005475  0  0  0.114857  0  1.004693  0  0  0.114677  0.112131  0  1.006205  0
H  H52  1  0.70955870  0.18069088  0.42974286  1  0  0.104019  0  0.940949  0  0  0.113243  0  1.00552  0  0  0.114797  0  1.004737  0  0  0.114651  0.11207  0  1.006254  0
H  H53  1  0.79044133  0.31930767  0.92974208  1  0  0.10406  0  0.940938  0  0  0.113289  0  1.00548  0  0  0.114844  0  1.004697  0  0  0.114679  0.11212  0  1.006206  0
H  H54  1  0.48456462  0.88397262  0.54751747  1  0  0.092031  0  0.946609  0  0  0.101266  0  1.013716  0  0  0.102256  0  1.014035  0  0  0.110703  0.100525  0  1.013605  0
H  H55  1  0.01543611  0.61602635  0.04751765  1  0  0.09204  0  0.946601  0  0  0.101286  0  1.013715  0  0  0.102278  0  1.014033  0  0  0.1107  0.100548  0  1.013599  0
H  H56  1  0.51543511  0.11602657  0.45248308  1  0  0.092016  0  0.946608  0  0  0.10126  0  1.013726  0  0  0.102251  0  1.014045  0  0  0.110701  0.10052  0  1.013618  0
H  H57  1  0.98456486  0.38397284  0.95248219  1  0  0.092013  0  0.946596  0  0  0.101249  0  1.013725  0  0  0.10224  0  1.014043  0  0  0.110678  0.100507  0  1.013614  0
C  C58  1  0.09889451  0.18436483  0.46377771  1  0  -0.030996  0  3.804459  0  0  -0.009863  0  4.050033  0  0  -0.013686  0  4.071252  0  0  -0.023104  -0.007324  0  4.035671  0
C  C59  1  0.40110594  0.31563459  0.96377683  1  0  -0.03094  0  3.804308  0  0  -0.009868  0  4.049969  0  0  -0.013692  0  4.071185  0  0  -0.023108  -0.007336  0  4.035614  0
C  C60  1  0.90110398  0.81563436  0.53622354  1  0  -0.031066  0  3.804499  0  0  -0.009931  0  4.050087  0  0  -0.013754  0  4.071305  0  0  -0.023191  -0.00739  0  4.035722  0
C  C61  1  0.59889627  0.68436460  0.03622302  1  0  -0.031037  0  3.804435  0  0  -0.009908  0  4.050011  0  0  -0.013731  0  4.071226  0  0  -0.023155  -0.007366  0  4.03565  0
C  C62  1  0.12388915  0.21313285  0.55837741  1  0  -0.217402  0  3.721188  0  0  -0.256487  0  3.980782  0  0  -0.260777  0  3.999053  0  0  -0.114383  -0.253604  0  3.968618  0
C  C63  1  0.37610995  0.28686765  0.05837745  1  0  -0.217483  0  3.721143  0  0  -0.256557  0  3.980776  0  0  -0.260841  0  3.999043  0  0  -0.114408  -0.253661  0  3.968605  0
C  C64  1  0.87610936  0.78686716  0.44162244  1  0  -0.217478  0  3.721183  0  0  -0.25659  0  3.980816  0  0  -0.26087  0  3.999072  0  0  -0.114396  -0.253693  0  3.968638  0
C  C65  1  0.62388978  0.71313154  0.94162240  1  0  -0.217469  0  3.721094  0  0  -0.256589  0  3.980699  0  0  -0.260871  0  3.998963  0  0  -0.114416  -0.253689  0  3.968509  0
C  C66  1  0.19938479  0.13722881  0.61801122  1  0  0.302063  0  3.812147  0  0  0.296828  0  4.073606  0  0  0.308517  0  4.0888  0  0  0.083737  0.288696  0  4.063359  0
C  C67  1  0.30061539  0.36277178  0.11801070  1  0  0.302127  0  3.81217  0  0  0.296859  0  4.073645  0  0  0.308557  0  4.088832  0  0  0.083738  0.28872  0  4.063408  0
C  C68  1  0.80061495  0.86277121  0.38198933  1  0  0.302129  0  3.812262  0  0  0.296872  0  4.073736  0  0  0.308576  0  4.08892  0  0  0.083768  0.288731  0  4.0635  0
C  C69  1  0.69938559  0.63722824  0.88198914  1  0  0.302087  0  3.812221  0  0  0.296909  0  4.073608  0  0  0.308592  0  4.088796  0  0  0.083777  0.288766  0  4.063372  0
C  C70  1  0.25647961  0.03625727  0.58324242  1  0  -0.292812  0  3.677839  0  0  -0.325504  0  3.933873  0  0  -0.332316  0  3.949527  0  0  -0.113553  -0.320827  0  3.923464  0
C  C71  1  0.24352192  0.46374492  0.08324276  1  0  -0.292825  0  3.677929  0  0  -0.325472  0  3.933921  0  0  -0.332296  0  3.949604  0  0  -0.113533  -0.320796  0  3.923523  0
C  C72  1  0.74352014  0.96374357  0.41675813  1  0  -0.292798  0  3.677886  0  0  -0.325478  0  3.93388  0  0  -0.332305  0  3.949567  0  0  -0.113537  -0.320795  0  3.923476  0
C  C73  1  0.75648031  0.53625592  0.91675708  1  0  -0.292782  0  3.67788  0  0  -0.325488  0  3.933839  0  0  -0.332319  0  3.949543  0  0  -0.113555  -0.320799  0  3.923432  0
C  C74  1  0.23721373  0.01156810  0.48784735  1  0  0.290711  0  3.805736  0  0  0.286378  0  4.065385  0  0  0.29722  0  4.081545  0  0  0.080564  0.27885  0  4.054436  0
C  C75  1  0.26278914  0.48843219  0.98784606  1  0  0.290658  0  3.805934  0  0  0.286317  0  4.065574  0  0  0.297157  0  4.081732  0  0  0.080537  0.278789  0  4.054618  0
C  C76  1  0.76278725  0.98843192  0.51215461  1  0  0.290665  0  3.805745  0  0  0.28636  0  4.065362  0  0  0.2972  0  4.08152  0  0  0.080549  0.278833  0  4.054406  0
C  C77  1  0.73721183  0.51156700  0.01215308  1  0  0.290707  0  3.805806  0  0  0.28642  0  4.065384  0  0  0.297259  0  4.08154  0  0  0.08058  0.27888  0  4.054449  0
C  C78  1  0.15404431  0.08378280  0.42757442  1  0  -0.201977  0  3.700719  0  0  -0.23959  0  3.959881  0  0  -0.243744  0  3.977963  0  0  -0.104572  -0.236752  0  3.947819  0
C  C79  1  0.34595624  0.41621658  0.92757439  1  0  -0.201963  0  3.700737  0  0  -0.239555  0  3.959919  0  0  -0.243707  0  3.977999  0  0  -0.104564  -0.23671  0  3.947843  0
C  C80  1  0.84595665  0.91621557  0.57242613  1  0  -0.201916  0  3.700828  0  0  -0.239516  0  3.959972  0  0  -0.243669  0  3.978056  0  0  -0.104536  -0.236672  0  3.947897  0
C  C81  1  0.65404474  0.58378344  0.07242475  1  0  -0.20198  0  3.700892  0  0  -0.239588  0  3.960016  0  0  -0.243739  0  3.978096  0  0  -0.104567  -0.236752  0  3.947959  0
C  C82  1  0.01115906  0.26434274  0.40141920  1  0  0.661729  0  3.864392  0  0  0.605795  0  4.158449  0  0  0.639755  0  4.150732  0  0  0.220834  0.582779  0  4.16292  0
C  C83  1  0.48884033  0.23565659  0.90141956  1  0  0.661734  0  3.864172  0  0  0.60582  0  4.158226  0  0  0.639779  0  4.150511  0  0  0.22088  0.582801  0  4.162707  0
C  C84  1  0.98884068  0.73565727  0.59858135  1  0  0.661771  0  3.864313  0  0  0.605827  0  4.158372  0  0  0.639785  0  4.150659  0  0  0.220859  0.582803  0  4.162856  0
C  C85  1  0.51115940  0.76434177  0.09858099  1  0  0.661727  0  3.864305  0  0  0.605804  0  4.158354  0  0  0.639764  0  4.150637  0  0  0.220865  0.582774  0  4.162843  0
C  C86  1  0.16117427  0.25281657  0.75119331  1  0  -0.088752  0  3.640189  0  0  -0.143565  0  3.899337  0  0  -0.141104  0  3.901355  0  0  -0.070154  -0.145353  0  3.89807  0
C  C87  1  0.33882556  0.24718586  0.25119264  1  0  -0.088867  0  3.640267  0  0  -0.143689  0  3.899443  0  0  -0.141215  0  3.901464  0  0  -0.070194  -0.145474  0  3.898161  0
C  C88  1  0.83882549  0.74718510  0.24880583  1  0  -0.088679  0  3.640047  0  0  -0.143529  0  3.899244  0  0  -0.141069  0  3.901294  0  0  -0.070122  -0.145315  0  3.897964  0
C  C89  1  0.66117419  0.75281498  0.74880720  1  0  -0.088886  0  3.640376  0  0  -0.143768  0  3.899551  0  0  -0.141312  0  3.901575  0  0  -0.070221  -0.145556  0  3.898276  0
C  C90  1  0.97273869  0.25947974  0.74993161  1  0  0.669879  0  3.868261  0  0  0.61214  0  4.178999  0  0  0.645185  0  4.172504  0  0  0.213226  0.589684  0  4.182691  0
C  C91  1  0.52725940  0.24052351  0.24992980  1  0  0.669985  0  3.868123  0  0  0.612133  0  4.179038  0  0  0.64517  0  4.172559  0  0  0.213226  0.589697  0  4.182703  0
C  C92  1  0.02726107  0.74052193  0.25006753  1  0  0.669893  0  3.868303  0  0  0.612087  0  4.179159  0  0  0.645124  0  4.17268  0  0  0.213198  0.589648  0  4.182827  0
C  C93  1  0.47274033  0.75947568  0.75007005  1  0  0.669998  0  3.868301  0  0  0.612317  0  4.178956  0  0  0.645356  0  4.172473  0  0  0.21329  0.589868  0  4.182641  0
C  C94  1  0.37691691  0.84351701  0.51388202  1  0  -0.092219  0  3.657414  0  0  -0.149446  0  3.919772  0  0  -0.147004  0  3.921286  0  0  -0.073067  -0.151089  0  3.918633  0
C  C95  1  0.12308391  0.65648192  0.01388215  1  0  -0.092258  0  3.657476  0  0  -0.149584  0  3.919855  0  0  -0.147139  0  3.921365  0  0  -0.073073  -0.151226  0  3.918719  0
C  C96  1  0.62308282  0.15648218  0.48611853  1  0  -0.09216  0  3.657387  0  0  -0.149442  0  3.919819  0  0  -0.147001  0  3.921333  0  0  -0.073052  -0.151087  0  3.918682  0
C  C97  1  0.87691706  0.34351727  0.98611770  1  0  -0.092219  0  3.657434  0  0  -0.149539  0  3.91984  0  0  -0.147094  0  3.921348  0  0  -0.073092  -0.151178  0  3.918696  0
C  C98  1  0.43736765  0.74001762  0.46653775  1  0  0.712492  0  3.825372  0  0  0.65622  0  4.12526  0  0  0.690122  0  4.119131  0  0  0.227019  0.633039  0  4.128779  0
C  C99  1  0.06263315  0.75998029  0.96653993  1  0  0.712447  0  3.825482  0  0  0.656345  0  4.125106  0  0  0.690245  0  4.118977  0  0  0.227099  0.633166  0  4.128623  0
C  C100  1  0.56263209  0.25998240  0.53346139  1  0  0.712434  0  3.825404  0  0  0.65618  0  4.125283  0  0  0.690081  0  4.119155  0  0  0.227008  0.633009  0  4.128791  0
C  C101  1  0.93736658  0.24001890  0.03345992  1  0  0.712465  0  3.825316  0  0  0.65634  0  4.124982  0  0  0.690245  0  4.118849  0  0  0.227123  0.633161  0  4.128507  0
O  O102  1  0.99633989  0.36464069  0.42948310  1  0  -0.670677  0  2.03971  0  0  -0.592973  0  2.244899  0  0  -0.618685  0  2.232803  0  0  -0.310418  -0.575128  0  2.252891  0
O  O103  1  0.50365766  0.13535786  0.92948309  1  0  -0.67067  0  2.039608  0  0  -0.593012  0  2.24484  0  0  -0.618723  0  2.232741  0  0  -0.310461  -0.575164  0  2.252831  0
O  O104  1  0.00366108  0.63535851  0.57051674  1  0  -0.670717  0  2.039687  0  0  -0.592992  0  2.24487  0  0  -0.618704  0  2.232771  0  0  -0.310429  -0.575143  0  2.252863  0
O  O105  1  0.49634083  0.86464051  0.07051746  1  0  -0.670651  0  2.039583  0  0  -0.592984  0  2.244792  0  0  -0.618697  0  2.232697  0  0  -0.310444  -0.575132  0  2.252781  0
O  O106  1  0.95530349  0.22845011  0.32316099  1  0  -0.632168  0  2.050528  0  0  -0.562333  0  2.327169  0  0  -0.589488  0  2.311094  0  0  -0.307765  -0.543444  0  2.337728  0
O  O107  1  0.54469560  0.27154911  0.82316037  1  0  -0.632246  0  2.050443  0  0  -0.562362  0  2.327014  0  0  -0.589518  0  2.31094  0  0  -0.307802  -0.543471  0  2.337579  0
O  O108  1  0.04469624  0.77154908  0.67683886  1  0  -0.63218  0  2.050513  0  0  -0.562334  0  2.327137  0  0  -0.58949  0  2.311066  0  0  -0.307769  -0.543442  0  2.337703  0
O  O109  1  0.45530289  0.72845008  0.17683877  1  0  -0.632173  0  2.050568  0  0  -0.562335  0  2.327197  0  0  -0.589489  0  2.311121  0  0  -0.307771  -0.543445  0  2.337766  0
O  O110  1  0.22458735  0.15330079  0.71238215  1  0  -0.25628  0  2.32762  0  0  -0.191302  0  2.559306  0  0  -0.207061  0  2.55985  0  0  -0.180709  -0.180102  0  2.558638  0
O  O111  1  0.27541134  0.34670158  0.21238163  1  0  -0.256195  0  2.327667  0  0  -0.191175  0  2.559331  0  0  -0.206956  0  2.559891  0  0  -0.18061  -0.179976  0  2.558667  0
O  O112  1  0.77541241  0.84670088  0.28761840  1  0  -0.256292  0  2.327642  0  0  -0.191261  0  2.559307  0  0  -0.207048  0  2.559877  0  0  -0.180699  -0.180063  0  2.558644  0
O  O113  1  0.72458966  0.65330009  0.78761821  1  0  -0.256184  0  2.327687  0  0  -0.191226  0  2.559372  0  0  -0.206971  0  2.559912  0  0  -0.180659  -0.180026  0  2.558706  0
O  O114  1  0.90587414  0.35207373  0.75921794  1  0  -0.600778  0  1.979166  0  0  -0.544841  0  2.20447  0  0  -0.569847  0  2.194442  0  0  -0.301424  -0.527373  0  2.210894  0
O  O115  1  0.59412514  0.14792788  0.25921597  1  0  -0.600842  0  1.978992  0  0  -0.54488  0  2.204355  0  0  -0.569879  0  2.194332  0  0  -0.301439  -0.527417  0  2.210768  0
O  O116  1  0.09412313  0.64792711  0.24078191  1  0  -0.600867  0  1.979234  0  0  -0.544878  0  2.204539  0  0  -0.569884  0  2.194529  0  0  -0.30143  -0.527414  0  2.210955  0
O  O117  1  0.40587334  0.85207048  0.74078387  1  0  -0.600835  0  1.979114  0  0  -0.544934  0  2.204408  0  0  -0.569938  0  2.194386  0  0  -0.30146  -0.527468  0  2.210829  0
O  O118  1  0.89271675  0.16735299  0.74158502  1  0  -0.661087  0  2.0978  0  0  -0.578081  0  2.369859  0  0  -0.608445  0  2.353534  0  0  -0.310922  -0.556866  0  2.38055  0
O  O119  1  0.60728137  0.33265025  0.24158323  1  0  -0.66114  0  2.097809  0  0  -0.578076  0  2.369911  0  0  -0.608445  0  2.353597  0  0  -0.310926  -0.55687  0  2.380595  0
O  O120  1  0.10728177  0.83264868  0.25841482  1  0  -0.661072  0  2.097843  0  0  -0.578043  0  2.369936  0  0  -0.608405  0  2.353617  0  0  -0.310914  -0.556835  0  2.38062  0
O  O121  1  0.39271836  0.66734894  0.75841732  1  0  -0.66116  0  2.097872  0  0  -0.578144  0  2.369874  0  0  -0.608512  0  2.35356  0  0  -0.310945  -0.556935  0  2.380564  0
O  O122  1  0.29891575  0.91614701  0.44866294  1  0  -0.289768  0  2.357802  0  0  -0.215438  0  2.599442  0  0  -0.2337  0  2.601133  0  0  -0.178971  -0.202541  0  2.597968  0
O  O123  1  0.20108513  0.58385253  0.94866270  1  0  -0.289743  0  2.357854  0  0  -0.215397  0  2.599514  0  0  -0.23366  0  2.601206  0  0  -0.178981  -0.202499  0  2.598036  0
O  O124  1  0.70108399  0.08385300  0.55133761  1  0  -0.289776  0  2.357821  0  0  -0.215442  0  2.599474  0  0  -0.233702  0  2.601166  0  0  -0.178998  -0.202546  0  2.597998  0
O  O125  1  0.79891585  0.41614666  0.05133715  1  0  -0.289764  0  2.357805  0  0  -0.215436  0  2.599446  0  0  -0.233696  0  2.601134  0  0  -0.178975  -0.202538  0  2.597974  0
O  O126  1  0.42583907  0.72703837  0.37748883  1  0  -0.650578  0  2.115689  0  0  -0.565254  0  2.388774  0  0  -0.595689  0  2.371272  0  0  -0.302068  -0.544102  0  2.400475  0
O  O127  1  0.07416323  0.77296025  0.87748890  1  0  -0.65063  0  2.115618  0  0  -0.565352  0  2.388622  0  0  -0.595782  0  2.371114  0  0  -0.302168  -0.5442  0  2.400323  0
O  O128  1  0.57416067  0.27296165  0.62251101  1  0  -0.650597  0  2.115661  0  0  -0.565256  0  2.388732  0  0  -0.59569  0  2.371227  0  0  -0.302075  -0.544104  0  2.400431  0
O  O129  1  0.92583774  0.22703894  0.12251094  1  0  -0.650609  0  2.115558  0  0  -0.565324  0  2.388578  0  0  -0.595771  0  2.371082  0  0  -0.302148  -0.54418  0  2.400292  0
O  O130  1  0.49712033  0.66996666  0.52242484  1  0  -0.626552  0  2.008084  0  0  -0.559199  0  2.260032  0  0  -0.588382  0  2.250343  0  0  -0.307066  -0.538858  0  2.266106  0
O  O131  1  0.00288172  0.83003311  0.02242525  1  0  -0.626495  0  2.008145  0  0  -0.559203  0  2.260016  0  0  -0.588385  0  2.250328  0  0  -0.307057  -0.538865  0  2.266097  0
O  O132  1  0.50288065  0.33003336  0.47757501  1  0  -0.626522  0  2.008113  0  0  -0.559176  0  2.260058  0  0  -0.588359  0  2.25037  0  0  -0.307064  -0.538841  0  2.266136  0
O  O133  1  0.99711925  0.16996608  0.97757460  1  0  -0.626533  0  2.008087  0  0  -0.559222  0  2.259955  0  0  -0.588404  0  2.250264  0  0  -0.307087  -0.53888  0  2.266039  0
O  O134  1  0.91658342  0.47163137  0.27367575  1  0  -0.858476  0  1.934216  0  0  -0.786832  0  2.169107  0  0  -0.81082  0  2.127214  0  0  -0.58161  -0.769868  0  2.19821  0
O  O135  1  0.58341704  0.02836779  0.77367626  1  0  -0.858532  0  1.934167  0  0  -0.786913  0  2.168998  0  0  -0.810903  0  2.127097  0  0  -0.581619  -0.769953  0  2.1981  0
O  O136  1  0.08341632  0.52836865  0.72632339  1  0  -0.8585  0  1.934129  0  0  -0.786893  0  2.169038  0  0  -0.810872  0  2.127115  0  0  -0.58163  -0.769926  0  2.19814  0
O  O137  1  0.41658269  0.97163140  0.22632359  1  0  -0.858476  0  1.934263  0  0  -0.786835  0  2.169147  0  0  -0.810823  0  2.127251  0  0  -0.581605  -0.769871  0  2.19825  0
O  O138  1  0.45030880  0.48014974  0.64601293  1  0  -0.83993  0  1.900938  0  0  -0.782734  0  2.108178  0  0  -0.803185  0  2.0722  0  0  -0.573302  -0.768285  0  2.133252  0
O  O139  1  0.04969127  0.01984841  0.14601298  1  0  -0.839939  0  1.900825  0  0  -0.782811  0  2.10804  0  0  -0.803259  0  2.072061  0  0  -0.573328  -0.768361  0  2.133111  0
O  O140  1  0.54969093  0.51984862  0.35398621  1  0  -0.839919  0  1.900964  0  0  -0.782733  0  2.108164  0  0  -0.80318  0  2.072186  0  0  -0.5733  -0.768282  0  2.133237  0
O  O141  1  0.95030846  0.98015078  0.85398686  1  0  -0.839905  0  1.900901  0  0  -0.782766  0  2.108129  0  0  -0.803213  0  2.072155  0  0  -0.573302  -0.768317  0  2.133202  0
O  O142  1  0.23987884  0.51367824  0.47024082  1  0  -0.841735  0  1.878444  0  0  -0.785475  0  2.071644  0  0  -0.805026  0  2.037897  0  0  -0.582006  -0.771659  0  2.095028  0
O  O143  1  0.26012073  0.98632133  0.97024094  1  0  -0.841728  0  1.878493  0  0  -0.785467  0  2.071663  0  0  -0.805017  0  2.037918  0  0  -0.582002  -0.77165  0  2.095037  0
O  O144  1  0.76012090  0.48632178  0.52975903  1  0  -0.841742  0  1.878445  0  0  -0.78548  0  2.071641  0  0  -0.805031  0  2.037895  0  0  -0.58201  -0.771662  0  2.095022  0
O  O145  1  0.73987900  0.01367786  0.02975890  1  0  -0.841736  0  1.878473  0  0  -0.785474  0  2.07164  0  0  -0.805024  0  2.037894  0  0  -0.582002  -0.771658  0  2.09502  0
