# generated using pymatgen
data_CdH32C28N12(ClO2)2
_symmetry_space_group_name_H-M   'P 1'
_cell_length_a   8.33188492
_cell_length_b   15.45680803
_cell_length_c   16.83945489
_cell_angle_alpha   71.18359464
_cell_angle_beta   75.74230129
_cell_angle_gamma   74.36093720
_symmetry_Int_Tables_number   1
_chemical_formula_structural   CdH32C28N12(ClO2)2
_chemical_formula_sum   'Cd2 H64 C56 N24 Cl4 O8'
_cell_volume   1946.32800943
_cell_formula_units_Z   2
loop_
 _symmetry_equiv_pos_site_id
 _symmetry_equiv_pos_as_xyz
  1  'x, y, z'
loop_
 _atom_site_type_symbol
 _atom_site_label
 _atom_site_symmetry_multiplicity
 _atom_site_fract_x
 _atom_site_fract_y
 _atom_site_fract_z
 _atom_site_occupancy
 _atom_site_pbe_bader_charge
 _atom_site_pbe_bader_spin_density
 _atom_site_pbe_cm5_charge
 _atom_site_pbe_ddec_charge
 _atom_site_pbe_ddec_spin_density
 _atom_site_pbe_ddec_sum_bond_order
 _atom_site_pbe_magmom
Cd  Cd0  1  0.49999693  0.99999900  0.49999893  1  1.174557  0  0.677804  0.699085  0  2.394536  0
Cd  Cd1  1  0.00000061  0.49999879  0.00000009  1  1.176045  0  0.676963  0.698072  0  2.395113  0
H  H2  1  0.26766878  0.22356576  0.09622253  1  0.487914  0  0.272651  0.262412  0  1.04021  0
H  H3  1  0.58831579  0.27647442  0.40388031  1  0.492188  0  0.272551  0.263433  0  1.040354  0
H  H4  1  0.73231977  0.77643903  0.90377838  1  0.487917  0  0.272697  0.262472  0  1.040181  0
H  H5  1  0.41169136  0.72352338  0.59612242  1  0.492389  0  0.272548  0.263453  0  1.040286  0
H  H6  1  0.28158386  0.21016638  0.97035721  1  0.485066  0  0.306968  0.268428  0  0.992514  0
H  H7  1  0.46263062  0.28942713  0.52970510  1  0.505643  0  0.306957  0.269749  0  0.992073  0
H  H8  1  0.71841192  0.78983555  0.02964258  1  0.485074  0  0.306991  0.268437  0  0.992511  0
H  H9  1  0.53736860  0.71056862  0.47029924  1  0.505748  0  0.307006  0.269818  0  0.992039  0
H  H10  1  0.63169234  0.07963306  0.86397788  1  0.520655  0  0.299125  0.274419  0  1.039258  0
H  H11  1  0.57524015  0.42004617  0.63616220  1  0.530046  0  0.29973  0.274973  0  1.039418  0
H  H12  1  0.36831042  0.92036325  0.13602289  1  0.520668  0  0.299142  0.274458  0  1.039193  0
H  H13  1  0.42475185  0.57995243  0.36384268  1  0.530502  0  0.299713  0.274974  0  1.039399  0
H  H14  1  0.81804775  0.16858333  0.84178729  1  0.43976  0  0.327371  0.289765  0  0.918112  0
H  H15  1  0.82871903  0.33118712  0.65866286  1  0.458198  0  0.327458  0.289628  0  0.917236  0
H  H16  1  0.18195829  0.83141077  0.15821142  1  0.439695  0  0.327355  0.289821  0  0.918033  0
H  H17  1  0.17128062  0.66881428  0.34134139  1  0.458177  0  0.327471  0.289573  0  0.917342  0
H  H18  1  0.44211476  0.19481057  0.34377264  1  0.098028  0  0.102545  0.07767  0  1.032666  0
H  H19  1  0.98180369  0.30577045  0.15685638  1  0.118079  0  0.102389  0.076788  0  1.033219  0
H  H20  1  0.55786532  0.80519363  0.65623126  1  0.098321  0  0.102587  0.077646  0  1.032617  0
H  H21  1  0.01819677  0.69422875  0.84314610  1  0.118089  0  0.102366  0.076742  0  1.033256  0
H  H22  1  0.35638396  0.25335572  0.20040997  1  0.136682  0  0.102008  0.128562  0  1.021193  0
H  H23  1  0.81151521  0.24705801  0.30005339  1  0.132354  0  0.102179  0.128083  0  1.020456  0
H  H24  1  0.64358914  0.74665066  0.79959526  1  0.136458  0  0.101945  0.128489  0  1.021198  0
H  H25  1  0.18848896  0.75294120  0.69994924  1  0.132273  0  0.102185  0.128065  0  1.020516  0
H  H26  1  0.23539305  0.98376643  0.24694266  1  0.097095  0  0.105379  0.127263  0  1.037992  0
H  H27  1  0.46650825  0.51639420  0.25328648  1  0.126075  0  0.105883  0.128313  0  1.037683  0
H  H28  1  0.76460926  0.01623464  0.75305364  1  0.097166  0  0.105351  0.127212  0  1.037998  0
H  H29  1  0.53350283  0.48360645  0.74671664  1  0.126654  0  0.105866  0.128309  0  1.037626  0
H  H30  1  0.32677719  0.93781493  0.38584808  1  0.143136  0  0.101522  0.083147  0  1.076642  0
H  H31  1  0.65045269  0.56249693  0.11447928  1  0.148369  0  0.101648  0.08294  0  1.076147  0
H  H32  1  0.67323083  0.06218402  0.61414823  1  0.143073  0  0.101519  0.083126  0  1.07657  0
H  H33  1  0.34956126  0.43750595  0.88552692  1  0.148318  0  0.101626  0.082897  0  1.076136  0
H  H34  1  0.13835265  0.09425322  0.92373674  1  0.039874  0  0.100113  0.074028  0  0.972297  0
H  H35  1  0.15690107  0.40516003  0.57621596  1  0.032941  0  0.099898  0.073456  0  0.972942  0
H  H36  1  0.86165350  0.90574045  0.07626864  1  0.039637  0  0.100103  0.073984  0  0.972283  0
H  H37  1  0.84309255  0.59483073  0.42378712  1  0.032949  0  0.099919  0.073464  0  0.972968  0
H  H38  1  0.32073136  0.01955931  0.96234205  1  0.060473  0  0.108741  0.087839  0  0.97404  0
H  H39  1  0.30279660  0.47994641  0.53797858  1  0.048126  0  0.108661  0.087716  0  0.974035  0
H  H40  1  0.67927597  0.98044137  0.03766210  1  0.060274  0  0.108739  0.087867  0  0.973955  0
H  H41  1  0.69719151  0.52004930  0.46202474  1  0.048053  0  0.108647  0.087739  0  0.974031  0
H  H42  1  0.38798564  0.08613833  0.80705269  1  0.064998  0  0.112914  0.094567  0  0.968345  0
H  H43  1  0.28130869  0.41318232  0.69326226  1  0.038358  0  0.11283  0.094857  0  0.968027  0
H  H44  1  0.61200966  0.91386150  0.19294783  1  0.065003  0  0.112918  0.094549  0  0.968358  0
H  H45  1  0.71868115  0.58681201  0.30674190  1  0.038423  0  0.112811  0.094759  0  0.968063  0
H  H46  1  0.30763079  0.20185349  0.81636388  1  0.063732  0  0.106079  0.074192  0  1.026361  0
H  H47  1  0.32651823  0.29751158  0.68379071  1  0.053828  0  0.106336  0.074444  0  1.026325  0
H  H48  1  0.69237012  0.79814788  0.18363963  1  0.063802  0  0.106112  0.074214  0  1.026333  0
H  H49  1  0.67348153  0.70248270  0.31621227  1  0.053905  0  0.106325  0.074427  0  1.026257  0
H  H50  1  0.04081206  0.24902380  0.81991428  1  0.046775  0  0.097528  0.100806  0  1.055788  0
H  H51  1  0.11050738  0.25093356  0.68037182  1  0.039537  0  0.097921  0.100063  0  1.055486  0
H  H52  1  0.95920580  0.75097181  0.18008668  1  0.0469  0  0.097486  0.100713  0  1.055814  0
H  H53  1  0.88949519  0.74906333  0.31962581  1  0.039446  0  0.097891  0.099982  0  1.055447  0
H  H54  1  0.14557207  0.35511911  0.87003498  1  0.104353  0  0.111158  0.085177  0  1.033569  0
H  H55  1  0.37129649  0.14489493  0.63016570  1  0.122812  0  0.111923  0.086429  0  1.03391  0
H  H56  1  0.85442961  0.64488014  0.12996853  1  0.104394  0  0.111156  0.085144  0  1.033529  0
H  H57  1  0.62870246  0.85510525  0.36982595  1  0.122503  0  0.111941  0.086393  0  1.034152  0
H  H58  1  0.66653084  0.44443939  0.99765360  1  0.079988  0  0.110605  0.083819  0  1.008496  0
H  H59  1  0.10821762  0.05501180  0.50316926  1  0.11722  0  0.110254  0.082863  0  1.009375  0
H  H60  1  0.33346139  0.55555880  0.00234129  1  0.079939  0  0.110566  0.083796  0  1.008481  0
H  H61  1  0.89177192  0.94500085  0.49681650  1  0.11685  0  0.110307  0.082876  0  1.009312  0
H  H62  1  0.54342262  0.33953212  0.95805764  1  0.165205  0  0.094484  0.129081  0  1.078567  0
H  H63  1  0.84078739  0.15994568  0.54278958  1  0.157563  0  0.094418  0.128703  0  1.079151  0
H  H64  1  0.45658353  0.66046179  0.04193637  1  0.16493  0  0.094496  0.129148  0  1.078457  0
H  H65  1  0.15920154  0.84006510  0.45720221  1  0.157301  0  0.09446  0.128808  0  1.079116  0
C  C66  1  0.39502880  0.15054786  0.31962272  1  0.487598  0  0.036432  0.105245  0  3.989335  0
C  C67  1  0.86613923  0.34992844  0.18088099  1  0.458921  0  0.035238  0.10452  0  3.988259  0
C  C68  1  0.60495326  0.84945774  0.68038050  1  0.487789  0  0.036364  0.105243  0  3.989435  0
C  C69  1  0.13386475  0.65007137  0.81911908  1  0.45879  0  0.035263  0.10458  0  3.988409  0
C  C70  1  0.34815140  0.18268391  0.24003886  1  -0.052025  0  -0.099808  -0.241321  0  3.930273  0
C  C71  1  0.77200248  0.31771519  0.26039439  1  -0.059277  0  -0.098868  -0.239661  0  3.92709  0
C  C72  1  0.65183591  0.81732088  0.75996220  1  -0.051566  0  -0.099692  -0.2412  0  3.930288  0
C  C73  1  0.22800120  0.68228540  0.73960725  1  -0.058963  0  -0.098856  -0.239662  0  3.927159  0
C  C74  1  0.29324156  0.12229313  0.20960596  1  0.346009  0  0.117001  0.301394  0  4.020684  0
C  C75  1  0.62604552  0.37798180  0.29069933  1  0.364139  0  0.116912  0.301551  0  4.02015  0
C  C76  1  0.70674722  0.87771101  0.79039632  1  0.345319  0  0.117007  0.301442  0  4.020761  0
C  C77  1  0.37396278  0.62201963  0.70930565  1  0.363916  0  0.116891  0.301677  0  4.020029  0
C  C78  1  0.28185926  0.03285704  0.26454992  1  0.019654  0  -0.105659  -0.241559  0  3.942935  0
C  C79  1  0.57982425  0.46740504  0.23574363  1  0.036168  0  -0.105433  -0.243433  0  3.945146  0
C  C80  1  0.71814575  0.96714337  0.73544747  1  0.019738  0  -0.105721  -0.241644  0  3.943095  0
C  C81  1  0.42018356  0.53259430  0.76426208  1  0.035725  0  -0.105399  -0.243476  0  3.944945  0
C  C82  1  0.33205875  0.00728256  0.34302017  1  0.46901  0  0.033997  0.092804  0  3.988233  0
C  C83  1  0.68272301  0.49304484  0.15732600  1  0.426975  0  0.034103  0.093221  0  3.988715  0
C  C84  1  0.66794103  0.99271859  0.65697819  1  0.468993  0  0.034094  0.092945  0  3.988067  0
C  C85  1  0.31727934  0.50695592  0.84267991  1  0.426821  0  0.034064  0.093246  0  3.988663  0
C  C86  1  0.23997975  0.10168633  0.07894828  1  1.823332  0  0.332691  0.636538  0  4.173543  0
C  C87  1  0.42152846  0.39825915  0.42128038  1  1.82586  0  0.332749  0.635794  0  4.174157  0
C  C88  1  0.76002842  0.89831557  0.92105121  1  1.823308  0  0.33265  0.636476  0  4.173823  0
C  C89  1  0.57847921  0.60174069  0.57872044  1  1.825577  0  0.332755  0.635873  0  4.174013  0
C  C90  1  0.26483100  0.09304601  0.93411755  1  0.328051  0  -0.058845  -0.017239  0  3.929061  0
C  C91  1  0.29239569  0.40644474  0.56606540  1  0.344096  0  -0.058603  -0.015549  0  3.931622  0
C  C92  1  0.73517046  0.90695040  0.06588571  1  0.328421  0  -0.058792  -0.01716  0  3.928897  0
C  C93  1  0.70760059  0.59354889  0.43393880  1  0.344216  0  -0.058631  -0.015598  0  3.931564  0
C  C94  1  0.37232710  0.13168503  0.84804539  1  0.33073  0  -0.057508  -0.026433  0  3.940335  0
C  C95  1  0.35233220  0.36773583  0.65223583  1  0.37905  0  -0.059088  -0.029352  0  3.942932  0
C  C96  1  0.62767757  0.86831278  0.15195763  1  0.330598  0  -0.057574  -0.026471  0  3.940262  0
C  C97  1  0.64766577  0.63225995  0.34776925  1  0.379037  0  -0.059018  -0.029097  0  3.942711  0
C  C98  1  0.55970382  0.21991110  0.86170095  1  1.840034  0  0.32746  0.62118  0  4.205782  0
C  C99  1  0.64163622  0.27963794  0.63893788  1  1.807787  0  0.326684  0.620859  0  4.20465  0
C  C100  1  0.44030570  0.78008369  0.13829713  1  1.84038  0  0.327376  0.621033  0  4.205811  0
C  C101  1  0.35835906  0.72036194  0.36106382  1  1.806235  0  0.326753  0.620865  0  4.204514  0
C  C102  1  0.78251787  0.28447305  0.88449031  1  0.363261  0  0.11279  0.297881  0  4.044216  0
C  C103  1  0.95171236  0.21523212  0.61607103  1  0.371791  0  0.113394  0.29799  0  4.046555  0
C  C104  1  0.21749061  0.71552112  0.11550987  1  0.36294  0  0.11283  0.297924  0  4.044067  0
C  C105  1  0.04828522  0.78477522  0.38392321  1  0.371777  0  0.113347  0.298011  0  4.046392  0
C  C106  1  0.95356789  0.29150567  0.85941806  1  -0.030033  0  -0.110854  -0.267413  0  3.987902  0
C  C107  1  0.10494344  0.20834087  0.64098252  1  -0.026365  0  -0.111082  -0.265043  0  3.98412  0
C  C108  1  0.04644059  0.70849198  0.14058099  1  -0.03022  0  -0.110786  -0.267217  0  3.987672  0
C  C109  1  0.89505693  0.79166221  0.35901099  1  -0.025691  0  -0.11101  -0.264874  0  3.983837  0
C  C110  1  0.01207944  0.35112636  0.88701256  1  0.455772  0  0.036959  0.10151  0  3.989968  0
C  C111  1  0.25059370  0.14874763  0.61334858  1  0.469091  0  0.034959  0.097711  0  3.991881  0
C  C112  1  0.98792929  0.64887059  0.11298669  1  0.45579  0  0.036961  0.101477  0  3.989954  0
C  C113  1  0.74940196  0.85125475  0.38664513  1  0.46973  0  0.034923  0.097696  0  3.992023  0
C  C114  1  0.74630650  0.39984849  0.95816290  1  0.542606  0  0.043278  0.115063  0  3.96413  0
C  C115  1  0.10423549  0.09973013  0.54251466  1  0.457937  0  0.043338  0.115533  0  3.963682  0
C  C116  1  0.25369304  0.60014644  0.04183870  1  0.541867  0  0.043378  0.115115  0  3.964113  0
C  C117  1  0.89575724  0.90028049  0.45747316  1  0.458514  0  0.04325  0.115586  0  3.96365  0
C  C118  1  0.67668751  0.34144648  0.93502687  1  -0.016357  0  -0.097451  -0.228158  0  3.912195  0
C  C119  1  0.95312102  0.15808189  0.56571241  1  0.020226  0  -0.097966  -0.228593  0  3.914735  0
C  C120  1  0.32331639  0.65855369  0.06496478  1  -0.015976  0  -0.097557  -0.228342  0  3.912269  0
C  C121  1  0.04687637  0.84192604  0.43427870  1  0.02009  0  -0.097943  -0.228687  0  3.914563  0
N  N122  1  0.38983712  0.06354182  0.37089737  1  -1.251633  0  -0.344904  -0.262215  0  3.522868  0
N  N123  1  0.82483623  0.43690031  0.12956762  1  -1.258651  0  -0.34447  -0.260984  0  3.521391  0
N  N124  1  0.61016417  0.93645861  0.62910046  1  -1.25168  0  -0.34494  -0.262273  0  3.522906  0
N  N125  1  0.17516886  0.56310317  0.87043589  1  -1.258515  0  -0.344425  -0.260963  0  3.521437  0
N  N126  1  0.25846068  0.15451102  0.12742205  1  -1.272814  0  -0.402781  -0.418244  0  3.53877  0
N  N127  1  0.54130968  0.34559685  0.37275978  1  -1.277802  0  -0.403403  -0.419416  0  3.541479  0
N  N128  1  0.74153306  0.84549309  0.87257965  1  -1.27272  0  -0.402833  -0.418316  0  3.538834  0
N  N129  1  0.45869725  0.65440160  0.62724157  1  -1.277952  0  -0.403368  -0.419496  0  3.541395  0
N  N130  1  0.25300431  0.14524932  0.99410362  1  -1.209354  0  -0.432796  -0.407314  0  3.533085  0
N  N131  1  0.39299182  0.35442702  0.50604228  1  -1.233105  0  -0.432052  -0.408729  0  3.534122  0
N  N132  1  0.74699322  0.85475120  0.00589641  1  -1.209368  0  -0.432842  -0.407365  0  3.533037  0
N  N133  1  0.60701117  0.64556861  0.49395927  1  -1.233051  0  -0.432063  -0.408775  0  3.534073  0
N  N134  1  0.53779646  0.13930701  0.85425395  1  -1.249379  0  -0.440523  -0.422968  0  3.56487  0
N  N135  1  0.53150289  0.36022559  0.64626871  1  -1.263812  0  -0.440583  -0.422137  0  3.562665  0
N  N136  1  0.46220701  0.86068728  0.14574918  1  -1.249242  0  -0.440507  -0.422928  0  3.564616  0
N  N137  1  0.46849186  0.63977228  0.35373549  1  -1.262748  0  -0.440652  -0.422335  0  3.562672  0
N  N138  1  0.72771037  0.22029780  0.86106615  1  -1.228827  0  -0.404699  -0.423558  0  3.531324  0
N  N139  1  0.80936176  0.27938869  0.63948696  1  -1.232343  0  -0.40515  -0.423908  0  3.531889  0
N  N140  1  0.27229769  0.77969762  0.13893011  1  -1.228522  0  -0.404748  -0.423702  0  3.531276  0
N  N141  1  0.19063297  0.72061266  0.36051610  1  -1.232438  0  -0.405182  -0.423856  0  3.531861  0
N  N142  1  0.91081964  0.40506535  0.93596042  1  -1.224575  0  -0.335884  -0.255792  0  3.497203  0
N  N143  1  0.25197174  0.09463891  0.56455934  1  -1.246141  0  -0.334677  -0.254103  0  3.49514  0
N  N144  1  0.08917924  0.59493497  0.06403476  1  -1.223925  0  -0.33592  -0.255795  0  3.49739  0
N  N145  1  0.74802477  0.90537159  0.43542569  1  -1.24676  0  -0.334647  -0.254164  0  3.495381  0
Cl  Cl146  1  0.67304263  0.13428365  0.45298194  1  -0.700425  0  -0.317097  -0.544751  0  1.130474  0
Cl  Cl147  1  0.26038385  0.36578303  0.04718858  1  -0.701127  0  -0.317099  -0.544358  0  1.130816  0
Cl  Cl148  1  0.32695495  0.86571331  0.54701746  1  -0.70045  0  -0.317105  -0.544784  0  1.130505  0
Cl  Cl149  1  0.73962266  0.63421668  0.95280885  1  -0.701195  0  -0.317113  -0.544384  0  1.130817  0
O  O150  1  0.21538656  0.01995937  0.10914510  1  -1.199749  0  -0.324782  -0.566088  0  2.160591  0
O  O151  1  0.34553522  0.48008843  0.39120565  1  -1.199808  0  -0.325246  -0.565981  0  2.159348  0
O  O152  1  0.78462858  0.98004039  0.89085366  1  -1.199784  0  -0.324746  -0.566027  0  2.16069  0
O  O153  1  0.65446446  0.51990946  0.60879914  1  -1.19984  0  -0.325305  -0.566083  0  2.159151  0
O  O154  1  0.44255387  0.28866658  0.86665867  1  -1.189278  0  -0.304583  -0.538479  0  2.180546  0
O  O155  1  0.59846933  0.21073128  0.63414166  1  -1.175604  0  -0.303672  -0.538176  0  2.18014  0
O  O156  1  0.55745907  0.71132896  0.13334053  1  -1.189559  0  -0.304495  -0.538324  0  2.180529  0
O  O157  1  0.40152937  0.78926591  0.36586347  1  -1.175529  0  -0.303694  -0.538158  0  2.180166  0
