# generated using pymatgen
data_ZnH14C12S(NO2)2
_symmetry_space_group_name_H-M   'P 1'
_cell_length_a   9.52907441
_cell_length_b   9.71031372
_cell_length_c   14.80964443
_cell_angle_alpha   97.74981905
_cell_angle_beta   90.00017362
_cell_angle_gamma   90.00038296
_symmetry_Int_Tables_number   1
_chemical_formula_structural   ZnH14C12S(NO2)2
_chemical_formula_sum   'Zn4 H56 C48 S4 N8 O16'
_cell_volume   1357.82462041
_cell_formula_units_Z   4
loop_
 _symmetry_equiv_pos_site_id
 _symmetry_equiv_pos_as_xyz
  1  'x, y, z'
loop_
 _atom_site_type_symbol
 _atom_site_label
 _atom_site_symmetry_multiplicity
 _atom_site_fract_x
 _atom_site_fract_y
 _atom_site_fract_z
 _atom_site_occupancy
 _atom_site_hle17_bader_spin_density
 _atom_site_hle17_ddec_charge
 _atom_site_hle17_ddec_spin_density
 _atom_site_hle17_ddec_sum_bond_order
 _atom_site_hle17_magmom
 _atom_site_hse06_10hf_bader_spin_density
 _atom_site_hse06_10hf_ddec_charge
 _atom_site_hse06_10hf_ddec_spin_density
 _atom_site_hse06_10hf_ddec_sum_bond_order
 _atom_site_hse06_10hf_magmom
 _atom_site_hse06_bader_spin_density
 _atom_site_hse06_ddec_charge
 _atom_site_hse06_ddec_spin_density
 _atom_site_hse06_ddec_sum_bond_order
 _atom_site_hse06_magmom
 _atom_site_pbe_bader_spin_density
 _atom_site_pbe_cm5_charge
 _atom_site_pbe_ddec_charge
 _atom_site_pbe_ddec_spin_density
 _atom_site_pbe_ddec_sum_bond_order
 _atom_site_pbe_magmom
Zn  Zn0  1  0.67048670  0.34313754  0.73392836  1  0  1.035982  0  1.849129  0  0  0.844383  0  2.326638  0  0  0.887655  0  2.27324  0  0  0.722317  0.813963  0  2.364042  0
Zn  Zn1  1  0.17048677  0.15685821  0.26607302  1  0  1.035884  0  1.849151  0  0  0.844271  0  2.326672  0  0  0.887548  0  2.273272  0  0  0.722297  0.81385  0  2.364075  0
Zn  Zn2  1  0.32951336  0.65686144  0.26607185  1  0  1.036009  0  1.849094  0  0  0.844417  0  2.326616  0  0  0.887688  0  2.27322  0  0  0.722318  0.813975  0  2.364015  0
Zn  Zn3  1  0.82951120  0.84313975  0.73392642  1  0  1.035965  0  1.849041  0  0  0.844348  0  2.32659  0  0  0.887628  0  2.27317  0  0  0.722297  0.813937  0  2.363997  0
H  H4  1  0.74615228  0.52769385  0.59699744  1  0  0.083956  0  0.976726  0  0  0.090129  0  1.044786  0  0  0.092785  0  1.042088  0  0  0.113392  0.088115  0  1.046872  0
H  H5  1  0.24615304  0.97229836  0.40300386  1  0  0.083955  0  0.976734  0  0  0.090097  0  1.044837  0  0  0.092754  0  1.042138  0  0  0.113378  0.088081  0  1.046918  0
H  H6  1  0.25384778  0.47230824  0.40300375  1  0  0.083875  0  0.976749  0  0  0.090041  0  1.044826  0  0  0.092698  0  1.042125  0  0  0.113358  0.088025  0  1.046915  0
H  H7  1  0.75384807  0.02770378  0.59699463  1  0  0.083884  0  0.976766  0  0  0.090022  0  1.044873  0  0  0.092675  0  1.042177  0  0  0.113362  0.088005  0  1.046959  0
H  H8  1  0.73861070  0.51504232  0.42665491  1  0  0.115016  0  0.946922  0  0  0.126873  0  1.002981  0  0  0.12972  0  1.003489  0  0  0.108816  0.124793  0  1.002913  0
H  H9  1  0.23861236  0.98495296  0.57334599  1  0  0.115041  0  0.946922  0  0  0.12697  0  1.002895  0  0  0.129796  0  1.003425  0  0  0.108862  0.124895  0  1.002829  0
H  H10  1  0.26138726  0.48495562  0.57334520  1  0  0.114958  0  0.946915  0  0  0.12686  0  1.002935  0  0  0.129706  0  1.003444  0  0  0.108823  0.124782  0  1.002875  0
H  H11  1  0.76139190  0.01505229  0.42665280  1  0  0.115089  0  0.946805  0  0  0.126976  0  1.00281  0  0  0.129802  0  1.003338  0  0  0.108856  0.124897  0  1.002745  0
H  H12  1  0.49023272  0.14274976  0.41973242  1  0  0.118925  0  0.953776  0  0  0.126924  0  1.016359  0  0  0.130022  0  1.015824  0  0  0.108378  0.124602  0  1.017088  0
H  H13  1  0.99023833  0.35724722  0.58026969  1  0  0.118917  0  0.953726  0  0  0.126916  0  1.016322  0  0  0.130015  0  1.015784  0  0  0.108365  0.124594  0  1.017051  0
H  H14  1  0.50976629  0.85724923  0.58026780  1  0  0.118924  0  0.953741  0  0  0.126933  0  1.016327  0  0  0.130032  0  1.015791  0  0  0.108376  0.124607  0  1.017062  0
H  H15  1  0.00975964  0.64275179  0.41972918  1  0  0.118874  0  0.953773  0  0  0.12688  0  1.016346  0  0  0.129978  0  1.015811  0  0  0.108368  0.124559  0  1.017074  0
H  H16  1  0.50937254  0.16854242  0.59086281  1  0  0.086958  0  0.964166  0  0  0.094112  0  1.030335  0  0  0.096741  0  1.028035  0  0  0.115583  0.092117  0  1.032144  0
H  H17  1  0.00937552  0.33145428  0.40913768  1  0  0.086916  0  0.964063  0  0  0.09399  0  1.030354  0  0  0.09662  0  1.028053  0  0  0.11554  0.091996  0  1.032153  0
H  H18  1  0.49062963  0.83145657  0.40913740  1  0  0.086948  0  0.964191  0  0  0.094069  0  1.030398  0  0  0.096698  0  1.028097  0  0  0.115564  0.092071  0  1.032203  0
H  H19  1  0.99062035  0.66854576  0.59086128  1  0  0.086941  0  0.964042  0  0  0.094019  0  1.030326  0  0  0.096647  0  1.028029  0  0  0.115547  0.092033  0  1.032123  0
H  H20  1  0.68351746  0.38103638  0.28016824  1  0  0.123258  0  0.955338  0  0  0.142486  0  1.017679  0  0  0.143978  0  1.01795  0  0  0.092135  0.141097  0  1.017902  0
H  H21  1  0.18351311  0.11896044  0.71983665  1  0  0.123254  0  0.955247  0  0  0.142468  0  1.017615  0  0  0.143963  0  1.017878  0  0  0.092085  0.141081  0  1.017845  0
H  H22  1  0.31648261  0.61896467  0.71983285  1  0  0.123278  0  0.955297  0  0  0.142506  0  1.017643  0  0  0.144  0  1.017908  0  0  0.092128  0.14112  0  1.017873  0
H  H23  1  0.81648276  0.88103960  0.28016299  1  0  0.123248  0  0.955174  0  0  0.142459  0  1.017567  0  0  0.143954  0  1.017832  0  0  0.092115  0.141073  0  1.017798  0
H  H24  1  0.50033795  0.34238660  0.28636143  1  0  0.130768  0  0.945289  0  0  0.152943  0  1.005295  0  0  0.153529  0  1.006221  0  0  0.09779  0.151926  0  1.005614  0
H  H25  1  0.00033384  0.15760799  0.71363682  1  0  0.130735  0  0.945295  0  0  0.152889  0  1.005317  0  0  0.153483  0  1.006232  0  0  0.097755  0.151872  0  1.005637  0
H  H26  1  0.49966106  0.65761343  0.71363821  1  0  0.130746  0  0.945313  0  0  0.152921  0  1.005319  0  0  0.153505  0  1.006246  0  0  0.097781  0.151905  0  1.005641  0
H  H27  1  0.99966098  0.84238896  0.28636050  1  0  0.130703  0  0.945352  0  0  0.152865  0  1.005377  0  0  0.153457  0  1.006297  0  0  0.097756  0.151847  0  1.005696  0
H  H28  1  0.62050339  0.20551476  0.27742058  1  0  0.128802  0  0.953157  0  0  0.148269  0  1.016137  0  0  0.149704  0  1.015865  0  0  0.097221  0.147041  0  1.016551  0
H  H29  1  0.12050025  0.29447961  0.72257990  1  0  0.128774  0  0.9532  0  0  0.148215  0  1.016189  0  0  0.149646  0  1.015928  0  0  0.097234  0.14699  0  1.016597  0
H  H30  1  0.37949668  0.79448528  0.72257839  1  0  0.1288  0  0.953145  0  0  0.148263  0  1.016126  0  0  0.149696  0  1.015858  0  0  0.097215  0.147036  0  1.016537  0
H  H31  1  0.87949457  0.70551835  0.27741954  1  0  0.128817  0  0.953121  0  0  0.148308  0  1.016075  0  0  0.149745  0  1.0158  0  0  0.097226  0.14707  0  1.01649  0
H  H32  1  0.38021495  0.27891466  0.77748643  1  0  0.08208  0  0.977183  0  0  0.091089  0  1.041566  0  0  0.093564  0  1.039246  0  0  0.116843  0.089181  0  1.043285  0
H  H33  1  0.88021374  0.22108472  0.22251232  1  0  0.082091  0  0.977189  0  0  0.091102  0  1.04157  0  0  0.093578  0  1.039249  0  0  0.116845  0.089196  0  1.043283  0
H  H34  1  0.61978826  0.72109377  0.22250997  1  0  0.082078  0  0.977186  0  0  0.091086  0  1.041564  0  0  0.093567  0  1.039234  0  0  0.116828  0.089173  0  1.043289  0
H  H35  1  0.11978633  0.77891116  0.77748691  1  0  0.082099  0  0.977139  0  0  0.091098  0  1.041542  0  0  0.093577  0  1.039216  0  0  0.116839  0.089209  0  1.043242  0
H  H36  1  0.18856106  0.38759535  0.87773277  1  0  0.11912  0  0.931718  0  0  0.133247  0  0.982689  0  0  0.13597  0  0.983079  0  0  0.11542  0.131275  0  0.982698  0
H  H37  1  0.68856073  0.11240368  0.12226694  1  0  0.119113  0  0.931786  0  0  0.133252  0  0.982737  0  0  0.135975  0  0.983128  0  0  0.115406  0.131278  0  0.982751  0
H  H38  1  0.81143796  0.61241306  0.12226430  1  0  0.119115  0  0.931828  0  0  0.133231  0  0.982797  0  0  0.135953  0  0.983191  0  0  0.115411  0.131257  0  0.982806  0
H  H39  1  0.31143934  0.88759428  0.87773250  1  0  0.119083  0  0.931775  0  0  0.133209  0  0.982744  0  0  0.135931  0  0.983137  0  0  0.115401  0.131236  0  0.982751  0
H  H40  1  0.47591561  0.71687756  0.97480107  1  0  0.120136  0  0.962764  0  0  0.132559  0  1.018408  0  0  0.135398  0  1.018481  0  0  0.113109  0.130521  0  1.018536  0
H  H41  1  0.97591178  0.78312154  0.02519795  1  0  0.120139  0  0.962675  0  0  0.132568  0  1.018314  0  0  0.135405  0  1.018393  0  0  0.113117  0.130529  0  1.018444  0
H  H42  1  0.52408970  0.28311930  0.02520164  1  0  0.120186  0  0.962597  0  0  0.132617  0  1.01824  0  0  0.135455  0  1.018316  0  0  0.113102  0.130577  0  1.018374  0
H  H43  1  0.02408618  0.21687644  0.97480014  1  0  0.120165  0  0.962715  0  0  0.132591  0  1.018346  0  0  0.135425  0  1.01843  0  0  0.113123  0.130555  0  1.018471  0
H  H44  1  0.65587577  0.59894834  0.86824044  1  0  0.080381  0  0.970386  0  0  0.087272  0  1.038199  0  0  0.089656  0  1.035537  0  0  0.118171  0.085487  0  1.040472  0
H  H45  1  0.15587162  0.90105158  0.13175941  1  0  0.080323  0  0.970401  0  0  0.087259  0  1.038177  0  0  0.089639  0  1.035523  0  0  0.118158  0.085468  0  1.040442  0
H  H46  1  0.34412639  0.40104850  0.13176294  1  0  0.080336  0  0.970309  0  0  0.087301  0  1.038081  0  0  0.089686  0  1.035418  0  0  0.118161  0.085507  0  1.040348  0
H  H47  1  0.84412635  0.09894639  0.86823936  1  0  0.080304  0  0.970307  0  0  0.087237  0  1.038094  0  0  0.089622  0  1.035429  0  0  0.118145  0.08545  0  1.040364  0
H  H48  1  0.16862173  0.55493945  0.04417460  1  0  0.140573  0  0.955351  0  0  0.159824  0  1.017759  0  0  0.161893  0  1.016828  0  0  0.097743  0.158264  0  1.01842  0
H  H49  1  0.66861817  0.94505330  0.95582390  1  0  0.140566  0  0.955388  0  0  0.159797  0  1.017828  0  0  0.161855  0  1.016906  0  0  0.097715  0.158236  0  1.018492  0
H  H50  1  0.83138253  0.44505645  0.95582329  1  0  0.14055  0  0.955352  0  0  0.159774  0  1.017802  0  0  0.161831  0  1.016881  0  0  0.097724  0.158214  0  1.018468  0
H  H51  1  0.33137875  0.05494363  0.04417476  1  0  0.140542  0  0.955399  0  0  0.159796  0  1.017817  0  0  0.161864  0  1.016885  0  0  0.097739  0.158236  0  1.018479  0
H  H52  1  0.11677344  0.65252504  0.95827297  1  0  0.136857  0  0.978353  0  0  0.156865  0  1.040112  0  0  0.158912  0  1.039264  0  0  0.096821  0.155363  0  1.04071  0
H  H53  1  0.61677013  0.84747042  0.04172773  1  0  0.136892  0  0.978376  0  0  0.15689  0  1.040137  0  0  0.158928  0  1.039298  0  0  0.09683  0.155395  0  1.040736  0
H  H54  1  0.88322872  0.34747187  0.04172637  1  0  0.136844  0  0.97842  0  0  0.156857  0  1.040164  0  0  0.158897  0  1.039323  0  0  0.096816  0.155356  0  1.040761  0
H  H55  1  0.38322889  0.15252961  0.95827259  1  0  0.136869  0  0.978361  0  0  0.156867  0  1.040131  0  0  0.158908  0  1.03929  0  0  0.096829  0.155367  0  1.040727  0
H  H56  1  0.24792695  0.72140504  0.04018494  1  0  0.119472  0  0.958832  0  0  0.137874  0  1.023923  0  0  0.139774  0  1.0232  0  0  0.090803  0.136435  0  1.024498  0
H  H57  1  0.74792437  0.77859030  0.95981667  1  0  0.119414  0  0.958915  0  0  0.137861  0  1.023956  0  0  0.13976  0  1.023235  0  0  0.090785  0.136425  0  1.024533  0
H  H58  1  0.75207417  0.27859600  0.95981682  1  0  0.119412  0  0.958944  0  0  0.137855  0  1.023987  0  0  0.139755  0  1.023265  0  0  0.090797  0.136415  0  1.02457  0
H  H59  1  0.25207255  0.22140660  0.04018335  1  0  0.11941  0  0.958896  0  0  0.137859  0  1.023936  0  0  0.139758  0  1.023213  0  0  0.090796  0.136421  0  1.024514  0
C  C60  1  0.69071000  0.44444905  0.55451327  1  0  0.126161  0  3.720987  0  0  0.094187  0  3.973861  0  0  0.101935  0  3.992715  0  0  0.042167  0.08938  0  3.960932  0
C  C61  1  0.19071441  0.05554581  0.44548739  1  0  0.126099  0  3.721128  0  0  0.09414  0  3.974063  0  0  0.101887  0  3.992915  0  0  0.042141  0.089342  0  3.961118  0
C  C62  1  0.30929322  0.55554885  0.44548887  1  0  0.126187  0  3.720976  0  0  0.094213  0  3.973877  0  0  0.101964  0  3.992728  0  0  0.042122  0.089406  0  3.960943  0
C  C63  1  0.80929300  0.94446152  0.55451160  1  0  0.126293  0  3.721126  0  0  0.094335  0  3.974021  0  0  0.102086  0  3.992872  0  0  0.04218  0.089532  0  3.961085  0
C  C64  1  0.68504918  0.43680594  0.46033553  1  0  -0.182204  0  3.698067  0  0  -0.19834  0  3.939375  0  0  -0.207908  0  3.962013  0  0  -0.084906  -0.19214  0  3.924214  0
C  C65  1  0.18505304  0.06318886  0.53966646  1  0  -0.182304  0  3.697976  0  0  -0.198535  0  3.939314  0  0  -0.208083  0  3.96196  0  0  -0.084981  -0.192337  0  3.924163  0
C  C66  1  0.31494879  0.56319305  0.53966468  1  0  -0.182086  0  3.697945  0  0  -0.198263  0  3.939271  0  0  -0.207829  0  3.961909  0  0  -0.084915  -0.192068  0  3.924129  0
C  C67  1  0.81494702  0.93681431  0.46033213  1  0  -0.182352  0  3.697942  0  0  -0.19854  0  3.939233  0  0  -0.208088  0  3.961878  0  0  -0.08497  -0.192341  0  3.924074  0
C  C68  1  0.61324213  0.32714992  0.40887891  1  0  0.223197  0  3.71099  0  0  0.244266  0  3.943919  0  0  0.251272  0  3.964638  0  0  0.02237  0.23967  0  3.92937  0
C  C69  1  0.11324384  0.17284855  0.59112195  1  0  0.22326  0  3.710919  0  0  0.244374  0  3.943805  0  0  0.251379  0  3.964523  0  0  0.022454  0.239772  0  3.929275  0
C  C70  1  0.38675794  0.67284904  0.59112265  1  0  0.223187  0  3.710859  0  0  0.244265  0  3.943814  0  0  0.251271  0  3.964534  0  0  0.02245  0.239658  0  3.929282  0
C  C71  1  0.88675518  0.82715357  0.40887722  1  0  0.22323  0  3.710883  0  0  0.244379  0  3.943721  0  0  0.251383  0  3.964441  0  0  0.022463  0.239784  0  3.929168  0
C  C72  1  0.54711901  0.22991657  0.45694894  1  0  -0.178939  0  3.684234  0  0  -0.193363  0  3.924273  0  0  -0.202359  0  3.94602  0  0  -0.08321  -0.187585  0  3.909815  0
C  C73  1  0.04712326  0.27008037  0.54305300  1  0  -0.178912  0  3.684284  0  0  -0.193373  0  3.924301  0  0  -0.202369  0  3.946049  0  0  -0.083233  -0.187597  0  3.909846  0
C  C74  1  0.45288000  0.77008348  0.54305002  1  0  -0.178888  0  3.684158  0  0  -0.193353  0  3.924232  0  0  -0.202353  0  3.94598  0  0  -0.083215  -0.18758  0  3.909782  0
C  C75  1  0.95287366  0.72991968  0.45694597  1  0  -0.178816  0  3.684205  0  0  -0.19327  0  3.924189  0  0  -0.202266  0  3.945938  0  0  -0.083183  -0.187487  0  3.909725  0
C  C76  1  0.55731125  0.24326230  0.55117452  1  0  0.11725  0  3.72191  0  0  0.087699  0  3.968864  0  0  0.094979  0  3.987895  0  0  0.039092  0.08303  0  3.955971  0
C  C77  1  0.05731600  0.25673162  0.44882580  1  0  0.117217  0  3.721975  0  0  0.087736  0  3.968953  0  0  0.095016  0  3.987985  0  0  0.039045  0.083073  0  3.956039  0
C  C78  1  0.44268777  0.75673670  0.44882502  1  0  0.117243  0  3.721955  0  0  0.08773  0  3.968928  0  0  0.095013  0  3.987959  0  0  0.039079  0.083071  0  3.956006  0
C  C79  1  0.94268196  0.74326844  0.55117249  1  0  0.117139  0  3.722024  0  0  0.087639  0  3.969016  0  0  0.094919  0  3.988052  0  0  0.038977  0.082942  0  3.956166  0
C  C80  1  0.60594942  0.31416869  0.30747644  1  0  -0.361795  0  3.681954  0  0  -0.443256  0  3.911719  0  0  -0.446349  0  3.92034  0  0  -0.243824  -0.440361  0  3.905802  0
C  C81  1  0.10594750  0.18582661  0.69252478  1  0  -0.361772  0  3.681849  0  0  -0.443167  0  3.911581  0  0  -0.446268  0  3.920201  0  0  -0.243784  -0.440268  0  3.905668  0
C  C82  1  0.39404959  0.68583135  0.69252320  1  0  -0.361811  0  3.681947  0  0  -0.443257  0  3.911703  0  0  -0.446353  0  3.920329  0  0  -0.243815  -0.440356  0  3.905795  0
C  C83  1  0.89405046  0.81417136  0.30747399  1  0  -0.361758  0  3.681805  0  0  -0.443228  0  3.911497  0  0  -0.446329  0  3.920117  0  0  -0.243821  -0.440322  0  3.905586  0
C  C84  1  0.39618442  0.37698104  0.82156344  1  0  0.128022  0  3.714158  0  0  0.094479  0  3.965381  0  0  0.1028  0  3.983031  0  0  0.043475  0.089018  0  3.953442  0
C  C85  1  0.89618442  0.12301736  0.17843795  1  0  0.127931  0  3.714264  0  0  0.094384  0  3.96549  0  0  0.102703  0  3.98314  0  0  0.043435  0.088923  0  3.953539  0
C  C86  1  0.60381460  0.62302417  0.17843805  1  0  0.127927  0  3.714133  0  0  0.094379  0  3.965335  0  0  0.102702  0  3.982985  0  0  0.043427  0.088915  0  3.95339  0
C  C87  1  0.10381670  0.87697847  0.82156399  1  0  0.127963  0  3.7141  0  0  0.094436  0  3.965323  0  0  0.102758  0  3.982974  0  0  0.043467  0.088959  0  3.953383  0
C  C88  1  0.29112313  0.43730926  0.87817213  1  0  -0.162002  0  3.666171  0  0  -0.178281  0  3.909462  0  0  -0.187245  0  3.930655  0  0  -0.075573  -0.172448  0  3.895457  0
C  C89  1  0.79112036  0.06269362  0.12182814  1  0  -0.161987  0  3.666113  0  0  -0.178252  0  3.909383  0  0  -0.187214  0  3.930575  0  0  -0.075532  -0.172417  0  3.895375  0
C  C90  1  0.70888008  0.56269809  0.12182619  1  0  -0.161942  0  3.66613  0  0  -0.178185  0  3.90941  0  0  -0.187159  0  3.930595  0  0  -0.075451  -0.17235  0  3.89541  0
C  C91  1  0.20887971  0.93730642  0.87817150  1  0  -0.16186  0  3.665993  0  0  -0.178135  0  3.909264  0  0  -0.1871  0  3.93046  0  0  -0.07548  -0.172304  0  3.895247  0
C  C92  1  0.31721542  0.56154217  0.93589460  1  0  0.227345  0  3.718958  0  0  0.246599  0  3.955347  0  0  0.253985  0  3.97654  0  0  0.024619  0.241743  0  3.940562  0
C  C93  1  0.81721074  0.93845582  0.06410334  1  0  0.227345  0  3.718948  0  0  0.246577  0  3.955364  0  0  0.253962  0  3.976553  0  0  0.024559  0.241719  0  3.940582  0
C  C94  1  0.68278779  0.43846097  0.06410602  1  0  0.227367  0  3.718897  0  0  0.246573  0  3.95536  0  0  0.253989  0  3.976506  0  0  0.024514  0.241701  0  3.940599  0
C  C95  1  0.18278723  0.06154215  0.93589543  1  0  0.227267  0  3.718843  0  0  0.246531  0  3.955237  0  0  0.253916  0  3.976429  0  0  0.02456  0.241706  0  3.940411  0
C  C96  1  0.45057484  0.62066003  0.93127926  1  0  -0.187896  0  3.687508  0  0  -0.20411  0  3.92723  0  0  -0.214132  0  3.950023  0  0  -0.083532  -0.197619  0  3.911927  0
C  C97  1  0.95057082  0.87933784  0.06872027  1  0  -0.187871  0  3.687333  0  0  -0.204058  0  3.92706  0  0  -0.214079  0  3.94985  0  0  -0.083494  -0.197574  0  3.911759  0
C  C98  1  0.54943257  0.37933675  0.06872750  1  0  -0.188018  0  3.687517  0  0  -0.204207  0  3.927279  0  0  -0.21424  0  3.950063  0  0  -0.083508  -0.19772  0  3.911988  0
C  C99  1  0.04942714  0.12066118  0.93127792  1  0  -0.187969  0  3.687526  0  0  -0.204165  0  3.927247  0  0  -0.214189  0  3.95004  0  0  -0.083536  -0.197682  0  3.911929  0
C  C100  1  0.55132613  0.55530560  0.87301059  1  0  0.143288  0  3.708076  0  0  0.111915  0  3.95814  0  0  0.120565  0  3.976248  0  0  0.049208  0.106119  0  3.946162  0
C  C101  1  0.05132330  0.94469568  0.12698785  1  0  0.143255  0  3.708059  0  0  0.111818  0  3.958174  0  0  0.120467  0  3.97628  0  0  0.049168  0.106031  0  3.946173  0
C  C102  1  0.44867918  0.44469442  0.12698973  1  0  0.143343  0  3.708092  0  0  0.111858  0  3.958214  0  0  0.120505  0  3.976325  0  0  0.049208  0.106075  0  3.946216  0
C  C103  1  0.94867676  0.05530126  0.87301014  1  0  0.143402  0  3.707966  0  0  0.111985  0  3.958062  0  0  0.120635  0  3.976172  0  0  0.049257  0.106194  0  3.946075  0
C  C104  1  0.20756716  0.62760996  0.99893480  1  0  -0.381843  0  3.688335  0  0  -0.462236  0  3.918306  0  0  -0.466495  0  3.925727  0  0  -0.248964  -0.458809  0  3.91297  0
C  C105  1  0.70756278  0.87238719  0.00106623  1  0  -0.381835  0  3.688519  0  0  -0.462237  0  3.918489  0  0  -0.466477  0  3.92593  0  0  -0.248896  -0.458806  0  3.91315  0
C  C106  1  0.79243605  0.37239006  0.00106551  1  0  -0.381754  0  3.688412  0  0  -0.462152  0  3.918407  0  0  -0.466405  0  3.925837  0  0  -0.248909  -0.458722  0  3.913084  0
C  C107  1  0.29243414  0.12761284  0.99893409  1  0  -0.381767  0  3.688481  0  0  -0.462203  0  3.918465  0  0  -0.466453  0  3.925891  0  0  -0.248967  -0.458787  0  3.913115  0
S  S108  1  0.91762904  0.55435703  0.77190040  1  0  1.525042  0  5.890623  0  0  1.409397  0  6.426116  0  0  1.464197  0  6.391995  0  0  0.547482  1.371375  0  6.448135  0
S  S109  1  0.41762775  0.94564580  0.22809955  1  0  1.524976  0  5.890602  0  0  1.409364  0  6.426063  0  0  1.464159  0  6.391947  0  0  0.547474  1.371347  0  6.448085  0
S  S110  1  0.08236998  0.44564399  0.22810204  1  0  1.525153  0  5.890438  0  0  1.409526  0  6.425907  0  0  1.464322  0  6.39179  0  0  0.547543  1.371504  0  6.447931  0
S  S111  1  0.58237022  0.05435526  0.77190087  1  0  1.524906  0  5.890583  0  0  1.409294  0  6.42604  0  0  1.464089  0  6.391929  0  0  0.54745  1.371276  0  6.448051  0
N  N112  1  0.62939007  0.34846316  0.59953387  1  0  -0.356982  0  3.322644  0  0  -0.271914  0  3.603748  0  0  -0.292456  0  3.618649  0  0  -0.341879  -0.257843  0  3.593061  0
N  N113  1  0.12939283  0.15153019  0.40046855  1  0  -0.356715  0  3.322732  0  0  -0.271634  0  3.603752  0  0  -0.292179  0  3.618667  0  0  -0.341682  -0.257555  0  3.593042  0
N  N114  1  0.37060894  0.65153374  0.40046614  1  0  -0.356997  0  3.322591  0  0  -0.271925  0  3.603681  0  0  -0.292469  0  3.618579  0  0  -0.341833  -0.257846  0  3.592972  0
N  N115  1  0.87060303  0.84846987  0.59952974  1  0  -0.356875  0  3.322768  0  0  -0.271793  0  3.60383  0  0  -0.292334  0  3.618732  0  0  -0.341719  -0.257717  0  3.59314  0
N  N116  1  0.52533461  0.43456173  0.81897893  1  0  -0.371553  0  3.352054  0  0  -0.284537  0  3.642553  0  0  -0.305805  0  3.656367  0  0  -0.345206  -0.269858  0  3.632827  0
N  N117  1  0.02533365  0.06543821  0.18102124  1  0  -0.371386  0  3.352179  0  0  -0.284371  0  3.642719  0  0  -0.305641  0  3.656535  0  0  -0.345151  -0.269691  0  3.632978  0
N  N118  1  0.47466441  0.56543832  0.18102004  1  0  -0.37148  0  3.352018  0  0  -0.284434  0  3.642544  0  0  -0.305703  0  3.656354  0  0  -0.345199  -0.269744  0  3.632787  0
N  N119  1  0.97466747  0.93455662  0.81897790  1  0  -0.371552  0  3.352014  0  0  -0.284551  0  3.642562  0  0  -0.30582  0  3.656374  0  0  -0.345227  -0.269871  0  3.632842  0
O  O120  1  0.86337559  0.40632434  0.75665372  1  0  -0.737886  0  2.039952  0  0  -0.65592  0  2.332656  0  0  -0.680143  0  2.309975  0  0  -0.372122  -0.638799  0  2.34854  0
O  O121  1  0.36337512  0.09367901  0.24334876  1  0  -0.737777  0  2.039831  0  0  -0.655856  0  2.332604  0  0  -0.680077  0  2.309923  0  0  -0.372095  -0.638752  0  2.348497  0
O  O122  1  0.13662657  0.59367660  0.24335276  1  0  -0.737806  0  2.03985  0  0  -0.655892  0  2.332617  0  0  -0.680116  0  2.309938  0  0  -0.372071  -0.638783  0  2.348501  0
O  O123  1  0.63662495  0.90632199  0.75665503  1  0  -0.737826  0  2.039954  0  0  -0.655882  0  2.332689  0  0  -0.680105  0  2.310008  0  0  -0.372108  -0.638773  0  2.348576  0
O  O124  1  0.93356382  0.60155282  0.86951440  1  0  -0.706067  0  1.939261  0  0  -0.658921  0  2.184708  0  0  -0.680052  0  2.170114  0  0  -0.353798  -0.64397  0  2.193892  0
O  O125  1  0.43356384  0.89845322  0.13048657  1  0  -0.706057  0  1.939306  0  0  -0.658935  0  2.184746  0  0  -0.680061  0  2.170155  0  0  -0.353859  -0.643998  0  2.193932  0
O  O126  1  0.06643729  0.39845340  0.13048854  1  0  -0.706084  0  1.939254  0  0  -0.658962  0  2.18472  0  0  -0.680072  0  2.170102  0  0  -0.353852  -0.644024  0  2.193905  0
O  O127  1  0.56643622  0.10155096  0.86951415  1  0  -0.706017  0  1.939231  0  0  -0.658883  0  2.184675  0  0  -0.680006  0  2.17008  0  0  -0.353811  -0.643945  0  2.193869  0
O  O128  1  0.04742585  0.56181024  0.71900021  1  0  -0.714502  0  1.898492  0  0  -0.67006  0  2.145214  0  0  -0.6904  0  2.129643  0  0  -0.363163  -0.655293  0  2.155805  0
O  O129  1  0.54742429  0.93818785  0.28100060  1  0  -0.714488  0  1.898427  0  0  -0.67007  0  2.145159  0  0  -0.690405  0  2.129585  0  0  -0.36319  -0.655315  0  2.155763  0
O  O130  1  0.95257212  0.43818767  0.28100192  1  0  -0.714595  0  1.898383  0  0  -0.670166  0  2.145095  0  0  -0.690507  0  2.129529  0  0  -0.363255  -0.65541  0  2.155705  0
O  O131  1  0.45257472  0.06180799  0.71900066  1  0  -0.714461  0  1.898465  0  0  -0.670055  0  2.145204  0  0  -0.690384  0  2.129618  0  0  -0.36318  -0.655296  0  2.155802  0
O  O132  1  0.80244597  0.64080942  0.73339804  1  0  -0.770943  0  2.022041  0  0  -0.692437  0  2.316482  0  0  -0.715677  0  2.292321  0  0  -0.37675  -0.675752  0  2.333576  0
O  O133  1  0.30244427  0.85918848  0.26659851  1  0  -0.770969  0  2.022135  0  0  -0.692455  0  2.316538  0  0  -0.715699  0  2.292385  0  0  -0.37673  -0.67577  0  2.333635  0
O  O134  1  0.19755200  0.35918853  0.26660140  1  0  -0.771019  0  2.022116  0  0  -0.692476  0  2.316509  0  0  -0.715725  0  2.292362  0  0  -0.376767  -0.675798  0  2.333605  0
O  O135  1  0.69755370  0.14081054  0.73339968  1  0  -0.77093  0  2.022075  0  0  -0.692443  0  2.316525  0  0  -0.715687  0  2.292373  0  0  -0.376753  -0.675765  0  2.333622  0
