# generated using pymatgen
data_ZnH21C24N3ClO4
_symmetry_space_group_name_H-M   'P 1'
_cell_length_a   12.31045159
_cell_length_b   13.07799658
_cell_length_c   19.27430062
_cell_angle_alpha   87.03712075
_cell_angle_beta   86.37929195
_cell_angle_gamma   85.13685724
_symmetry_Int_Tables_number   1
_chemical_formula_structural   ZnH21C24N3ClO4
_chemical_formula_sum   'Zn2 H42 C48 N6 Cl2 O8'
_cell_volume   3082.39195791
_cell_formula_units_Z   2
loop_
 _symmetry_equiv_pos_site_id
 _symmetry_equiv_pos_as_xyz
  1  'x, y, z'
loop_
 _atom_site_type_symbol
 _atom_site_label
 _atom_site_symmetry_multiplicity
 _atom_site_fract_x
 _atom_site_fract_y
 _atom_site_fract_z
 _atom_site_occupancy
 _atom_site_pbe_bader_charge
 _atom_site_pbe_bader_spin_density
 _atom_site_pbe_cm5_charge
 _atom_site_pbe_ddec_charge
 _atom_site_pbe_ddec_spin_density
 _atom_site_pbe_ddec_sum_bond_order
 _atom_site_pbe_magmom
Zn  Zn0  1  0.62443955  0.50075619  0.48984933  1  1.307838  0  0.682467  0.868345  0  2.299374  0
Zn  Zn1  1  0.37369594  0.49758902  0.51030848  1  1.304099  0  0.68295  0.867498  0  2.303592  0
H  H2  1  0.01478315  0.35071893  0.60625879  1  0.077037  0  0.113453  0.126009  0  1.006279  0
H  H3  1  0.31046348  0.81164366  0.57317431  1  0.07722  0  0.102184  0.105839  0  1.01287  0
H  H4  1  0.29613289  0.00191494  0.58360598  1  0.052936  0  0.101339  0.102383  0  0.994198  0
H  H5  1  0.69175489  0.99441451  0.42520982  1  0.067611  0  0.101145  0.10176  0  0.994582  0
H  H6  1  0.53779577  0.79551797  0.21219676  1  0.022351  0  0.087077  0.113526  0  1.001617  0
H  H7  1  0.39390456  0.79809061  0.20870223  1  0.008411  0  0.088255  0.115783  0  0.998836  0
H  H8  1  0.45091943  0.85677940  0.27730907  1  0.030783  0  0.089733  0.117855  0  0.998587  0
H  H9  1  0.38422560  0.68952970  0.32110138  1  0.072387  0  0.097695  0.102403  0  0.969795  0
H  H10  1  0.52502714  0.68936722  0.32672841  1  0.039735  0  0.097046  0.100543  0  0.979316  0
H  H11  1  0.47295470  0.21278881  0.77450050  1  0.03148  0  0.086367  0.113244  0  1.003901  0
H  H12  1  0.42163215  0.26640454  0.69523713  1  0.04998  0  0.086344  0.11916  0  1.023052  0
H  H13  1  0.98296854  0.65046356  0.39235715  1  0.069507  0  0.113351  0.121924  0  1.011236  0
H  H14  1  0.52238005  0.16069696  0.69385232  1  0.038216  0  0.087698  0.116443  0  1.000518  0
H  H15  1  0.60665612  0.32349946  0.65731545  1  0.063535  0  0.095103  0.097147  0  1.002483  0
H  H16  1  0.65955321  0.27006878  0.73524092  1  0.02201  0  0.095078  0.091084  0  0.965243  0
H  H17  1  0.80184053  0.25434248  0.49938772  1  0.061144  0  0.089055  0.124474  0  1.018988  0
H  H18  1  0.92734693  0.24147036  0.54159919  1  0.044837  0  0.081673  0.103533  0  1.02384  0
H  H19  1  0.80391015  0.20826741  0.58728635  1  0.047576  0  0.092289  0.126046  0  0.987407  0
H  H20  1  0.84567264  0.37993155  0.62428020  1  0.040446  0  0.100265  0.103844  0  0.969361  0
H  H21  1  0.72567254  0.38938392  0.57955979  1  0.077183  0  0.100206  0.110191  0  1.066485  0
H  H22  1  0.06711221  0.75936662  0.45987884  1  0.038639  0  0.081641  0.103416  0  1.024421  0
H  H23  1  0.19136970  0.74747855  0.50340768  1  0.078997  0  0.089362  0.126616  0  1.022131  0
H  H24  1  0.51531158  0.33212884  0.15550790  1  0.120429  0  0.107928  0.120329  0  1.016582  0
H  H25  1  0.19029153  0.79647426  0.41602221  1  0.047787  0  0.091836  0.124437  0  0.98695  0
H  H26  1  0.27270553  0.61606576  0.42148445  1  0.102001  0  0.101482  0.11643  0  1.055126  0
H  H27  1  0.15350200  0.62507047  0.37584735  1  0.039237  0  0.099767  0.102814  0  0.970161  0
H  H28  1  0.86984449  0.59492927  0.28737067  1  -0.010815  0  0.081591  0.103346  0  1.012154  0
H  H29  1  0.75680926  0.51985392  0.30963258  1  0.0575  0  0.088835  0.130153  0  1.008891  0
H  H30  1  0.73441641  0.64619820  0.27249944  1  0.031208  0  0.088908  0.120546  0  0.996822  0
H  H31  1  0.68630739  0.64540178  0.40041756  1  0.099489  0  0.097851  0.108636  0  1.057113  0
H  H32  1  0.79711704  0.71978437  0.37828266  1  0.022777  0  0.094386  0.093944  0  0.969412  0
H  H33  1  0.24648973  0.48963776  0.68386317  1  0.046896  0  0.089399  0.128423  0  1.003509  0
H  H34  1  0.13029649  0.42080029  0.71029979  1  0.033028  0  0.081336  0.103863  0  1.010962  0
H  H35  1  0.47319530  0.66192345  0.84383166  1  0.136306  0  0.108143  0.120942  0  1.015301  0
H  H36  1  0.26439227  0.36694570  0.72678468  1  0.034917  0  0.089455  0.119448  0  1.006876  0
H  H37  1  0.19665501  0.28460213  0.62547704  1  0.03747  0  0.094935  0.094794  0  0.970142  0
H  H38  1  0.31039990  0.35364763  0.59909795  1  0.088424  0  0.098778  0.11002  0  1.051308  0
H  H39  1  0.47151866  0.66255262  0.14622475  1  0.087968  0  0.102996  0.102813  0  1.05131  0
H  H40  1  0.57093152  0.33748586  0.85210238  1  0.108923  0  0.105036  0.106717  0  1.024551  0
H  H41  1  0.36870472  0.17115519  0.55161493  1  0.082672  0  0.104497  0.108629  0  1.013458  0
H  H42  1  0.61447743  0.82520981  0.45244357  1  0.088807  0  0.104202  0.109821  0  1.013235  0
H  H43  1  0.67712658  0.18462438  0.43559390  1  0.064154  0  0.103322  0.10563  0  1.008607  0
C  C44  1  0.46941737  0.69497364  0.50355561  1  1.57691  0  0.217629  0.592252  0  4.174359  0
C  C45  1  0.43987161  0.13138778  0.52525111  1  -0.053098  0  -0.080017  -0.142266  0  3.93912  0
C  C46  1  0.53949410  0.97294611  0.48497942  1  0.03857  0  -0.006888  0.075292  0  4.004163  0
C  C47  1  0.44699958  0.02333777  0.52229287  1  -0.047395  0  -0.006008  0.079202  0  4.008578  0
C  C48  1  0.04597463  0.40704943  0.56824922  1  -0.030739  0  -0.083954  -0.226336  0  3.960044  0
C  C49  1  0.95202880  0.59380506  0.43023800  1  -0.007411  0  -0.083346  -0.222773  0  3.959182  0
C  C50  1  0.15579630  0.42160530  0.56614702  1  0.459011  0  0.119826  0.270222  0  3.916965  0
C  C51  1  0.84204058  0.57941977  0.43257843  1  0.430972  0  0.119145  0.268145  0  3.909945  0
C  C52  1  0.13708755  0.54978474  0.47595388  1  0.559167  0  0.153732  0.268042  0  3.820166  0
C  C53  1  0.86111911  0.45205300  0.52319634  1  0.545349  0  0.153176  0.265993  0  3.82323  0
C  C54  1  0.02243250  0.53712300  0.47560639  1  -0.007593  0  0.004704  0.014688  0  3.993122  0
C  C55  1  0.51142518  0.30208069  0.49951815  1  1.546022  0  0.217652  0.595529  0  4.170073  0
C  C56  1  0.97587524  0.46393038  0.52285238  1  -0.044772  0  0.004751  0.017534  0  3.994454  0
C  C57  1  0.49676963  0.49679654  0.36617389  1  1.625046  0  0.217352  0.606421  0  4.21114  0
C  C58  1  0.52079545  0.49920905  0.63258736  1  1.613572  0  0.215345  0.604215  0  4.218249  0
C  C59  1  0.50271422  0.40517015  0.25409645  1  0.077627  0  0.014778  0.134066  0  4.049396  0
C  C60  1  0.49758591  0.58946015  0.74529505  1  0.038605  0  0.01517  0.131804  0  4.048581  0
C  C61  1  0.50484685  0.40417433  0.18192687  1  -0.019429  0  -0.091145  -0.183561  0  3.967988  0
C  C62  1  0.49503651  0.59092915  0.81733846  1  -0.022231  0  -0.091163  -0.1835  0  3.964243  0
C  C63  1  0.49464989  0.49803216  0.14333980  1  -0.039495  0  -0.011161  0.028503  0  4.029692  0
C  C64  1  0.52053048  0.49887130  0.85591255  1  0.079609  0  -0.010992  0.027346  0  4.029371  0
C  C65  1  0.47979509  0.59104591  0.17766523  1  -0.003275  0  -0.089141  -0.176329  0  3.937992  0
C  C66  1  0.52181810  0.18792722  0.49494361  1  0.021583  0  -0.018081  -0.025472  0  3.99071  0
C  C67  1  0.55039846  0.40794035  0.82125740  1  -0.018555  0  -0.086137  -0.174049  0  3.937119  0
C  C68  1  0.47725587  0.59209742  0.25008107  1  0.026332  0  -0.000588  0.113117  0  3.919347  0
C  C69  1  0.55365156  0.40656353  0.74869175  1  -0.014811  0  -0.000722  0.114719  0  3.925181  0
C  C70  1  0.49073505  0.49744039  0.28850988  1  -0.016779  0  -0.009997  -0.125986  0  3.908088  0
C  C71  1  0.52531006  0.49853268  0.71041300  1  0.00794  0  -0.008926  -0.120727  0  3.903421  0
C  C72  1  0.51484932  0.49876695  0.93225889  1  0.923684  0  0.239408  0.251448  0  3.972297  0
C  C73  1  0.50145364  0.49845355  0.06699259  1  0.993941  0  0.238781  0.249855  0  3.971396  0
C  C74  1  0.46137882  0.69074371  0.28882541  1  -0.050478  0  -0.158171  -0.142844  0  3.96048  0
C  C75  1  0.46101959  0.79043922  0.24410604  1  -0.038099  0  -0.241599  -0.351017  0  3.986062  0
C  C76  1  0.58523473  0.30724869  0.71275353  1  -0.018824  0  -0.158377  -0.141784  0  3.954454  0
C  C77  1  0.46282439  0.80860101  0.51070784  1  -0.045969  0  -0.021651  -0.033988  0  3.990564  0
C  C78  1  0.49530590  0.23229768  0.71959960  1  -0.092094  0  -0.24141  -0.348766  0  3.944907  0
C  C79  1  0.81392871  0.37283005  0.57276277  1  0.011115  0  -0.16465  -0.206477  0  3.971501  0
C  C80  1  0.83922269  0.26270671  0.54867522  1  -0.113355  0  -0.240924  -0.341477  0  3.938327  0
C  C81  1  0.18410148  0.63097076  0.42783522  1  -0.021539  0  -0.164626  -0.207901  0  3.965779  0
C  C82  1  0.15565260  0.73999790  0.45344800  1  -0.120575  0  -0.241992  -0.342052  0  3.934497  0
C  C83  1  0.77209377  0.64067748  0.38133660  1  -0.017978  0  -0.164806  -0.196115  0  3.966214  0
C  C84  1  0.78456547  0.59742974  0.30838119  1  -0.039019  0  -0.24337  -0.341943  0  3.941371  0
C  C85  1  0.22489310  0.36236902  0.61862669  1  -0.020119  0  -0.165903  -0.202344  0  3.97516  0
C  C86  1  0.21547439  0.41327383  0.68907738  1  -0.069832  0  -0.242892  -0.340653  0  3.94447  0
C  C87  1  0.36513316  0.96322641  0.55430132  1  -0.031487  0  -0.09096  -0.135136  0  4.002433  0
C  C88  1  0.62204973  0.03309627  0.45386130  1  -0.05121  0  -0.090545  -0.134039  0  3.998188  0
C  C89  1  0.37246214  0.85845563  0.54852032  1  -0.044212  0  -0.091234  -0.103153  0  4.014643  0
C  C90  1  0.61433200  0.13799691  0.45946352  1  -0.032879  0  -0.089299  -0.103497  0  4.013118  0
C  C91  1  0.54490091  0.86508271  0.48036200  1  -0.038891  0  -0.079489  -0.136483  0  3.931527  0
N  N92  1  0.48337361  0.58960168  0.03107648  1  -0.526508  0  -0.15859  -0.15087  0  3.221924  0
N  N93  1  0.53356166  0.40772386  0.96815575  1  -0.539257  0  -0.159338  -0.153914  0  3.226776  0
N  N94  1  0.49059499  0.58976988  0.96271128  1  -0.634104  0  -0.158952  -0.149486  0  3.220126  0
N  N95  1  0.52718600  0.40764835  0.03649438  1  -0.578991  0  -0.157737  -0.147034  0  3.221496  0
N  N96  1  0.79710819  0.50914110  0.47972951  1  -1.204645  0  -0.294777  -0.294603  0  3.341629  0
N  N97  1  0.20078468  0.49229983  0.51940287  1  -1.205879  0  -0.295505  -0.296034  0  3.34646  0
Cl  Cl98  1  0.51572293  0.28915381  0.30212062  1  -0.208824  0  -0.017041  -0.081491  0  1.461145  0
Cl  Cl99  1  0.46506772  0.70293186  0.69748745  1  -0.207453  0  -0.01404  -0.079991  0  1.479757  0
O  O100  1  0.56014889  0.65165781  0.48064512  1  -1.191381  0  -0.31859  -0.565502  0  2.398939  0
O  O101  1  0.41462296  0.34506027  0.50065399  1  -1.157902  0  -0.316166  -0.55012  0  2.374946  0
O  O102  1  0.38277676  0.65016575  0.52027972  1  -1.162654  0  -0.3121  -0.544552  0  2.368323  0
O  O103  1  0.59924187  0.34624208  0.50257745  1  -1.171162  0  -0.31227  -0.55244  0  2.354208  0
O  O104  1  0.59240692  0.48502746  0.38783989  1  -1.151675  0  -0.304092  -0.534484  0  2.355651  0
O  O105  1  0.43043435  0.47924677  0.61080096  1  -1.16796  0  -0.30078  -0.534881  0  2.353575  0
O  O106  1  0.40734799  0.51024598  0.40204032  1  -1.172864  0  -0.306529  -0.547774  0  2.354406  0
O  O107  1  0.60713097  0.51824660  0.59642249  1  -1.164788  0  -0.311238  -0.545349  0  2.338152  0
