# generated using pymatgen
data_ZnH22C28N3O14
_symmetry_space_group_name_H-M   'P 1'
_cell_length_a   14.69293069
_cell_length_b   16.06962574
_cell_length_c   19.36379796
_cell_angle_alpha   89.65999175
_cell_angle_beta   90.61041165
_cell_angle_gamma   89.37341057
_symmetry_Int_Tables_number   1
_chemical_formula_structural   ZnH22C28N3O14
_chemical_formula_sum   'Zn2 H44 C56 N6 O28'
_cell_volume   4571.36780255
_cell_formula_units_Z   2
loop_
 _symmetry_equiv_pos_site_id
 _symmetry_equiv_pos_as_xyz
  1  'x, y, z'
loop_
 _atom_site_type_symbol
 _atom_site_label
 _atom_site_symmetry_multiplicity
 _atom_site_fract_x
 _atom_site_fract_y
 _atom_site_fract_z
 _atom_site_occupancy
 _atom_site_pbe_bader_charge
 _atom_site_pbe_bader_spin_density
 _atom_site_pbe_cm5_charge
 _atom_site_pbe_ddec_charge
 _atom_site_pbe_ddec_spin_density
 _atom_site_pbe_ddec_sum_bond_order
 _atom_site_pbe_magmom
Zn  Zn0  1  0.59460668  0.49436625  0.49997341  1  1.305151  0  0.685276  0.881439  0  2.447003  0
Zn  Zn1  1  0.40539874  0.50563125  0.50001978  1  1.302594  0  0.685253  0.881367  0  2.447233  0
H  H2  1  0.94938812  0.39301960  0.58210747  1  0.117597  0  0.128919  0.144366  0  0.953306  0
H  H3  1  0.26738420  0.43098321  0.75799135  1  0.069479  0  0.092099  0.089179  0  1.017464  0
H  H4  1  0.53600035  0.70102199  0.11385071  1  0.092097  0  0.0942  0.091393  0  1.020262  0
H  H5  1  0.65671304  0.71609060  0.11976245  1  0.066751  0  0.104511  0.111885  0  0.971037  0
H  H6  1  0.59123190  0.71071768  0.19748896  1  0.067277  0  0.096284  0.09764  0  1.012994  0
H  H7  1  0.34325978  0.28388714  0.88020738  1  0.066544  0  0.104526  0.111812  0  0.97105  0
H  H8  1  0.46397327  0.29895260  0.88614134  1  0.092229  0  0.094206  0.091487  0  1.02021  0
H  H9  1  0.40876276  0.28925811  0.80249133  1  0.066911  0  0.096179  0.097593  0  1.012768  0
H  H10  1  0.28399569  0.38677671  0.07135630  1  0.615234  0  0.344319  0.38341  0  0.847919  0
H  H11  1  0.71597664  0.61320403  0.92866722  1  0.615756  0  0.344223  0.383336  0  0.848256  0
H  H12  1  0.42466409  0.27119615  0.28217783  1  0.056954  0  0.095089  0.09958  0  0.995305  0
H  H13  1  0.05061525  0.60698349  0.41789498  1  0.117545  0  0.128914  0.144328  0  0.953287  0
H  H14  1  0.35758197  0.30241684  0.35529442  1  0.071924  0  0.1067  0.117311  0  0.970012  0
H  H15  1  0.47310214  0.33479024  0.34917577  1  0.061807  0  0.095504  0.097817  0  1.011681  0
H  H16  1  0.64243037  0.69758369  0.64473185  1  0.072414  0  0.10667  0.11721  0  0.970085  0
H  H17  1  0.57533620  0.72877890  0.71784742  1  0.057312  0  0.0952  0.099617  0  0.995136  0
H  H18  1  0.52690749  0.66520037  0.65083502  1  0.061524  0  0.095501  0.097753  0  1.01179  0
H  H19  1  0.38884041  0.03307973  0.66991091  1  0.054956  0  0.097341  0.094972  0  0.996284  0
H  H20  1  0.50868539  0.03020630  0.68893256  1  0.01984  0  0.097487  0.092405  0  0.994953  0
H  H21  1  0.43526087  0.95538114  0.72794543  1  0.063731  0  0.11046  0.115976  0  0.970265  0
H  H22  1  0.49131529  0.96979803  0.31107968  1  0.020159  0  0.097553  0.092476  0  0.995025  0
H  H23  1  0.61116169  0.96691527  0.33009672  1  0.055254  0  0.097351  0.095042  0  0.996345  0
H  H24  1  0.60647787  0.05807635  0.58571040  1  0.068123  0  0.10874  0.123984  0  0.985382  0
H  H25  1  0.56474255  0.04462193  0.27206890  1  0.064024  0  0.110428  0.115929  0  0.970148  0
H  H26  1  0.27957994  0.94895106  0.58219192  1  0.073039  0  0.098509  0.097105  0  0.99894  0
H  H27  1  0.25498255  0.95359074  0.49131996  1  0.078403  0  0.094264  0.088001  0  0.997854  0
H  H28  1  0.19669226  0.02244788  0.54907497  1  0.046322  0  0.103877  0.106157  0  0.979361  0
H  H29  1  0.74502899  0.04641481  0.50868717  1  0.078611  0  0.094291  0.087981  0  0.997964  0
H  H30  1  0.72042214  0.05104767  0.41781674  1  0.073438  0  0.098534  0.097107  0  0.998954  0
H  H31  1  0.80331928  0.97755767  0.45093217  1  0.045914  0  0.103903  0.106146  0  0.979312  0
H  H32  1  0.15910518  0.59149891  0.68409827  1  0.639112  0  0.361067  0.401486  0  0.826458  0
H  H33  1  0.84088868  0.40850483  0.31590774  1  0.63915  0  0.360956  0.401356  0  0.826736  0
H  H34  1  0.01569245  0.73180319  0.49263443  1  0.077868  0  0.103771  0.099276  0  0.988362  0
H  H35  1  0.39353855  0.94191983  0.41430609  1  0.06919  0  0.108711  0.123911  0  0.985168  0
H  H36  1  0.04410480  0.70921789  0.58158483  1  0.085684  0  0.102074  0.10703  0  1.008667  0
H  H37  1  0.94495819  0.77130870  0.56030098  1  0.081595  0  0.121983  0.132543  0  0.955239  0
H  H38  1  0.95589581  0.29078957  0.41841655  1  0.085747  0  0.102057  0.107006  0  1.008694  0
H  H39  1  0.98431094  0.26819679  0.50736545  1  0.077832  0  0.103769  0.099301  0  0.988304  0
H  H40  1  0.05503971  0.22869504  0.43969472  1  0.081637  0  0.121992  0.132533  0  0.955304  0
H  H41  1  0.71058741  0.52474295  0.32663747  1  0.053823  0  0.085104  0.082397  0  1.045742  0
H  H42  1  0.73765748  0.63297560  0.31765807  1  0.06282  0  0.105257  0.113809  0  0.971006  0
H  H43  1  0.73261102  0.56900317  0.24197909  1  0.06938  0  0.09219  0.089243  0  1.017038  0
H  H44  1  0.26234794  0.36701137  0.68231088  1  0.062615  0  0.105231  0.113735  0  0.971016  0
H  H45  1  0.28942211  0.47524214  0.67333409  1  0.05689  0  0.08502  0.08278  0  1.045337  0
C  C46  1  0.50380936  0.66166486  0.49521947  1  1.640494  0  0.217082  0.666268  0  4.25407  0
C  C47  1  0.41322893  0.02414692  0.51565795  1  0.57141  0  0.083298  0.154743  0  3.737872  0
C  C48  1  0.50605149  0.91465893  0.49940819  1  0.069011  0  0.000786  0.039374  0  3.836979  0
C  C49  1  0.49396696  0.08533849  0.50060883  1  0.069452  0  0.000636  0.039656  0  3.836429  0
C  C50  1  0.50931391  0.82691077  0.49829114  1  -0.335676  0  -0.036647  -0.022055  0  4.093332  0
C  C51  1  0.49069768  0.17309042  0.50171808  1  -0.336145  0  -0.036569  -0.021899  0  4.093566  0
C  C52  1  0.96888600  0.57597888  0.52152552  1  0.675945  0  0.117259  0.223843  0  3.727847  0
C  C53  1  0.03111738  0.42402422  0.47847694  1  0.675913  0  0.117273  0.223854  0  3.727699  0
C  C54  1  0.03442624  0.51331092  0.56536601  1  0.004695  0  0.005321  -0.097377  0  3.614163  0
C  C55  1  0.96557782  0.48669155  0.43463644  1  0.004592  0  0.00543  -0.097048  0  3.613854  0
C  C56  1  0.02724591  0.56056633  0.45486853  1  -0.022951  0  -0.060339  -0.145115  0  3.615773  0
C  C57  1  0.49620285  0.33833388  0.50477168  1  1.639906  0  0.21733  0.666377  0  4.253709  0
C  C58  1  0.97275815  0.43943614  0.54513392  1  -0.022996  0  -0.0603  -0.145073  0  3.615685  0
C  C59  1  0.09234590  0.50092650  0.49741826  1  0.101233  0  0.025439  0.006344  0  3.781778  0
C  C60  1  0.90765680  0.49907535  0.50258470  1  0.101138  0  0.025409  0.006284  0  3.781816  0
C  C61  1  0.49981794  0.49435509  0.36550198  1  1.658561  0  0.218812  0.624966  0  4.177092  0
C  C62  1  0.50019706  0.50563679  0.63449077  1  1.659104  0  0.218829  0.62486  0  4.177705  0
C  C63  1  0.18841279  0.50209821  0.49616572  1  0.882755  0  0.24088  0.307905  0  3.911506  0
C  C64  1  0.81159265  0.49790053  0.50383521  1  0.882596  0  0.240871  0.307884  0  3.911793  0
C  C65  1  0.55545353  0.54827253  0.25200826  1  0.58155  0  0.084494  0.152237  0  4.036766  0
C  C66  1  0.44454790  0.45171131  0.74797927  1  0.580108  0  0.084209  0.151876  0  4.037025  0
C  C67  1  0.55428420  0.55115959  0.17927374  1  0.532688  0  0.077991  0.111652  0  4.039839  0
C  C68  1  0.55984455  0.03082151  0.54802891  1  -0.073613  0  -0.089709  -0.229536  0  3.654331  0
C  C69  1  0.44570778  0.44881495  0.82071325  1  0.532234  0  0.077708  0.111176  0  4.040051  0
C  C70  1  0.49563683  0.49887593  0.14232812  1  -0.012622  0  -0.005716  -0.075609  0  3.999895  0
C  C71  1  0.50435456  0.50109112  0.85766664  1  -0.038858  0  -0.005558  -0.074891  0  3.999844  0
C  C72  1  0.43903165  0.44308985  0.17794246  1  0.068094  0  -0.017451  -0.158822  0  3.94735  0
C  C73  1  0.56096656  0.55687903  0.82205853  1  0.094594  0  -0.017445  -0.159307  0  3.947735  0
C  C74  1  0.43919647  0.44171746  0.25041846  1  0.581453  0  0.09516  0.228844  0  4.023724  0
C  C75  1  0.56080710  0.55826198  0.74958511  1  0.581281  0  0.095244  0.228955  0  4.023599  0
C  C76  1  0.49820829  0.49407073  0.28775792  1  -0.037671  0  -0.019049  -0.202092  0  3.933848  0
C  C77  1  0.50180066  0.50591183  0.71223534  1  -0.037441  0  -0.019056  -0.201837  0  3.933618  0
C  C78  1  0.50198422  0.49999140  0.93364698  1  0.9714  0  0.246851  0.276443  0  3.985039  0
C  C79  1  0.44017050  0.96917468  0.45198654  1  -0.074038  0  -0.089681  -0.229184  0  3.654066  0
C  C80  1  0.49799151  0.49997695  0.06634717  1  0.970523  0  0.247043  0.276958  0  3.984759  0
C  C81  1  0.70358846  0.58021048  0.29329528  1  0.368236  0  -0.144007  -0.170721  0  3.915216  0
C  C82  1  0.29641630  0.41977524  0.70667884  1  0.36545  0  -0.143868  -0.171114  0  3.915446  0
C  C83  1  0.59787821  0.68756153  0.14449256  1  0.325296  0  -0.141806  -0.173499  0  3.906101  0
C  C84  1  0.40210422  0.31241180  0.85548767  1  0.325443  0  -0.141603  -0.173286  0  3.905506  0
C  C85  1  0.37556028  0.38619370  0.14074087  1  1.498828  0  0.2303  0.598812  0  4.13512  0
C  C86  1  0.62442844  0.61377520  0.85926936  1  1.499159  0  0.230582  0.59954  0  4.135038  0
C  C87  1  0.41091214  0.32108014  0.31943860  1  0.371053  0  -0.136366  -0.160746  0  3.880639  0
C  C88  1  0.58909754  0.67890735  0.68057685  1  0.370135  0  -0.136468  -0.160647  0  3.880723  0
C  C89  1  0.44768447  0.99192389  0.68114863  1  0.403953  0  -0.136231  -0.168636  0  3.928114  0
C  C90  1  0.47990494  0.96967923  0.56407797  1  0.591712  0  0.087262  0.159672  0  3.733131  0
C  C91  1  0.55232034  0.00807544  0.31886418  1  0.402049  0  -0.136236  -0.168704  0  3.928418  0
C  C92  1  0.26151995  0.99073712  0.53876911  1  0.351417  0  -0.139521  -0.1706  0  3.947769  0
C  C93  1  0.73848957  0.00926532  0.46123906  1  0.35098  0  -0.139634  -0.170525  0  3.947634  0
C  C94  1  0.07435955  0.52385177  0.63576020  1  1.53464  0  0.235427  0.583518  0  4.135634  0
C  C95  1  0.92564112  0.47615009  0.36424379  1  1.5347  0  0.235482  0.583518  0  4.135534  0
C  C96  1  0.98819132  0.71921488  0.54424577  1  0.323564  0  -0.128326  -0.17004  0  3.874249  0
C  C97  1  0.01181067  0.28078823  0.45575254  1  0.323604  0  -0.128339  -0.170063  0  3.874254  0
C  C98  1  0.52010876  0.03031634  0.43593799  1  0.592056  0  0.087196  0.159314  0  3.733806  0
C  C99  1  0.50912427  0.75121820  0.49634215  1  0.106297  0  -0.051778  -0.199117  0  3.990049  0
C  C100  1  0.49088528  0.24877556  0.50365417  1  0.107359  0  -0.052021  -0.199445  0  3.990559  0
C  C101  1  0.58678476  0.97584927  0.48435698  1  0.571543  0  0.083488  0.155155  0  3.737984  0
N  N102  1  0.50462417  0.42565111  0.03437972  1  -0.486635  0  -0.158094  -0.154399  0  3.205897  0
N  N103  1  0.49533998  0.57431666  0.96561281  1  -0.486812  0  -0.157943  -0.15428  0  3.205443  0
N  N104  1  0.50647213  0.42546299  0.96627434  1  -0.608238  0  -0.146828  -0.131311  0  3.203693  0
N  N105  1  0.49349203  0.57450477  0.03371871  1  -0.607526  0  -0.146777  -0.131243  0  3.203476  0
N  N106  1  0.26725583  0.50393181  0.49679416  1  -1.106524  0  -0.265241  -0.266574  0  3.116829  0
N  N107  1  0.73274893  0.49606631  0.50320418  1  -1.106126  0  -0.265239  -0.266577  0  3.116903  0
O  O108  1  0.57891023  0.62110025  0.49453626  1  -1.14533  0  -0.315994  -0.551745  0  2.268176  0
O  O109  1  0.39119192  0.39659385  0.71222696  1  -1.079893  0  -0.203842  -0.172847  0  2.53731  0
O  O110  1  0.61614743  0.59899784  0.14452813  1  -1.072956  0  -0.208996  -0.18872  0  2.561752  0
O  O111  1  0.38383498  0.40097613  0.85544951  1  -1.072508  0  -0.209026  -0.188856  0  2.561566  0
O  O112  1  0.36983943  0.31145143  0.15020009  1  -1.108512  0  -0.293385  -0.488271  0  2.070718  0
O  O113  1  0.32096844  0.42882993  0.09461735  1  -1.104122  0  -0.342509  -0.489681  0  2.200275  0
O  O114  1  0.63014994  0.68851996  0.84981014  1  -1.108256  0  -0.293742  -0.488849  0  2.070676  0
O  O115  1  0.67901141  0.57114644  0.90540417  1  -1.104942  0  -0.342361  -0.48963  0  2.200685  0
O  O116  1  0.37653181  0.39360708  0.28315302  1  -1.075146  0  -0.205868  -0.186024  0  2.546399  0
O  O117  1  0.62347583  0.60637607  0.71685572  1  -1.074542  0  -0.205868  -0.186039  0  2.546506  0
O  O118  1  0.46136265  0.93282564  0.62664785  1  -1.068398  0  -0.211466  -0.193838  0  2.524122  0
O  O119  1  0.42109314  0.37889975  0.50545845  1  -1.145076  0  -0.316058  -0.551796  0  2.267632  0
O  O120  1  0.53865035  0.06717180  0.37336707  1  -1.067565  0  -0.211545  -0.193849  0  2.524687  0
O  O121  1  0.32777732  0.05489385  0.53057185  1  -1.071205  0  -0.213297  -0.194115  0  2.527256  0
O  O122  1  0.67223703  0.94510482  0.46944462  1  -1.070983  0  -0.213372  -0.194332  0  2.527036  0
O  O123  1  0.05845603  0.47895297  0.68493669  1  -1.109226  0  -0.273218  -0.455456  0  2.038912  0
O  O124  1  0.13188542  0.58962472  0.63764659  1  -1.122317  0  -0.32361  -0.485866  0  2.223028  0
O  O125  1  0.94154189  0.52105139  0.31506572  1  -1.109225  0  -0.273225  -0.455507  0  2.038863  0
O  O126  1  0.86811387  0.41037963  0.36235841  1  -1.122314  0  -0.323607  -0.485827  0  2.223266  0
O  O127  1  0.92909477  0.64782451  0.54222907  1  -1.056957  0  -0.19216  -0.173874  0  2.529339  0
O  O128  1  0.07090930  0.35217734  0.45777287  1  -1.057003  0  -0.19219  -0.173894  0  2.52924  0
O  O129  1  0.42388495  0.63184940  0.49566298  1  -1.143967  0  -0.318282  -0.544452  0  2.260905  0
O  O130  1  0.57611977  0.36814874  0.50432452  1  -1.144209  0  -0.318287  -0.54436  0  2.26121  0
O  O131  1  0.57726772  0.48433345  0.39453319  1  -1.155042  0  -0.311891  -0.550623  0  2.330855  0
O  O132  1  0.42274308  0.51567089  0.60545742  1  -1.155178  0  -0.311847  -0.550566  0  2.33086  0
O  O133  1  0.42405290  0.50437614  0.39507527  1  -1.145183  0  -0.307481  -0.532256  0  2.313116  0
O  O134  1  0.57595530  0.49561637  0.60492104  1  -1.145905  0  -0.307499  -0.53229  0  2.313666  0
O  O135  1  0.60881217  0.60339435  0.28775231  1  -1.080639  0  -0.204109  -0.173304  0  2.537012  0
