# generated using pymatgen
data_CaH20C16(N5O4)2
_symmetry_space_group_name_H-M   'P 1'
_cell_length_a   7.78577658
_cell_length_b   11.81098039
_cell_length_c   11.81098226
_cell_angle_alpha   85.36267504
_cell_angle_beta   90.52000512
_cell_angle_gamma   90.51968044
_symmetry_Int_Tables_number   1
_chemical_formula_structural   CaH20C16(N5O4)2
_chemical_formula_sum   'Ca2 H40 C32 N20 O16'
_cell_volume   1082.47230898
_cell_formula_units_Z   2
loop_
 _symmetry_equiv_pos_site_id
 _symmetry_equiv_pos_as_xyz
  1  'x, y, z'
loop_
 _atom_site_type_symbol
 _atom_site_label
 _atom_site_symmetry_multiplicity
 _atom_site_fract_x
 _atom_site_fract_y
 _atom_site_fract_z
 _atom_site_occupancy
 _atom_site_hle17_bader_spin_density
 _atom_site_hle17_ddec_charge
 _atom_site_hle17_ddec_spin_density
 _atom_site_hle17_ddec_sum_bond_order
 _atom_site_hle17_magmom
 _atom_site_hse06_10hf_bader_spin_density
 _atom_site_hse06_10hf_ddec_charge
 _atom_site_hse06_10hf_ddec_spin_density
 _atom_site_hse06_10hf_ddec_sum_bond_order
 _atom_site_hse06_10hf_magmom
 _atom_site_hse06_bader_spin_density
 _atom_site_hse06_ddec_charge
 _atom_site_hse06_ddec_spin_density
 _atom_site_hse06_ddec_sum_bond_order
 _atom_site_hse06_magmom
 _atom_site_pbe_bader_spin_density
 _atom_site_pbe_cm5_charge
 _atom_site_pbe_ddec_charge
 _atom_site_pbe_ddec_spin_density
 _atom_site_pbe_ddec_sum_bond_order
 _atom_site_pbe_magmom
Ca  Ca0  1  0.25000077  0.01353347  0.98646663  1  0  1.542699  0  1.049949  0  0  1.41858  0  1.376328  0  0  1.460734  0  1.333532  0  0  0.82208  1.386646  0  1.406873  0
Ca  Ca1  1  0.75000222  0.98646613  0.01353250  1  0  1.542678  0  1.049995  0  0  1.418582  0  1.376353  0  0  1.460742  0  1.333553  0  0  0.822066  1.386652  0  1.406887  0
H  H2  1  0.54154465  0.14701447  0.86064978  1  0  0.403234  0  0.907879  0  0  0.359436  0  0.996539  0  0  0.371612  0  0.97919  0  0  0.296205  0.350835  0  1.008748  0
H  H3  1  0.95845375  0.13934982  0.85298567  1  0  0.403249  0  0.907845  0  0  0.359459  0  0.996497  0  0  0.371635  0  0.979149  0  0  0.296215  0.350859  0  1.008705  0
H  H4  1  0.45845580  0.85298678  0.13935093  1  0  0.403212  0  0.907895  0  0  0.359424  0  0.996552  0  0  0.3716  0  0.979202  0  0  0.296204  0.350823  0  1.00876  0
H  H5  1  0.04154668  0.86064890  0.14701436  1  0  0.403231  0  0.907859  0  0  0.359434  0  0.996531  0  0  0.371611  0  0.979181  0  0  0.296202  0.350837  0  1.008734  0
H  H6  1  0.54247700  0.18135582  0.99248693  1  0  0.416631  0  0.898938  0  0  0.385717  0  0.963685  0  0  0.397634  0  0.946441  0  0  0.298504  0.377279  0  0.975861  0
H  H7  1  0.95752421  0.00751431  0.81864317  1  0  0.416612  0  0.898961  0  0  0.385715  0  0.963684  0  0  0.397632  0  0.94644  0  0  0.298499  0.377277  0  0.975861  0
H  H8  1  0.45752346  0.81864372  0.00751474  1  0  0.416616  0  0.898958  0  0  0.385715  0  0.963687  0  0  0.397632  0  0.946442  0  0  0.298506  0.377275  0  0.975867  0
H  H9  1  0.04247751  0.99248442  0.18135686  1  0  0.416604  0  0.898978  0  0  0.385698  0  0.963716  0  0  0.397616  0  0.946469  0  0  0.298501  0.377255  0  0.975901  0
H  H10  1  0.24117729  0.22337182  0.08105476  1  0  0.413041  0  0.848921  0  0  0.39475  0  0.906055  0  0  0.403065  0  0.89671  0  0  0.313886  0.388813  0  0.912757  0
H  H11  1  0.25882242  0.91894429  0.77662660  1  0  0.413039  0  0.848902  0  0  0.394745  0  0.906046  0  0  0.40306  0  0.8967  0  0  0.313893  0.388812  0  0.912736  0
H  H12  1  0.75882442  0.77662692  0.91894442  1  0  0.413051  0  0.848904  0  0  0.394761  0  0.906039  0  0  0.403077  0  0.896693  0  0  0.313908  0.388826  0  0.912734  0
H  H13  1  0.74117928  0.08105446  0.22337173  1  0  0.413066  0  0.848887  0  0  0.39478  0  0.906014  0  0  0.403096  0  0.896667  0  0  0.313902  0.388845  0  0.912713  0
H  H14  1  0.04956959  0.20605887  0.03803435  1  0  0.420344  0  0.890448  0  0  0.389221  0  0.955438  0  0  0.400494  0  0.939221  0  0  0.29603  0.381242  0  0.966888  0
H  H15  1  0.45043084  0.96196535  0.79394112  1  0  0.420375  0  0.890413  0  0  0.389245  0  0.955413  0  0  0.400518  0  0.939196  0  0  0.296038  0.381261  0  0.966871  0
H  H16  1  0.95043085  0.79394068  0.96196647  1  0  0.42037  0  0.890426  0  0  0.389235  0  0.955434  0  0  0.400508  0  0.939217  0  0  0.296046  0.38125  0  0.966893  0
H  H17  1  0.54957088  0.03803253  0.20605896  1  0  0.420388  0  0.890384  0  0  0.389258  0  0.955384  0  0  0.400531  0  0.939166  0  0  0.296044  0.381277  0  0.966836  0
H  H18  1  0.44777713  0.51677517  0.57032188  1  0  0.117362  0  0.99006  0  0  0.120166  0  1.062204  0  0  0.124686  0  1.059061  0  0  0.110772  0.116926  0  1.064591  0
H  H19  1  0.05221507  0.42967749  0.48322285  1  0  0.117347  0  0.990033  0  0  0.120165  0  1.062175  0  0  0.124684  0  1.059038  0  0  0.110766  0.116923  0  1.06457  0
H  H20  1  0.55221556  0.48322439  0.42967555  1  0  0.117403  0  0.990014  0  0  0.120216  0  1.062153  0  0  0.124733  0  1.059019  0  0  0.110783  0.116974  0  1.06455  0
H  H21  1  0.94778793  0.57032379  0.51677701  1  0  0.11738  0  0.990052  0  0  0.12019  0  1.06219  0  0  0.124704  0  1.059068  0  0  0.110777  0.116947  0  1.064587  0
H  H22  1  0.27060565  0.65614524  0.65552474  1  0  0.110288  0  0.920408  0  0  0.119136  0  0.982778  0  0  0.122441  0  0.979252  0  0  0.133668  0.116597  0  0.985518  0
H  H23  1  0.22939099  0.34447400  0.34385601  1  0  0.110293  0  0.920328  0  0  0.11914  0  0.982709  0  0  0.122452  0  0.979183  0  0  0.13365  0.116599  0  0.985448  0
H  H24  1  0.72938961  0.34385604  0.34447259  1  0  0.110279  0  0.920342  0  0  0.119149  0  0.982697  0  0  0.122467  0  0.979169  0  0  0.133648  0.116611  0  0.985433  0
H  H25  1  0.77061202  0.65552643  0.65614391  1  0  0.110268  0  0.920335  0  0  0.119134  0  0.982693  0  0  0.122451  0  0.979166  0  0  0.133638  0.116597  0  0.985432  0
H  H26  1  0.22195477  0.44933717  0.95716549  1  0  0.111191  0  0.912155  0  0  0.121328  0  0.971426  0  0  0.124643  0  0.967491  0  0  0.137909  0.11878  0  0.974503  0
H  H27  1  0.27804163  0.04283217  0.55066595  1  0  0.111184  0  0.912144  0  0  0.121318  0  0.971427  0  0  0.124634  0  0.967491  0  0  0.137905  0.118773  0  0.974505  0
H  H28  1  0.77804308  0.55066494  0.04283348  1  0  0.111177  0  0.912147  0  0  0.121312  0  0.971423  0  0  0.124627  0  0.967487  0  0  0.137913  0.118766  0  0.974498  0
H  H29  1  0.72195882  0.95716569  0.44933498  1  0  0.111164  0  0.912206  0  0  0.121297  0  0.971489  0  0  0.124611  0  0.967557  0  0  0.137896  0.11875  0  0.974566  0
H  H30  1  0.38909070  0.29663092  0.88083055  1  0  0.132515  0  0.964222  0  0  0.142921  0  1.021042  0  0  0.147034  0  1.018732  0  0  0.126451  0.139941  0  1.022886  0
H  H31  1  0.11090416  0.11916995  0.70337065  1  0  0.132566  0  0.964176  0  0  0.142897  0  1.02106  0  0  0.147008  0  1.018749  0  0  0.126428  0.139917  0  1.022901  0
H  H32  1  0.61090459  0.70336948  0.11916853  1  0  0.13252  0  0.964238  0  0  0.142875  0  1.021099  0  0  0.146986  0  1.018788  0  0  0.126434  0.139898  0  1.022938  0
H  H33  1  0.88909757  0.88083131  0.29663006  1  0  0.13255  0  0.964199  0  0  0.142894  0  1.021069  0  0  0.147006  0  1.018758  0  0  0.126436  0.139919  0  1.022911  0
H  H34  1  0.05563780  0.60390343  0.92328741  1  0  0.119828  0  0.932707  0  0  0.125217  0  1.008884  0  0  0.128174  0  1.006011  0  0  0.124792  0.123092  0  1.011038  0
H  H35  1  0.44436046  0.07671113  0.39610064  1  0  0.11985  0  0.932736  0  0  0.125262  0  1.008917  0  0  0.128216  0  1.006047  0  0  0.124798  0.123135  0  1.011074  0
H  H36  1  0.94436134  0.39609954  0.07671150  1  0  0.119841  0  0.9327  0  0  0.125249  0  1.008864  0  0  0.128201  0  1.005993  0  0  0.124786  0.123124  0  1.011021  0
H  H37  1  0.55564000  0.92328756  0.60390109  1  0  0.119856  0  0.932676  0  0  0.125283  0  1.008796  0  0  0.128231  0  1.005929  0  0  0.124803  0.123161  0  1.010952  0
H  H38  1  0.05337796  0.68233442  0.78850207  1  0  0.117525  0  0.91528  0  0  0.129285  0  0.978691  0  0  0.131697  0  0.976865  0  0  0.122501  0.12755  0  0.98009  0
H  H39  1  0.44662337  0.21149634  0.31766980  1  0  0.117504  0  0.91536  0  0  0.12929  0  0.978751  0  0  0.131703  0  0.976924  0  0  0.1225  0.127551  0  0.98015  0
H  H40  1  0.94662376  0.31766940  0.21149763  1  0  0.117507  0  0.915293  0  0  0.129294  0  0.978681  0  0  0.131708  0  0.976854  0  0  0.122502  0.127558  0  0.980078  0
H  H41  1  0.55337706  0.78850239  0.68232938  1  0  0.117513  0  0.91528  0  0  0.129295  0  0.97867  0  0  0.131709  0  0.976844  0  0  0.122508  0.127561  0  0.980067  0
C  C42  1  0.52848073  0.30288220  0.66658899  1  0  0.211368  0  3.830204  0  0  0.192124  0  4.099081  0  0  0.195122  0  4.119668  0  0  0.193248  0.190292  0  4.084867  0
C  C43  1  0.97151112  0.33341137  0.69711615  1  0  0.211504  0  3.830094  0  0  0.192252  0  4.098953  0  0  0.195254  0  4.119534  0  0  0.193396  0.190422  0  4.084731  0
C  C44  1  0.47151713  0.69711652  0.33341019  1  0  0.211305  0  3.830093  0  0  0.192105  0  4.098967  0  0  0.195081  0  4.11954  0  0  0.193249  0.190275  0  4.084769  0
C  C45  1  0.02848673  0.66658905  0.30288293  1  0  0.211478  0  3.830074  0  0  0.192241  0  4.098939  0  0  0.195228  0  4.119513  0  0  0.193386  0.190414  0  4.084732  0
C  C46  1  0.43700592  0.39159691  0.71787424  1  0  0.102893  0  3.737039  0  0  0.111069  0  3.973307  0  0  0.119999  0  3.990655  0  0  0.036745  0.105085  0  3.961676  0
C  C47  1  0.06299010  0.28212765  0.60840203  1  0  0.102865  0  3.737346  0  0  0.111028  0  3.973582  0  0  0.119955  0  3.990931  0  0  0.036694  0.105046  0  3.961941  0
C  C48  1  0.56299064  0.60840182  0.28212410  1  0  0.103034  0  3.737081  0  0  0.111089  0  3.973456  0  0  0.120093  0  3.990703  0  0  0.036792  0.105074  0  3.961871  0
C  C49  1  0.93701164  0.71787531  0.39159858  1  0  0.102918  0  3.737153  0  0  0.111014  0  3.973473  0  0  0.11999  0  3.990754  0  0  0.036718  0.105  0  3.961883  0
C  C50  1  0.40251940  0.49607969  0.65614007  1  0  -0.129837  0  3.687656  0  0  -0.152489  0  3.943041  0  0  -0.160824  0  3.961372  0  0  -0.070114  -0.147201  0  3.931048  0
C  C51  1  0.09747650  0.34385893  0.50392078  1  0  -0.129743  0  3.687656  0  0  -0.152438  0  3.943077  0  0  -0.160772  0  3.961405  0  0  -0.070074  -0.147158  0  3.931083  0
C  C52  1  0.59747844  0.50392159  0.34385810  1  0  -0.129959  0  3.687807  0  0  -0.152605  0  3.943251  0  0  -0.160963  0  3.96156  0  0  -0.070146  -0.147315  0  3.931272  0
C  C53  1  0.90252522  0.65614149  0.49607914  1  0  -0.129845  0  3.687688  0  0  -0.152506  0  3.943124  0  0  -0.160857  0  3.961439  0  0  -0.0701  -0.147208  0  3.931133  0
C  C54  1  0.30380525  0.57604432  0.70263738  1  0  0.096689  0  3.599626  0  0  0.053333  0  3.853714  0  0  0.062406  0  3.867997  0  0  0.064401  0.047473  0  3.844143  0
C  C55  1  0.19619006  0.29736063  0.42395656  1  0  0.096697  0  3.599654  0  0  0.05325  0  3.853665  0  0  0.062313  0  3.867957  0  0  0.064376  0.047396  0  3.844091  0
C  C56  1  0.69619132  0.42395694  0.29736163  1  0  0.096742  0  3.599597  0  0  0.053279  0  3.853605  0  0  0.062334  0  3.867906  0  0  0.064365  0.047423  0  3.844028  0
C  C57  1  0.80381038  0.70263809  0.57604347  1  0  0.096747  0  3.599663  0  0  0.053331  0  3.853687  0  0  0.062388  0  3.867989  0  0  0.064404  0.04747  0  3.844116  0
C  C58  1  0.27580172  0.45890591  0.87228433  1  0  0.123673  0  3.566177  0  0  0.079976  0  3.816454  0  0  0.090598  0  3.829038  0  0  0.07682  0.073038  0  3.8081  0
C  C59  1  0.22419395  0.12771387  0.54109700  1  0  0.123846  0  3.56631  0  0  0.080016  0  3.816514  0  0  0.090641  0  3.829091  0  0  0.076836  0.073065  0  3.808176  0
C  C60  1  0.72419611  0.54109624  0.12771294  1  0  0.123813  0  3.566306  0  0  0.080005  0  3.816498  0  0  0.090629  0  3.829081  0  0  0.076824  0.073065  0  3.808151  0
C  C61  1  0.77580393  0.87228482  0.45890388  1  0  0.123812  0  3.56623  0  0  0.080029  0  3.816445  0  0  0.090654  0  3.829024  0  0  0.076828  0.073094  0  3.808097  0
C  C62  1  0.37156655  0.37543002  0.82858971  1  0  -0.113336  0  3.641461  0  0  -0.137216  0  3.892674  0  0  -0.144752  0  3.909379  0  0  -0.060457  -0.132581  0  3.881905  0
C  C63  1  0.12842774  0.17141159  0.62457028  1  0  -0.113501  0  3.641663  0  0  -0.137287  0  3.892869  0  0  -0.144818  0  3.909571  0  0  -0.060464  -0.132643  0  3.88209  0
C  C64  1  0.62843259  0.62457125  0.17140931  1  0  -0.113386  0  3.641494  0  0  -0.137172  0  3.892744  0  0  -0.144726  0  3.909422  0  0  -0.060435  -0.132525  0  3.88198  0
C  C65  1  0.87157142  0.82858967  0.37542959  1  0  -0.113466  0  3.641616  0  0  -0.137209  0  3.892758  0  0  -0.144753  0  3.909444  0  0  -0.060445  -0.132568  0  3.882003  0
C  C66  1  0.13697118  0.64387895  0.85596891  1  0  -0.185981  0  3.633348  0  0  -0.253844  0  3.893858  0  0  -0.254439  0  3.899611  0  0  -0.0542  -0.253363  0  3.890095  0
C  C67  1  0.36302876  0.14403062  0.35612558  1  0  -0.186064  0  3.633558  0  0  -0.254072  0  3.894018  0  0  -0.25467  0  3.899771  0  0  -0.054287  -0.253592  0  3.890257  0
C  C68  1  0.86302927  0.35612570  0.14403159  1  0  -0.186024  0  3.633432  0  0  -0.254003  0  3.893888  0  0  -0.254601  0  3.899641  0  0  -0.05426  -0.253525  0  3.890126  0
C  C69  1  0.63697297  0.85596810  0.64387445  1  0  -0.186115  0  3.633428  0  0  -0.254043  0  3.893903  0  0  -0.254638  0  3.899656  0  0  -0.054284  -0.253574  0  3.890153  0
C  C70  1  0.24480737  0.73672160  0.90698428  1  0  0.671509  0  3.920257  0  0  0.618198  0  4.237127  0  0  0.6512  0  4.228526  0  0  0.21542  0.595749  0  4.242257  0
C  C71  1  0.25519570  0.09301831  0.26327950  1  0  0.671559  0  3.920414  0  0  0.61824  0  4.237308  0  0  0.651245  0  4.228706  0  0  0.215409  0.595803  0  4.242428  0
C  C72  1  0.75519696  0.26327963  0.09301898  1  0  0.671508  0  3.920326  0  0  0.618195  0  4.237209  0  0  0.651201  0  4.228604  0  0  0.215435  0.595747  0  4.242343  0
C  C73  1  0.74480602  0.90697957  0.73672059  1  0  0.671556  0  3.920281  0  0  0.618244  0  4.23717  0  0  0.651249  0  4.228564  0  0  0.215433  0.595799  0  4.242297  0
N  N74  1  0.57907789  0.30996139  0.55685218  1  0  -0.305769  0  2.988225  0  0  -0.28229  0  3.281819  0  0  -0.291489  0  3.298571  0  0  -0.224609  -0.27573  0  3.270085  0
N  N75  1  0.92091855  0.44315015  0.69003742  1  0  -0.305769  0  2.988142  0  0  -0.282296  0  3.281743  0  0  -0.291487  0  3.298479  0  0  -0.224647  -0.275749  0  3.270038  0
N  N76  1  0.42091998  0.69003816  0.44314780  1  0  -0.305753  0  2.988163  0  0  -0.28227  0  3.281747  0  0  -0.29147  0  3.298502  0  0  -0.224605  -0.275715  0  3.270023  0
N  N77  1  0.07908189  0.55685111  0.30996245  1  0  -0.305769  0  2.988168  0  0  -0.2823  0  3.281786  0  0  -0.291496  0  3.298532  0  0  -0.224631  -0.275736  0  3.270045  0
N  N78  1  0.64935546  0.20939440  0.54226904  1  0  -0.151445  0  2.980525  0  0  -0.146281  0  3.304201  0  0  -0.148744  0  3.316936  0  0  -0.130566  -0.144308  0  3.295319  0
N  N79  1  0.85064284  0.45773426  0.79060368  1  0  -0.151529  0  2.98053  0  0  -0.146377  0  3.304214  0  0  -0.14884  0  3.31695  0  0  -0.1306  -0.144403  0  3.295336  0
N  N80  1  0.35064373  0.79060427  0.45773353  1  0  -0.151462  0  2.980487  0  0  -0.146313  0  3.304175  0  0  -0.148775  0  3.316906  0  0  -0.130572  -0.144339  0  3.295294  0
N  N81  1  0.14935630  0.54226702  0.20939533  1  0  -0.151485  0  2.980592  0  0  -0.146333  0  3.304277  0  0  -0.148795  0  3.317011  0  0  -0.130592  -0.144358  0  3.29539  0
N  N82  1  0.64196206  0.14286403  0.63991436  1  0  -0.10296  0  2.958454  0  0  -0.096467  0  3.26935  0  0  -0.098662  0  3.283175  0  0  -0.107602  -0.094765  0  3.259881  0
N  N83  1  0.85803570  0.36008723  0.85713459  1  0  -0.102873  0  2.958361  0  0  -0.096372  0  3.269222  0  0  -0.098567  0  3.283048  0  0  -0.107588  -0.094674  0  3.25976  0
N  N84  1  0.35803841  0.85713634  0.36008811  1  0  -0.102947  0  2.958244  0  0  -0.096439  0  3.269141  0  0  -0.098636  0  3.282964  0  0  -0.107576  -0.094734  0  3.259664  0
N  N85  1  0.14196215  0.63991234  0.14286454  1  0  -0.102883  0  2.958409  0  0  -0.096383  0  3.269275  0  0  -0.098578  0  3.283102  0  0  -0.107564  -0.094682  0  3.259805  0
N  N86  1  0.56686211  0.19976883  0.71883055  1  0  -0.281354  0  3.044756  0  0  -0.235542  0  3.313331  0  0  -0.245639  0  3.328586  0  0  -0.19539  -0.228586  0  3.302985  0
N  N87  1  0.93313477  0.28117211  0.80023067  1  0  -0.281489  0  3.044762  0  0  -0.235652  0  3.313312  0  0  -0.245754  0  3.328569  0  0  -0.195449  -0.228695  0  3.302963  0
N  N88  1  0.43313579  0.80023154  0.28117106  1  0  -0.281338  0  3.044639  0  0  -0.235542  0  3.313208  0  0  -0.24564  0  3.328468  0  0  -0.19542  -0.22858  0  3.302852  0
N  N89  1  0.06686439  0.71882830  0.19976925  1  0  -0.28152  0  3.04475  0  0  -0.235683  0  3.313302  0  0  -0.245787  0  3.328564  0  0  -0.195488  -0.228724  0  3.302952  0
N  N90  1  0.24038058  0.55679258  0.80911053  1  0  0.014196  0  3.596343  0  0  0.108392  0  3.803511  0  0  0.095054  0  3.830076  0  0  -0.212614  0.117014  0  3.78556  0
N  N91  1  0.25961605  0.19088838  0.44321065  1  0  0.014077  0  3.596663  0  0  0.108617  0  3.80343  0  0  0.09528  0  3.83  0  0  -0.212532  0.117238  0  3.785482  0
N  N92  1  0.75961728  0.44320953  0.19088843  1  0  0.014056  0  3.596576  0  0  0.108564  0  3.803397  0  0  0.095226  0  3.82997  0  0  -0.212543  0.117187  0  3.785444  0
N  N93  1  0.74038571  0.80911115  0.55679187  1  0  0.014171  0  3.596491  0  0  0.108554  0  3.803433  0  0  0.095218  0  3.83  0  0  -0.21254  0.117176  0  3.785487  0
O  O94  1  0.15627715  0.82075787  0.93405277  1  0  -0.698321  0  2.05938  0  0  -0.628524  0  2.291941  0  0  -0.657124  0  2.283043  0  0  -0.336021  -0.608169  0  2.297418  0
O  O95  1  0.34372115  0.06594980  0.17924497  1  0  -0.698241  0  2.059458  0  0  -0.628497  0  2.292101  0  0  -0.657097  0  2.283202  0  0  -0.336008  -0.608154  0  2.297578  0
O  O96  1  0.84372204  0.17924335  0.06594964  1  0  -0.698182  0  2.059352  0  0  -0.628504  0  2.292027  0  0  -0.657103  0  2.283128  0  0  -0.336056  -0.608162  0  2.297513  0
O  O97  1  0.65627803  0.93404888  0.82075676  1  0  -0.69829  0  2.059388  0  0  -0.628541  0  2.292007  0  0  -0.657141  0  2.283106  0  0  -0.336038  -0.608186  0  2.297479  0
O  O98  1  0.40487189  0.72598919  0.91602333  1  0  -0.609388  0  1.939106  0  0  -0.56559  0  2.161214  0  0  -0.588692  0  2.152041  0  0  -0.316684  -0.549434  0  2.167087  0
O  O99  1  0.09513086  0.08397651  0.27400936  1  0  -0.609428  0  1.939141  0  0  -0.5656  0  2.161218  0  0  -0.588702  0  2.152043  0  0  -0.31665  -0.549452  0  2.167095  0
O  O100  1  0.59513115  0.27400950  0.08397924  1  0  -0.60944  0  1.939141  0  0  -0.565574  0  2.161211  0  0  -0.588676  0  2.152032  0  0  -0.31665  -0.549421  0  2.167088  0
O  O101  1  0.90487086  0.91601882  0.72599088  1  0  -0.609407  0  1.939116  0  0  -0.565614  0  2.161231  0  0  -0.588716  0  2.152054  0  0  -0.316668  -0.549461  0  2.167106  0
O  O102  1  0.52007242  0.11740171  0.94238300  1  0  -0.925115  0  1.914613  0  0  -0.859523  0  2.126533  0  0  -0.883923  0  2.093305  0  0  -0.641635  -0.84172  0  2.149505  0
O  O103  1  0.97992782  0.05761761  0.88259752  1  0  -0.925089  0  1.914607  0  0  -0.859494  0  2.126495  0  0  -0.883894  0  2.093268  0  0  -0.641634  -0.841693  0  2.149465  0
O  O104  1  0.47992931  0.88259785  0.05761783  1  0  -0.925075  0  1.914624  0  0  -0.859482  0  2.126526  0  0  -0.883881  0  2.093297  0  0  -0.641638  -0.841678  0  2.149497  0
O  O105  1  0.02007390  0.94238197  0.11740245  1  0  -0.925082  0  1.914666  0  0  -0.859494  0  2.126604  0  0  -0.883894  0  2.093373  0  0  -0.641634  -0.841689  0  2.149578  0
O  O106  1  0.17281148  0.21259006  0.01329341  1  0  -0.850156  0  1.826006  0  0  -0.801815  0  2.00877  0  0  -0.821962  0  1.983552  0  0  -0.608494  -0.787169  0  2.026232  0
O  O107  1  0.32719101  0.98670679  0.78741008  1  0  -0.850166  0  1.825952  0  0  -0.801823  0  2.008721  0  0  -0.821971  0  1.983504  0  0  -0.608509  -0.787193  0  2.026213  0
O  O108  1  0.82719154  0.78740951  0.98670742  1  0  -0.85017  0  1.825977  0  0  -0.801836  0  2.00876  0  0  -0.821986  0  1.983542  0  0  -0.608539  -0.787209  0  2.026262  0
O  O109  1  0.67281198  0.01329196  0.21258910  1  0  -0.850215  0  1.825947  0  0  -0.801877  0  2.008714  0  0  -0.822027  0  1.983493  0  0  -0.608525  -0.78724  0  2.026184  0
