# generated using pymatgen
data_MnH16C24(N2O5)2
_symmetry_space_group_name_H-M   'P 1'
_cell_length_a   6.75718019
_cell_length_b   12.58559540
_cell_length_c   14.71818309
_cell_angle_alpha   115.30444051
_cell_angle_beta   99.05507724
_cell_angle_gamma   90.00757150
_symmetry_Int_Tables_number   1
_chemical_formula_structural   MnH16C24(N2O5)2
_chemical_formula_sum   'Mn2 H32 C48 N8 O20'
_cell_volume   1114.28941839
_cell_formula_units_Z   2
loop_
 _symmetry_equiv_pos_site_id
 _symmetry_equiv_pos_as_xyz
  1  'x, y, z'
loop_
 _atom_site_type_symbol
 _atom_site_label
 _atom_site_symmetry_multiplicity
 _atom_site_fract_x
 _atom_site_fract_y
 _atom_site_fract_z
 _atom_site_occupancy
 _atom_site_hle17_ddec_charge
 _atom_site_hle17_ddec_spin_density
 _atom_site_hle17_ddec_sum_bond_order
 _atom_site_hle17_magmom
 _atom_site_hse06_10hf_ddec_charge
 _atom_site_hse06_10hf_ddec_spin_density
 _atom_site_hse06_10hf_ddec_sum_bond_order
 _atom_site_hse06_10hf_magmom
 _atom_site_hse06_ddec_charge
 _atom_site_hse06_ddec_spin_density
 _atom_site_hse06_ddec_sum_bond_order
 _atom_site_hse06_magmom
 _atom_site_pbe_cm5_charge
 _atom_site_pbe_ddec_charge
 _atom_site_pbe_ddec_spin_density
 _atom_site_pbe_ddec_sum_bond_order
 _atom_site_pbe_magmom
Mn  Mn0  1  0.74980455  0.37015538  0.00000533  1  1.163917  -4.782723  1.83579  -4.666  0.992245  -4.693185  2.352593  -4.509  1.045045  -4.747143  2.282482  -4.583  0.632405  0.953468  -4.632474  2.404128  -4.428
Mn  Mn1  1  0.25021856  0.62984858  0.99998905  1  1.163928  -4.78284  1.835456  -4.666  0.992228  -4.693423  2.352184  -4.509  1.045049  -4.747332  2.282076  -4.583  0.632417  0.953427  -4.63277  2.40372  -4.429
H  H2  1  0.55401567  0.67533959  0.86752080  1  0.380625  0.000609  0.899815  0.0  0.352328  0.000565  0.97444  0.0  0.364805  0.000613  0.961744  0.0  0.302446  0.343609  0.0005  0.983114  0.0
H  H3  1  0.94614436  0.80803082  0.13197694  1  0.381583  0.000606  0.898947  0.0  0.352911  0.000561  0.974131  0.0  0.365375  0.000609  0.961464  0.0  0.302452  0.344201  0.000495  0.982788  0.0
H  H4  1  0.44596735  0.32462816  0.13248980  1  0.380528  0.00061  0.900055  0.0  0.352402  0.000565  0.974401  0.0  0.364879  0.000612  0.961705  0.0  0.302476  0.343681  0.000501  0.983081  0.0
H  H5  1  0.05389840  0.19194422  0.86801765  1  0.3817  0.000607  0.898856  0.0  0.353012  0.000561  0.97404  0.0  0.365474  0.000609  0.961375  0.0  0.302498  0.344304  0.000496  0.982698  0.0
H  H6  1  0.64936637  0.29826200  0.70792812  1  0.111447  0.000333  0.969848  0.0  0.115089  0.000223  1.042221  0.0  0.11939  0.000257  1.037747  0.0  0.112072  0.11188  0.000172  1.045544  0.0
H  H7  1  0.85051346  0.59051611  0.29147721  1  0.111548  0.00034  0.968913  0.0  0.115095  0.000225  1.04172  0.0  0.119421  0.000259  1.037213  0.0  0.11194  0.111874  0.000174  1.045074  0.0
H  H8  1  0.35068355  0.70172102  0.29207595  1  0.111482  0.000333  0.969739  0.0  0.115077  0.000223  1.042165  0.0  0.119378  0.000257  1.037692  0.0  0.112086  0.111881  0.000174  1.04547  0.0
H  H9  1  0.14945203  0.40947613  0.70852354  1  0.111619  0.000334  0.968816  0.0  0.115197  0.000224  1.041568  0.0  0.119525  0.000259  1.03706  0.0  0.111976  0.111979  0.000172  1.044923  0.0
H  H10  1  0.71554012  0.44342490  0.49623575  1  0.12222  0.000101  0.942985  0.0  0.127579  2.2e-05  1.007971  0.0  0.131508  2.8e-05  1.004029  0.0  0.114789  0.12475  1.8e-05  1.010771  0.0
H  H11  1  0.78461925  0.94731618  0.50326906  1  0.122372  0.000108  0.944144  0.0  0.127378  2.2e-05  1.009469  0.0  0.13132  2.8e-05  1.005493  0.0  0.114685  0.124546  1.8e-05  1.012277  0.0
H  H12  1  0.28444360  0.55657980  0.50377817  1  0.122094  9.9e-05  0.943024  0.0  0.127575  2.2e-05  1.007925  0.0  0.131505  2.9e-05  1.003985  0.0  0.114791  0.12475  1.9e-05  1.01072  0.0
H  H13  1  0.21540925  0.05268166  0.49672547  1  0.122584  0.000101  0.944022  0.0  0.127719  2.2e-05  1.009177  0.0  0.131669  2.9e-05  1.005192  0.0  0.114846  0.124884  1.8e-05  1.011986  0.0
H  H14  1  0.65214649  0.64109951  0.62347915  1  0.12405  -4.8e-05  0.957023  0.0  0.123866  -4e-06  1.032232  0.0  0.129026  -1e-06  1.028424  0.0  0.107714  0.120171  -8e-06  1.035178  0.0
H  H15  1  0.84818091  0.01777826  0.37610363  1  0.123577  -3.8e-05  0.957391  0.0  0.123619  -3e-06  1.032563  0.0  0.128781  -2e-06  1.028766  0.0  0.107343  0.119876  -6e-06  1.035556  0.0
H  H16  1  0.34782058  0.35890072  0.37653956  1  0.124134  -4.7e-05  0.956799  0.0  0.12393  -4e-06  1.032055  0.0  0.129089  -2e-06  1.028244  0.0  0.107743  0.120203  -7e-06  1.035033  0.0
H  H17  1  0.15184949  0.98221251  0.62388164  1  0.123505  -3.9e-05  0.957513  0.0  0.1235  -3e-06  1.03271  0.0  0.128682  -1e-06  1.028891  0.0  0.107321  0.119735  -5e-06  1.035723  0.0
H  H18  1  0.76377608  0.00191750  0.08115864  1  0.108394  -0.000231  0.949325  0.0  0.118394  -0.000277  1.008684  0.0  0.121905  -0.000207  1.007431  0.0  0.107976  0.115922  -0.000345  1.009702  0.0
H  H19  1  0.73559345  0.92077047  0.91885267  1  0.108044  -0.000229  0.950198  0.0  0.118871  -0.000277  1.008586  0.0  0.122398  -0.000207  1.007296  0.0  0.108067  0.116389  -0.000345  1.009634  0.0
H  H20  1  0.23620140  0.99810299  0.91884907  1  0.108239  -0.000224  0.94938  0.0  0.118247  -0.000276  1.008757  0.0  0.121764  -0.000207  1.007484  0.0  0.107914  0.115769  -0.000345  1.009786  0.0
H  H21  1  0.26437691  0.07924465  0.08114109  1  0.108161  -0.000225  0.950053  0.0  0.119008  -0.000277  1.00844  0.0  0.122535  -0.000207  1.007145  0.0  0.108167  0.116522  -0.000345  1.009496  0.0
H  H22  1  0.88463882  0.10878761  0.26708997  1  0.104645  0.000155  0.94689  0.0  0.113767  2.8e-05  1.009606  0.0  0.11643  3.9e-05  1.007279  0.0  0.110821  0.11189  1.5e-05  1.011301  0.0
H  H23  1  0.61553454  0.84177246  0.73286092  1  0.1055  0.000147  0.944332  0.0  0.113853  2.9e-05  1.007722  0.0  0.116552  4e-05  1.005398  0.0  0.110496  0.111932  1.5e-05  1.009453  0.0
H  H24  1  0.11536266  0.89123475  0.73291587  1  0.104636  0.00015  0.946731  0.0  0.113683  2.8e-05  1.009547  0.0  0.116332  3.9e-05  1.007215  0.0  0.110727  0.111825  1.1e-05  1.011191  0.0
H  H25  1  0.38443714  0.15824265  0.26712884  1  0.105462  0.000148  0.944454  0.0  0.113824  2.9e-05  1.007785  0.0  0.116527  3.9e-05  1.005452  0.0  0.110457  0.111903  1.4e-05  1.009514  0.0
H  H26  1  0.97301443  0.32713451  0.34478281  1  0.11253  -0.000231  0.95162  0.0  0.119996  -0.000236  1.014211  0.0  0.122437  -0.000185  1.01383  0.0  0.110566  0.118391  -0.000287  1.014493  0.0
H  H27  1  0.52761446  0.98242093  0.65511403  1  0.112259  -0.000234  0.952427  0.0  0.119809  -0.000236  1.015012  0.0  0.122236  -0.000186  1.01465  0.0  0.110402  0.118212  -0.000287  1.015289  0.0
H  H28  1  0.02700623  0.67288793  0.65521746  1  0.112753  -0.000238  0.951638  0.0  0.120209  -0.000236  1.014167  0.0  0.122646  -0.000186  1.013785  0.0  0.110629  0.118602  -0.000287  1.014455  0.0
H  H29  1  0.47239192  0.01759614  0.34487931  1  0.112246  -0.000227  0.952291  0.0  0.119824  -0.000236  1.014858  0.0  0.122252  -0.000185  1.014493  0.0  0.110427  0.118226  -0.000287  1.015136  0.0
H  H30  1  0.94518293  0.42694202  0.22760065  1  0.073612  8.9e-05  0.96382  0.0  0.083487  -0.000264  1.028478  0.0  0.084712  -0.000121  1.027733  0.0  0.115737  0.082666  -0.000411  1.029028  -0.001
H  H31  1  0.55491675  0.19937841  0.77234442  1  0.073537  9.3e-05  0.964936  0.0  0.083068  -0.000254  1.030024  0.0  0.084329  -0.000111  1.029235  0.0  0.1158  0.08224  -0.0004  1.030566  -0.001
H  H32  1  0.05479910  0.57307139  0.77239050  1  0.073618  8.4e-05  0.963863  0.0  0.083432  -0.000265  1.028587  0.0  0.084687  -0.000122  1.027809  0.0  0.115689  0.08261  -0.000413  1.029138  -0.001
H  H33  1  0.44511699  0.80064233  0.22765130  1  0.073492  9.2e-05  0.965153  0.0  0.083086  -0.000254  1.03015  0.0  0.084346  -0.000112  1.029361  0.0  0.115842  0.082258  -0.000401  1.03069  -0.001
C  C34  1  0.57967099  0.49881650  0.86491962  1  0.703499  -0.015382  3.830427  -0.016  0.645068  -0.024429  4.126947  -0.023  0.683532  -0.018204  4.116752  -0.018  0.23004  0.617801  -0.031323  4.133745  -0.028
C  C35  1  0.92020661  0.63410942  0.13457840  1  0.703488  -0.015427  3.831518  -0.016  0.645243  -0.024474  4.128036  -0.023  0.683726  -0.018243  4.11782  -0.018  0.230298  0.617977  -0.031378  4.134841  -0.028
C  C36  1  0.42033698  0.50117067  0.13507311  1  0.702843  -0.015356  3.830909  -0.016  0.64449  -0.024401  4.127455  -0.023  0.682952  -0.018188  4.117267  -0.018  0.229688  0.617225  -0.031289  4.134244  -0.028
C  C37  1  0.07977273  0.36588468  0.86542729  1  0.703614  -0.015407  3.831678  -0.016  0.645448  -0.024466  4.128083  -0.023  0.683931  -0.018235  4.117864  -0.018  0.230418  0.618175  -0.031359  4.134895  -0.028
C  C38  1  0.61518096  0.48397253  0.76303075  1  -0.211265  0.001357  3.743199  0.001  -0.19325  0.000605  3.987884  0.001  -0.209652  0.001088  4.009486  0.001  -0.032999  -0.18283  7.8e-05  3.974191  0.001
C  C39  1  0.88485268  0.72117138  0.23646914  1  -0.21057  0.001416  3.744502  0.001  -0.192417  0.00061  3.989782  0.001  -0.208793  0.001096  4.011427  0.001  -0.032869  -0.182008  6.8e-05  3.97605  0.001
C  C40  1  0.38483305  0.51601117  0.23697063  1  -0.210971  0.001377  3.742701  0.001  -0.193305  0.000591  3.987721  0.001  -0.209708  0.001088  4.009331  0.001  -0.033087  -0.18288  7e-05  3.974021  0.001
C  C41  1  0.11512192  0.27882267  0.76353081  1  -0.210791  0.00134  3.74434  0.001  -0.192678  0.00061  3.989661  0.001  -0.209051  0.001092  4.011299  0.001  -0.032968  -0.18227  8.3e-05  3.975938  0.001
C  C42  1  0.64821384  0.37361335  0.69024113  1  -0.06027  -0.002938  3.745049  -0.003  -0.101377  -0.003869  4.010099  -0.003  -0.094277  -0.00278  4.027764  -0.002  -0.073009  -0.105927  -0.005869  3.998378  -0.005
C  C43  1  0.85179953  0.68356605  0.30924287  1  -0.061154  -0.002983  3.744791  -0.003  -0.102402  -0.003877  4.010487  -0.003  -0.095248  -0.002787  4.027992  -0.002  -0.073534  -0.106989  -0.005881  3.998825  -0.005
C  C44  1  0.35180804  0.62637480  0.30975964  1  -0.060249  -0.00295  3.744699  -0.003  -0.101213  -0.003855  4.009637  -0.003  -0.094123  -0.002781  4.027312  -0.002  -0.072883  -0.105775  -0.005863  3.997924  -0.005
C  C45  1  0.14817724  0.31642096  0.69075397  1  -0.061126  -0.002919  3.744955  -0.003  -0.102407  -0.003873  4.0106  -0.003  -0.095254  -0.002782  4.028106  -0.002  -0.073584  -0.10698  -0.005875  3.998907  -0.005
C  C46  1  0.68080917  0.35926974  0.59473912  1  0.02385  0.001374  3.740895  0.001  0.014182  0.000745  4.00799  0.001  0.004895  0.000942  4.032494  0.001  0.059091  0.020031  0.000731  3.991585  0.001
C  C47  1  0.81927692  0.76466556  0.40476684  1  0.024291  0.001395  3.741331  0.001  0.014852  0.00075  4.008395  0.001  0.005586  0.000945  4.032904  0.001  0.059877  0.02069  0.000727  3.991978  0.001
C  C48  1  0.31918715  0.64071651  0.40526207  1  0.023673  0.001393  3.741156  0.001  0.014142  0.000739  4.00803  0.001  0.004858  0.000943  4.032539  0.001  0.058965  0.019989  0.000725  3.99162  0.001
C  C49  1  0.18072066  0.23533302  0.59523620  1  0.024206  0.001368  3.741511  0.001  0.014896  0.000747  4.008425  0.001  0.005633  0.000944  4.032935  0.001  0.059872  0.020739  0.000727  3.992003  0.001
C  C50  1  0.68567446  0.45560396  0.57039987  1  -0.041818  -0.00213  3.706482  -0.002  -0.073388  -0.002662  3.969682  -0.002  -0.066507  -0.002057  3.985325  -0.002  -0.068682  -0.077541  -0.003731  3.958943  -0.003
C  C51  1  0.81445122  0.88531820  0.42910675  1  -0.043345  -0.002177  3.709504  -0.002  -0.074833  -0.00267  3.973426  -0.002  -0.06795  -0.002065  3.989086  -0.002  -0.069301  -0.078959  -0.003746  3.962602  -0.003
C  C52  1  0.31430492  0.54439101  0.42960478  1  -0.0417  -0.00214  3.707179  -0.002  -0.073424  -0.002656  3.970297  -0.002  -0.066548  -0.002057  3.985943  -0.002  -0.068679  -0.077566  -0.003729  3.959533  -0.003
C  C53  1  0.18556290  0.11467250  0.57088223  1  -0.043712  -0.002126  3.709348  -0.002  -0.07535  -0.002671  3.973267  -0.002  -0.068476  -0.002063  3.988938  -0.002  -0.069486  -0.079474  -0.003743  3.962432  -0.003
C  C54  1  0.65014542  0.56562674  0.64139907  1  -0.18503  0.001798  3.700209  0.001  -0.203341  0.000957  3.962447  0.001  -0.214125  0.001216  3.981238  0.001  -0.096201  -0.196495  0.000875  3.949983  0.001
C  C55  1  0.85012799  0.92440601  0.35814947  1  -0.183522  0.001834  3.698697  0.001  -0.201475  0.000958  3.960674  0.001  -0.21231  0.001223  3.979623  0.001  -0.095613  -0.194588  0.000876  3.948173  0.001
C  C56  1  0.34982734  0.43437350  0.35861321  1  -0.185229  0.001821  3.700255  0.001  -0.203547  0.000955  3.962466  0.001  -0.214337  0.001217  3.981274  0.001  -0.096349  -0.196663  0.000863  3.950012  0.001
C  C57  1  0.14987902  0.07558643  0.64184377  1  -0.183303  0.001765  3.698587  0.001  -0.201186  0.000959  3.960588  0.001  -0.212037  0.001218  3.979535  0.001  -0.09557  -0.19428  0.000872  3.948103  0.001
C  C58  1  0.61378151  0.58160477  0.73805246  1  0.366264  -0.00207  3.763867  -0.002  0.346104  -0.00267  4.026382  -0.002  0.36519  -0.002162  4.038927  -0.002  0.10945  0.333265  -0.003373  4.017844  -0.003
C  C59  1  0.88647750  0.84377999  0.26146844  1  0.366862  -0.002113  3.763753  -0.002  0.345807  -0.002676  4.027869  -0.002  0.364838  -0.00217  4.040522  -0.002  0.109771  0.333007  -0.003376  4.019235  -0.003
C  C60  1  0.38621111  0.41838502  0.26195862  1  0.366214  -0.00209  3.763142  -0.002  0.346214  -0.002664  4.025669  -0.002  0.365299  -0.002161  4.038211  -0.002  0.109574  0.333373  -0.003367  4.017121  -0.003
C  C61  1  0.11352579  0.15620713  0.73851991  1  0.367071  -0.002056  3.76335  -0.002  0.345962  -0.002676  4.027544  -0.002  0.364994  -0.002166  4.040193  -0.002  0.109808  0.333159  -0.003386  4.018922  -0.003
C  C62  1  0.78769614  0.15866934  0.05566562  1  0.171763  -0.002542  3.762636  -0.003  0.16819  -0.004725  4.002986  -0.004  0.174991  -0.003944  4.022361  -0.004  0.120591  0.163442  -0.00566  3.98994  -0.005
C  C63  1  0.71163020  0.10301824  0.94436329  1  0.17024  -0.002581  3.763367  -0.003  0.168218  -0.00472  4.002791  -0.004  0.174933  -0.003941  4.022249  -0.004  0.119963  0.163526  -0.00566  3.989694  -0.005
C  C64  1  0.21230256  0.84134243  0.94433415  1  0.171635  -0.002543  3.762549  -0.003  0.167917  -0.004721  4.003057  -0.004  0.174714  -0.003941  4.022436  -0.004  0.120474  0.16317  -0.005647  3.990008  -0.005
C  C65  1  0.28836098  0.89699436  0.05563358  1  0.170288  -0.002551  3.763572  -0.003  0.168476  -0.004717  4.002844  -0.004  0.17517  -0.003937  4.022335  -0.004  0.120061  0.163783  -0.005651  3.989741  -0.005
C  C66  1  0.80502153  0.09617326  0.11516089  1  -0.142599  0.002112  3.706914  0.001  -0.162405  0.00132  3.959761  0.001  -0.169231  0.001914  3.980511  0.001  -0.07922  -0.157923  0.000851  3.945801  0.001
C  C67  1  0.69445421  0.98103205  0.88483947  1  -0.141988  0.002145  3.708762  0.001  -0.162895  0.00132  3.960803  0.001  -0.169699  0.001916  3.981579  0.001  -0.079013  -0.158438  0.000865  3.946826  0.001
C  C68  1  0.19496850  0.90384197  0.88483823  1  -0.142301  0.002076  3.706838  0.001  -0.162084  0.001318  3.959672  0.001  -0.168901  0.001913  3.98042  0.001  -0.079072  -0.15761  0.000855  3.945721  0.001
C  C69  1  0.30551762  0.01898219  0.11515543  1  -0.142118  0.002098  3.708523  0.001  -0.16311  0.00132  3.960498  0.001  -0.169906  0.001917  3.981275  0.001  -0.0791  -0.158654  0.000854  3.946527  0.001
C  C70  1  0.87194574  0.15624353  0.21997103  1  0.019628  -0.003342  3.692277  -0.003  -0.001856  -0.00482  3.944769  -0.004  0.001991  -0.004215  3.963262  -0.003  -0.059354  -0.004149  -0.005723  3.931866  -0.004
C  C71  1  0.62805773  0.93633890  0.77999187  1  0.017847  -0.003348  3.693134  -0.003  -0.002627  -0.004821  3.945587  -0.004  0.001156  -0.004216  3.96404  -0.003  -0.05968  -0.004882  -0.005731  3.932722  -0.004
C  C72  1  0.12805227  0.84377441  0.78003366  1  0.019539  -0.003323  3.692696  -0.003  -0.00189  -0.004814  3.945145  -0.004  0.001975  -0.004211  3.963618  -0.003  -0.05942  -0.004184  -0.005713  3.932264  -0.004
C  C73  1  0.37191585  0.06367712  0.22000514  1  0.017836  -0.003323  3.693012  -0.003  -0.002562  -0.004818  3.945389  -0.004  0.001224  -0.004214  3.963835  -0.003  -0.05972  -0.004818  -0.005724  3.932529  -0.004
C  C74  1  0.92145771  0.27718819  0.26309930  1  -0.104358  0.001901  3.695272  0.001  -0.115847  0.001234  3.943366  0.001  -0.12333  0.001856  3.966004  0.001  -0.075892  -0.110803  0.000723  3.927804  0.0
C  C75  1  0.57880217  0.01413745  0.73682086  1  -0.103322  0.001943  3.695455  0.001  -0.115222  0.001234  3.943341  0.001  -0.122683  0.001857  3.965948  0.001  -0.075087  -0.110197  0.000731  3.927802  0.0
C  C76  1  0.07854633  0.72283327  0.73689889  1  -0.104563  0.001918  3.695703  0.001  -0.116007  0.00123  3.943702  0.001  -0.123485  0.001854  3.966342  0.001  -0.075866  -0.110979  0.000722  3.928157  0.0
C  C77  1  0.42119102  0.98588218  0.26317258  1  -0.103245  0.00189  3.6956  0.001  -0.115207  0.001234  3.943467  0.001  -0.122667  0.001857  3.966072  0.001  -0.07504  -0.110185  0.000729  3.92793  0.0
C  C78  1  0.90449668  0.33303006  0.19879864  1  0.140766  -0.003598  3.704222  -0.003  0.110611  -0.005658  3.955607  -0.005  0.117309  -0.00481  3.974817  -0.004  0.054694  0.106132  -0.006635  3.94233  -0.005
C  C79  1  0.59543734  0.13426718  0.80116523  1  0.140845  -0.003612  3.704959  -0.003  0.11079  -0.005652  3.956561  -0.005  0.117476  -0.004806  3.975742  -0.004  0.053909  0.106326  -0.006636  3.943271  -0.005
C  C80  1  0.09550232  0.66698610  0.80119867  1  0.140756  -0.003591  3.704581  -0.003  0.110648  -0.005653  3.95592  -0.005  0.117317  -0.004808  3.975125  -0.004  0.054861  0.106171  -0.00663  3.942647  -0.005
C  C81  1  0.40457253  0.86575256  0.19883338  1  0.140796  -0.003585  3.705392  -0.003  0.110759  -0.00565  3.957003  -0.005  0.117447  -0.004803  3.976185  -0.004  0.053882  0.106295  -0.006632  3.943705  -0.005
N  N82  1  0.83870077  0.27611959  0.09794076  1  -0.365651  -0.027103  3.227047  -0.016  -0.300693  -0.030757  3.495307  -0.015  -0.318886  -0.027153  3.508784  -0.012  -0.318446  -0.287346  -0.03418  3.485826  -0.018
N  N83  1  0.66076495  0.17816971  0.90205433  1  -0.365474  -0.027092  3.228425  -0.016  -0.300918  -0.030781  3.496163  -0.015  -0.319092  -0.027176  3.509665  -0.012  -0.31782  -0.28759  -0.034199  3.486675  -0.018
N  N84  1  0.16130342  0.72389130  0.90205019  1  -0.365557  -0.027094  3.227332  -0.016  -0.300568  -0.030758  3.495619  -0.015  -0.318752  -0.027151  3.509103  -0.012  -0.318469  -0.28723  -0.034181  3.486138  -0.018
N  N85  1  0.33923582  0.82184910  0.09794337  1  -0.365373  -0.027103  3.228475  -0.016  -0.30102  -0.030776  3.496354  -0.015  -0.319195  -0.027171  3.509871  -0.012  -0.317882  -0.287685  -0.034196  3.48685  -0.018
N  N86  1  0.70609923  0.24214144  0.51986065  1  0.493712  -0.000142  3.929541  0.0  0.518243  -0.000167  4.235213  0.0  0.53997  -0.000103  4.245238  0.0  0.042096  0.503766  -0.00044  4.228377  0.0
N  N87  1  0.79393200  0.72234358  0.47961604  1  0.494801  -0.000142  3.924608  0.0  0.519459  -0.000166  4.230326  0.0  0.541174  -0.000103  4.240366  0.0  0.041562  0.504998  -0.000442  4.223489  0.0
N  N88  1  0.29390103  0.75785539  0.48013921  1  0.493919  -0.000143  3.929239  0.0  0.518383  -0.000166  4.234939  0.0  0.540108  -0.000103  4.244971  0.0  0.042303  0.503908  -0.000441  4.228095  0.0
N  N89  1  0.20608042  0.27764098  0.52038147  1  0.494353  -0.000156  3.925085  0.0  0.519004  -0.000165  4.23076  0.0  0.540717  -0.000104  4.240804  0.0  0.041293  0.504543  -0.000442  4.223916  0.0
O  O90  1  0.60056846  0.41198392  0.88670649  1  -0.632995  -0.032535  2.080727  -0.017  -0.564931  -0.040967  2.360667  -0.021  -0.594732  -0.036109  2.344639  -0.017  -0.304948  -0.542793  -0.04625  2.371227  -0.026
O  O91  1  0.89922485  0.52549484  0.11280524  1  -0.633183  -0.03254  2.07982  -0.017  -0.565385  -0.04103  2.360151  -0.021  -0.595163  -0.036149  2.344052  -0.017  -0.305573  -0.543293  -0.04628  2.370778  -0.026
O  O92  1  0.39949280  0.58798416  0.11328265  1  -0.632679  -0.032526  2.081239  -0.017  -0.564518  -0.040953  2.361053  -0.021  -0.594311  -0.036097  2.345025  -0.017  -0.304689  -0.542394  -0.046194  2.371618  -0.026
O  O93  1  0.10070506  0.47449637  0.88720376  1  -0.633047  -0.032536  2.079821  -0.017  -0.565316  -0.041024  2.36015  -0.021  -0.595104  -0.036144  2.344072  -0.017  -0.305474  -0.543212  -0.046297  2.370765  -0.026
O  O94  1  0.52491079  0.59980982  0.92429537  1  -0.64019  -0.025976  2.043869  -0.015  -0.576698  -0.036569  2.298863  -0.023  -0.603823  -0.031882  2.283035  -0.019  -0.297834  -0.557309  -0.041601  2.309526  -0.027
O  O95  1  0.97504607  0.67569560  0.07518191  1  -0.640418  -0.025991  2.044713  -0.015  -0.576538  -0.036533  2.299323  -0.023  -0.603728  -0.031848  2.283597  -0.019  -0.297623  -0.557136  -0.041543  2.309935  -0.027
O  O96  1  0.47507202  0.40014993  0.07569463  1  -0.639951  -0.025969  2.043587  -0.015  -0.576576  -0.036554  2.298518  -0.023  -0.603701  -0.031867  2.282691  -0.019  -0.297691  -0.557168  -0.041648  2.309187  -0.027
O  O97  1  0.02498727  0.32428297  0.92482832  1  -0.640602  -0.025999  2.044636  -0.015  -0.576725  -0.036531  2.299177  -0.023  -0.603923  -0.031849  2.283472  -0.019  -0.297686  -0.557317  -0.041561  2.30979  -0.027
O  O98  1  0.68311804  0.15740122  0.54116177  1  -0.383753  0.000231  1.746545  0.0  -0.356548  0.000163  1.956424  0.0  -0.369253  0.000284  1.954934  0.0  -0.140723  -0.348158  -1.3e-05  1.957571  0.0
O  O99  1  0.81673781  0.61629543  0.45826919  1  -0.383886  0.000238  1.74302  0.0  -0.357021  0.000161  1.953501  0.0  -0.369698  0.000285  1.95199  0.0  -0.140561  -0.348594  -1.6e-05  1.954526  0.0
O  O100  1  0.31688150  0.84259118  0.45883167  1  -0.383919  0.000221  1.74637  0.0  -0.356674  0.000163  1.956229  0.0  -0.36938  0.000282  1.954746  0.0  -0.140862  -0.348277  -6e-06  1.957369  0.0
O  O101  1  0.18326942  0.38371821  0.54175014  1  -0.383969  0.000234  1.742429  0.0  -0.357101  0.000162  1.952887  0.0  -0.369807  0.000283  1.951412  0.0  -0.14059  -0.348665  -1.8e-05  1.953907  0.0
O  O102  1  0.74878511  0.23023032  0.43658560  1  -0.384848  -2.8e-05  1.757981  0.0  -0.363787  -0.000203  1.9785  0.0  -0.375554  -7.1e-05  1.975869  0.0  -0.139848  -0.356115  -0.000493  1.980474  0.0
O  O103  1  0.75135859  0.79369840  0.56293410  1  -0.385977  -2.2e-05  1.756427  0.0  -0.365014  -0.000203  1.976991  0.0  -0.376778  -7e-05  1.974342  0.0  -0.139976  -0.357343  -0.000497  1.978967  0.0
O  O104  1  0.25122171  0.76977095  0.56341764  1  -0.384844  -1.8e-05  1.757961  0.0  -0.363795  -0.000204  1.978496  0.0  -0.375564  -6.8e-05  1.97587  0.0  -0.139847  -0.35612  -0.000494  1.980461  0.0
O  O105  1  0.24864286  0.20631959  0.43708034  1  -0.385347  -2.3e-05  1.757391  0.0  -0.364434  -0.000203  1.978022  0.0  -0.376195  -7e-05  1.975397  0.0  -0.139641  -0.356766  -0.000491  1.979986  0.0
O  O106  1  0.58306358  0.68901315  0.80636724  1  -0.485449  -0.000364  2.099184  -0.001  -0.438191  -0.000913  2.31149  -0.001  -0.460569  -0.000604  2.305582  -0.001  -0.32653  -0.422323  -0.001285  2.314868  -0.002
O  O107  1  0.91721587  0.88287227  0.19313701  1  -0.486692  -0.000367  2.098608  -0.001  -0.439099  -0.000915  2.312089  -0.001  -0.461394  -0.000606  2.30612  -0.001  -0.326791  -0.423295  -0.001273  2.315509  -0.002
O  O108  1  0.41692670  0.31096782  0.19364388  1  -0.485346  -0.000365  2.099064  -0.001  -0.438268  -0.000912  2.311276  -0.001  -0.460637  -0.000604  2.305346  -0.001  -0.326592  -0.422416  -0.00129  2.314713  -0.002
O  O109  1  0.08280628  0.11710879  0.80685168  1  -0.486944  -0.000372  2.098472  -0.001  -0.439285  -0.000914  2.311962  -0.001  -0.46158  -0.000605  2.305987  -0.001  -0.326885  -0.423478  -0.001282  2.315388  -0.002
