# generated using pymatgen
data_ZnH16C20(NO2)2
_symmetry_space_group_name_H-M   'P 1'
_cell_length_a   7.40527985
_cell_length_b   9.32650571
_cell_length_c   13.76860227
_cell_angle_alpha   88.79928161
_cell_angle_beta   87.07358532
_cell_angle_gamma   66.52643744
_symmetry_Int_Tables_number   1
_chemical_formula_structural   ZnH16C20(NO2)2
_chemical_formula_sum   'Zn2 H32 C40 N4 O8'
_cell_volume   871.10064248
_cell_formula_units_Z   2
loop_
 _symmetry_equiv_pos_site_id
 _symmetry_equiv_pos_as_xyz
  1  'x, y, z'
loop_
 _atom_site_type_symbol
 _atom_site_label
 _atom_site_symmetry_multiplicity
 _atom_site_fract_x
 _atom_site_fract_y
 _atom_site_fract_z
 _atom_site_occupancy
 _atom_site_hle17_bader_spin_density
 _atom_site_hle17_ddec_charge
 _atom_site_hle17_ddec_spin_density
 _atom_site_hle17_ddec_sum_bond_order
 _atom_site_hle17_magmom
 _atom_site_hse06_10hf_bader_spin_density
 _atom_site_hse06_10hf_ddec_charge
 _atom_site_hse06_10hf_ddec_spin_density
 _atom_site_hse06_10hf_ddec_sum_bond_order
 _atom_site_hse06_10hf_magmom
 _atom_site_hse06_bader_spin_density
 _atom_site_hse06_ddec_charge
 _atom_site_hse06_ddec_spin_density
 _atom_site_hse06_ddec_sum_bond_order
 _atom_site_hse06_magmom
 _atom_site_pbe_bader_spin_density
 _atom_site_pbe_cm5_charge
 _atom_site_pbe_ddec_charge
 _atom_site_pbe_ddec_spin_density
 _atom_site_pbe_ddec_sum_bond_order
 _atom_site_pbe_magmom
Zn  Zn0  1  0.05599853  0.26512432  0.09127821  1  0  0.978724  0  1.825449  0  0  0.791658  0  2.2783  0  0  0.844449  0  2.222309  0  0  0.680956  0.755051  0  2.315936  0
Zn  Zn1  1  0.32025292  0.73497197  0.59024999  1  0  0.978425  0  1.824981  0  0  0.791646  0  2.277826  0  0  0.844458  0  2.221798  0  0  0.681282  0.755065  0  2.315467  0
H  H2  1  0.00345080  0.98355361  0.89864250  1  0  0.1116  0  0.957692  0  0  0.117789  0  1.024016  0  0  0.121732  0  1.021211  0  0  0.103668  0.115045  0  1.025965  0
H  H3  1  0.98659846  0.01730123  0.39839324  1  0  0.110834  0  0.956049  0  0  0.117158  0  1.02234  0  0  0.121082  0  1.019594  0  0  0.103544  0.1142  0  1.02466  0
H  H4  1  0.36556133  0.01889037  0.77607978  1  0  0.109939  0  0.954714  0  0  0.116479  0  1.020432  0  0  0.120357  0  1.017764  0  0  0.103371  0.113734  0  1.022364  0
H  H5  1  0.38540328  0.97977776  0.27596238  1  0  0.109267  0  0.954684  0  0  0.116195  0  1.019935  0  0  0.120066  0  1.017311  0  0  0.103644  0.113237  0  1.022183  0
H  H6  1  0.91159773  0.84778744  0.10470892  1  0  0.11519  0  0.962791  0  0  0.123605  0  1.026669  0  0  0.126262  0  1.026427  0  0  0.11014  0.121658  0  1.026986  0
H  H7  1  0.75916585  0.15240677  0.60526194  1  0  0.114837  0  0.96332  0  0  0.123136  0  1.027183  0  0  0.125671  0  1.027146  0  0  0.110266  0.121149  0  1.02751  0
H  H8  1  0.69747803  0.08902478  0.00506136  1  0  0.10526  0  0.978361  0  0  0.109956  0  1.050748  0  0  0.11453  0  1.0462  0  0  0.10126  0.106621  0  1.054255  0
H  H9  1  0.78715996  0.91129050  0.50504548  1  0  0.105469  0  0.977706  0  0  0.110184  0  1.050129  0  0  0.114687  0  1.045664  0  0  0.101152  0.106867  0  1.053587  0
H  H10  1  0.67167727  0.91339754  0.66939430  1  0  0.105657  0  0.977248  0  0  0.109999  0  1.050068  0  0  0.114401  0  1.045819  0  0  0.10086  0.10681  0  1.053268  0
H  H11  1  0.58464753  0.08616149  0.16914181  1  0  0.106003  0  0.977553  0  0  0.110737  0  1.049784  0  0  0.115171  0  1.045527  0  0  0.101157  0.107478  0  1.05306  0
H  H12  1  0.20197753  0.82320096  0.19607545  1  0  0.109734  0  0.927005  0  0  0.124312  0  0.980049  0  0  0.126591  0  0.978743  0  0  0.114705  0.122573  0  0.981165  0
H  H13  1  0.02450406  0.17723659  0.69679433  1  0  0.109874  0  0.926122  0  0  0.12425  0  0.979461  0  0  0.126556  0  0.97818  0  0  0.114808  0.122585  0  0.980525  0
H  H14  1  0.56405261  0.42860668  0.28771219  1  0  0.111755  0  0.947946  0  0  0.133  0  1.006876  0  0  0.13391  0  1.007575  0  0  0.0921  0.13224  0  1.006561  0
H  H15  1  0.99083650  0.57178061  0.78784750  1  0  0.111847  0  0.948587  0  0  0.13322  0  1.007194  0  0  0.134168  0  1.007881  0  0  0.092188  0.132552  0  1.006657  0
H  H16  1  0.44744173  0.62641418  0.33080951  1  0  0.134006  0  0.975579  0  0  0.152653  0  1.03829  0  0  0.154124  0  1.038139  0  0  0.095302  0.151544  0  1.038295  0
H  H17  1  0.07215179  0.37402085  0.83118495  1  0  0.134157  0  0.975284  0  0  0.152587  0  1.038257  0  0  0.154089  0  1.03808  0  0  0.095193  0.151421  0  1.03839  0
H  H18  1  0.58564129  0.58517705  0.21911264  1  0  0.109141  0  0.959503  0  0  0.12892  0  1.024384  0  0  0.128868  0  1.026534  0  0  0.089882  0.129005  0  1.022684  0
H  H19  1  0.16955314  0.41496651  0.71954864  1  0  0.109225  0  0.95815  0  0  0.128947  0  1.022968  0  0  0.128931  0  1.025073  0  0  0.090008  0.129045  0  1.021375  0
H  H20  1  0.35336593  0.32730723  0.21544455  1  0  0.087839  0  0.948078  0  0  0.097728  0  1.011705  0  0  0.099518  0  1.010961  0  0  0.119015  0.096326  0  1.012453  0
H  H21  1  0.67844293  0.67322547  0.71510241  1  0  0.088646  0  0.948021  0  0  0.098203  0  1.011814  0  0  0.099971  0  1.011103  0  0  0.119274  0.096765  0  1.012839  0
H  H22  1  0.70267329  0.32119148  0.96537997  1  0  0.091783  0  0.943022  0  0  0.102317  0  1.004454  0  0  0.104047  0  1.003592  0  0  0.121229  0.100836  0  1.005758  0
H  H23  1  0.02275902  0.67854896  0.46430634  1  0  0.091081  0  0.943151  0  0  0.101215  0  1.005192  0  0  0.103065  0  1.004213  0  0  0.120707  0.099692  0  1.006252  0
H  H24  1  0.62652961  0.84699817  0.06174394  1  0  0.112494  0  0.965927  0  0  0.121549  0  1.029478  0  0  0.12397  0  1.029551  0  0  0.109877  0.119615  0  1.029804  0
H  H25  1  0.47402896  0.15305758  0.56172501  1  0  0.112617  0  0.965148  0  0  0.121275  0  1.029236  0  0  0.123715  0  1.029269  0  0  0.109692  0.119423  0  1.029442  0
H  H26  1  0.36119181  0.81845587  0.97121085  1  0  0.109314  0  0.93245  0  0  0.122886  0  0.987224  0  0  0.125141  0  0.986022  0  0  0.114238  0.1213  0  0.988166  0
H  H27  1  0.18005185  0.18134754  0.47131641  1  0  0.109569  0  0.931816  0  0  0.12311  0  0.986587  0  0  0.125323  0  0.985415  0  0  0.114318  0.121489  0  0.987519  0
H  H28  1  0.23128230  0.65222914  0.89033724  1  0  0.123085  0  0.961387  0  0  0.140374  0  1.026503  0  0  0.142198  0  1.025911  0  0  0.093562  0.139112  0  1.026838  0
H  H29  1  0.88310595  0.34737461  0.39039832  1  0  0.122898  0  0.961782  0  0  0.140604  0  1.026525  0  0  0.142343  0  1.026045  0  0  0.093625  0.139305  0  1.02697  0
H  H30  1  0.28856887  0.47242715  0.95573561  1  0  0.113403  0  0.949434  0  0  0.134123  0  1.011335  0  0  0.13417  0  1.013061  0  0  0.092877  0.134088  0  1.009846  0
H  H31  1  0.76019343  0.52736173  0.45546998  1  0  0.113616  0  0.949724  0  0  0.13471  0  1.010959  0  0  0.134773  0  1.012648  0  0  0.093175  0.134614  0  1.009759  0
H  H32  1  0.40885042  0.47455343  0.84193353  1  0  0.116451  0  0.939517  0  0  0.13978  0  0.996255  0  0  0.140247  0  0.997757  0  0  0.09555  0.139414  0  0.995322  0
H  H33  1  0.88245216  0.52486157  0.34156697  1  0  0.116476  0  0.939621  0  0  0.139806  0  0.99665  0  0  0.140216  0  0.99822  0  0  0.095678  0.139543  0  0.995431  0
C  C34  1  0.51200386  0.06239046  0.89649262  1  0  -0.05851  0  3.773902  0  0  -0.035749  0  4.003301  0  0  -0.042835  0  4.026719  0  0  -0.018477  -0.031144  0  3.987545  0
C  C35  1  0.57524461  0.93709098  0.39640404  1  0  -0.059963  0  3.774161  0  0  -0.036692  0  4.003346  0  0  -0.043724  0  4.026666  0  0  -0.018127  -0.032343  0  3.987379  0
C  C36  1  0.85720869  0.93962369  0.77811074  1  0  -0.061133  0  3.779851  0  0  -0.038563  0  4.01146  0  0  -0.045627  0  4.034763  0  0  -0.018326  -0.034021  0  3.99581  0
C  C37  1  0.79629633  0.06063924  0.27787996  1  0  -0.059344  0  3.778659  0  0  -0.037134  0  4.010472  0  0  -0.044146  0  4.033734  0  0  -0.018316  -0.032764  0  3.994777  0
C  C38  1  0.86422985  0.98914583  0.87276400  1  0  -0.070268  0  3.715649  0  0  -0.09272  0  3.964171  0  0  -0.09345  0  3.98371  0  0  -0.084089  -0.092675  0  3.951652  0
C  C39  1  0.85312230  0.01131706  0.37258424  1  0  -0.069739  0  3.714441  0  0  -0.092254  0  3.963235  0  0  -0.092953  0  3.982705  0  0  -0.084101  -0.091918  0  3.950369  0
C  C40  1  0.50503993  0.01308918  0.80179194  1  0  -0.06791  0  3.71624  0  0  -0.089184  0  3.962226  0  0  -0.089883  0  3.981922  0  0  -0.082962  -0.089204  0  3.949635  0
C  C41  1  0.51870823  0.98617813  0.30165157  1  0  -0.065743  0  3.715692  0  0  -0.087778  0  3.962196  0  0  -0.088482  0  3.981881  0  0  -0.082936  -0.087313  0  3.948905  0
C  C42  1  0.00920082  0.73384082  0.13130789  1  0  -0.13104  0  3.706186  0  0  -0.150066  0  3.956727  0  0  -0.156526  0  3.978808  0  0  -0.076022  -0.145589  0  3.941353  0
C  C43  1  0.74248664  0.26641650  0.63159212  1  0  -0.130493  0  3.70559  0  0  -0.148913  0  3.955905  0  0  -0.15535  0  3.978082  0  0  -0.076139  -0.144573  0  3.941056  0
C  C44  1  0.32748901  0.12754556  0.95955693  1  0  0.60755  0  3.942267  0  0  0.560799  0  4.232043  0  0  0.594753  0  4.225285  0  0  0.192082  0.538021  0  4.2354  0
C  C45  1  0.45623581  0.87184715  0.45955537  1  0  0.607397  0  3.942712  0  0  0.560539  0  4.23233  0  0  0.594453  0  4.225674  0  0  0.191784  0.537867  0  4.235625  0
C  C46  1  0.69229056  0.05021099  0.93148477  1  0  -0.092705  0  3.742857  0  0  -0.115148  0  3.99484  0  0  -0.11592  0  4.013723  0  0  -0.08996  -0.114312  0  3.982492  0
C  C47  1  0.74292371  0.94990021  0.43141577  1  0  -0.092904  0  3.743103  0  0  -0.115313  0  3.994795  0  0  -0.116029  0  4.013618  0  0  -0.089947  -0.114666  0  3.982206  0
C  C48  1  0.04164545  0.87257867  0.71521083  1  0  0.604891  0  3.943931  0  0  0.558462  0  4.233004  0  0  0.592442  0  4.226579  0  0  0.190331  0.535571  0  4.236369  0
C  C49  1  0.91321652  0.12764075  0.21473563  1  0  0.605619  0  3.942533  0  0  0.559425  0  4.231064  0  0  0.59336  0  4.22465  0  0  0.191003  0.536756  0  4.234202  0
C  C50  1  0.67679589  0.95236311  0.74292776  1  0  -0.094265  0  3.744854  0  0  -0.116931  0  3.997673  0  0  -0.117726  0  4.01679  0  0  -0.090799  -0.116024  0  3.984988  0
C  C51  1  0.62899588  0.04736009  0.24271869  1  0  -0.095081  0  3.745763  0  0  -0.117934  0  3.998877  0  0  -0.118755  0  4.017889  0  0  -0.090657  -0.117258  0  3.986159  0
C  C52  1  0.80855764  0.59844867  0.05939844  1  0  0.160825  0  3.782949  0  0  0.15421  0  4.026649  0  0  0.160505  0  4.046608  0  0  0.114289  0.149875  0  4.013137  0
C  C53  1  0.40659163  0.40164334  0.55898586  1  0  0.160486  0  3.785472  0  0  0.155424  0  4.027372  0  0  0.161756  0  4.047211  0  0  0.114691  0.151229  0  4.013648  0
C  C54  1  0.97531985  0.59961413  0.11357410  1  0  0.163869  0  3.783157  0  0  0.157021  0  4.027758  0  0  0.163545  0  4.04764  0  0  0.115555  0.152764  0  4.013963  0
C  C55  1  0.57419291  0.40063692  0.61336697  1  0  0.163293  0  3.782112  0  0  0.1555  0  4.027339  0  0  0.161991  0  4.047314  0  0  0.115564  0.151167  0  4.013725  0
C  C56  1  0.17339231  0.71968152  0.18194715  1  0  -0.052782  0  3.664663  0  0  -0.077966  0  3.90996  0  0  -0.076112  0  3.929163  0  0  -0.060627  -0.078974  0  3.896761  0
C  C57  1  0.89220157  0.28070485  0.68234804  1  0  -0.052402  0  3.663808  0  0  -0.077557  0  3.909042  0  0  -0.075796  0  3.928301  0  0  -0.060401  -0.078518  0  3.895953  0
C  C58  1  0.30386098  0.57282997  0.21404469  1  0  0.109767  0  3.738008  0  0  0.136852  0  3.978833  0  0  0.134083  0  4.003399  0  0  0.004627  0.138295  0  3.962393  0
C  C59  1  0.87528457  0.42763539  0.71420023  1  0  0.109928  0  3.738285  0  0  0.136778  0  3.979328  0  0  0.134031  0  4.003923  0  0  0.004441  0.138461  0  3.962572  0
C  C60  1  0.48508181  0.55088698  0.26625529  1  0  -0.344219  0  3.715834  0  0  -0.423423  0  3.946834  0  0  -0.425663  0  3.957754  0  0  -0.242812  -0.421366  0  3.939127  0
C  C61  1  0.03441285  0.44948803  0.76655758  1  0  -0.343959  0  3.715951  0  0  -0.422635  0  3.946199  0  0  -0.424978  0  3.957089  0  0  -0.242289  -0.420713  0  3.938458  0
C  C62  1  0.25854630  0.44524596  0.19314943  1  0  0.085149  0  3.660012  0  0  0.048054  0  3.904788  0  0  0.053705  0  3.923295  0  0  0.05419  0.044251  0  3.892281  0
C  C63  1  0.70214767  0.55520541  0.69296232  1  0  0.083846  0  3.660814  0  0  0.04684  0  3.905539  0  0  0.05253  0  3.924054  0  0  0.054174  0.043206  0  3.893158  0
C  C64  1  0.50816981  0.56744163  0.96003033  1  0  0.107197  0  3.734802  0  0  0.133219  0  3.977134  0  0  0.130204  0  4.001753  0  0  0.004717  0.135087  0  3.960376  0
C  C65  1  0.07512208  0.43233494  0.45969995  1  0  0.105509  0  3.736414  0  0  0.132804  0  3.977152  0  0  0.129752  0  4.001785  0  0  0.004076  0.134513  0  3.960638  0
C  C66  1  0.67987333  0.44033112  0.98438859  1  0  0.095279  0  3.642829  0  0  0.059404  0  3.885644  0  0  0.065889  0  3.903484  0  0  0.058986  0.055146  0  3.873805  0
C  C67  1  0.11944248  0.55951932  0.48364498  1  0  0.096162  0  3.641867  0  0  0.060353  0  3.884776  0  0  0.066709  0  3.902589  0  0  0.059477  0.056103  0  3.87268  0
C  C68  1  0.64207875  0.73187041  0.03811812  1  0  -0.130231  0  3.708547  0  0  -0.149272  0  3.958439  0  0  -0.155466  0  3.980374  0  0  -0.076497  -0.145106  0  3.943934  0
C  C69  1  0.37406803  0.26814197  0.53792970  1  0  -0.13032  0  3.709901  0  0  -0.149641  0  3.959737  0  0  -0.15582  0  3.981517  0  0  -0.075968  -0.14534  0  3.944631  0
C  C70  1  0.49234239  0.71554813  0.98804977  1  0  -0.057074  0  3.673147  0  0  -0.08227  0  3.918585  0  0  -0.08068  0  3.938321  0  0  -0.061215  -0.083174  0  3.905292  0
C  C71  1  0.20791982  0.28432261  0.48792357  1  0  -0.0573  0  3.674048  0  0  -0.08268  0  3.919197  0  0  -0.080984  0  3.938807  0  0  -0.06186  -0.08361  0  3.905642  0
C  C72  1  0.34972135  0.54127522  0.90937878  1  0  -0.336442  0  3.718256  0  0  -0.416906  0  3.953649  0  0  -0.419037  0  3.964961  0  0  -0.238739  -0.415123  0  3.94555  0
C  C73  1  0.89033575  0.45836716  0.40918072  1  0  -0.336538  0  3.720133  0  0  -0.418192  0  3.955468  0  0  -0.420239  0  3.966831  0  0  -0.239217  -0.416405  0  3.947559  0
N  N74  1  0.10051640  0.45832388  0.14480120  1  0  -0.350633  0  3.327018  0  0  -0.27786  0  3.598753  0  0  -0.296008  0  3.613777  0  0  -0.32502  -0.265163  0  3.587697  0
N  N75  1  0.55753088  0.54202049  0.64438764  1  0  -0.349555  0  3.326611  0  0  -0.276176  0  3.598206  0  0  -0.294424  0  3.613274  0  0  -0.325308  -0.264077  0  3.587866  0
N  N76  1  0.82362018  0.45536701  0.03235502  1  0  -0.345862  0  3.31764  0  0  -0.271738  0  3.587363  0  0  -0.290339  0  3.60255  0  0  -0.323503  -0.259304  0  3.576934  0
N  N77  1  0.27827425  0.54464036  0.53156134  1  0  -0.345104  0  3.317495  0  0  -0.272099  0  3.587241  0  0  -0.29058  0  3.602386  0  0  -0.323357  -0.259106  0  3.576019  0
O  O78  1  0.02493235  0.85989740  0.62295087  1  0  -0.631815  0  1.993001  0  0  -0.561259  0  2.245115  0  0  -0.590355  0  2.232838  0  0  -0.32718  -0.541053  0  2.252768  0
O  O79  1  0.88403383  0.14006142  0.12253769  1  0  -0.632197  0  1.991996  0  0  -0.561976  0  2.242922  0  0  -0.59094  0  2.230848  0  0  -0.32671  -0.541631  0  2.250256  0
O  O80  1  0.34521770  0.14504944  0.05134874  1  0  -0.63505  0  2.003684  0  0  -0.563318  0  2.259759  0  0  -0.592679  0  2.246998  0  0  -0.329138  -0.542887  0  2.267691  0
O  O81  1  0.49088859  0.85473610  0.55137747  1  0  -0.634326  0  2.000744  0  0  -0.563129  0  2.256327  0  0  -0.592343  0  2.243584  0  0  -0.328602  -0.542703  0  2.264128  0
O  O82  1  0.20900838  0.82753754  0.75144577  1  0  -0.609468  0  1.923027  0  0  -0.554889  0  2.156103  0  0  -0.579611  0  2.146455  0  0  -0.315664  -0.537821  0  2.162065  0
O  O83  1  0.03546272  0.17292298  0.25083860  1  0  -0.610751  0  1.92441  0  0  -0.555719  0  2.158162  0  0  -0.580548  0  2.148307  0  0  -0.316111  -0.538404  0  2.163913  0
O  O84  1  0.16081375  0.16569697  0.92411693  1  0  -0.610726  0  1.9416  0  0  -0.558303  0  2.173717  0  0  -0.582139  0  2.163851  0  0  -0.313604  -0.541868  0  2.179756  0
O  O85  1  0.32804208  0.83334811  0.42407739  1  0  -0.611137  0  1.942256  0  0  -0.558406  0  2.174772  0  0  -0.582362  0  2.164966  0  0  -0.313611  -0.541563  0  2.180491  0
